data_mof_unit_21458.cif
_audit_creation_date              2012-12-10T17:31:14-0500
_audit_creation_method            fapswitch 2.2
_symmetry_space_group_name_H-M    P1
_symmetry_Int_Tables_number       1
_space_group_crystal_system       triclinic
_cell_length_a                    12.035246
_cell_length_b                    12.852221
_cell_length_c                    15.340254
_cell_angle_alpha                 86.051496
_cell_angle_beta                  115.554087
_cell_angle_gamma                 93.543141
_cell_volume                      2134.27192614

loop_
_atom_site_label
_atom_site_type_symbol
_atom_type_description
_atom_site_fract_x
_atom_site_fract_y
_atom_site_fract_z
_atom_type_partial_charge
C1    C     C_R   0.475307 0.299719 0.495696 0.895352
C2    C     C_R   0.662532 0.967842 0.579111 -0.180843
C3    C     C_R   0.341220 0.140407 0.428663 0.136802
C4    C     C_R   0.658730 0.859732 0.571077 0.133835
C5    C     C_R   0.560667 0.130172 0.539896 -0.268246
C6    C     C_R   0.438742 0.869683 0.461149 -0.274923
C7    C     C_R   0.555806 0.024451 0.530326 0.117982
C8    C     C_R   0.443516 0.975385 0.470764 0.117785
C9    C     C_R   0.016474 0.620098 0.429323 0.032918
C10   C     C_R   0.993767 0.391739 0.585871 0.026417
C11   C     C_R   0.129383 0.599132 0.426838 0.480579
C12   C     C_R   0.524656 0.700294 0.504294 0.887004
C13   C     C_R   0.874183 0.405867 0.579403 0.473442
C14   C     C_R   0.157982 0.451887 0.534216 -0.141622
C15   C     C_R   0.843146 0.549764 0.467584 -0.148602
C16   C     C_R   0.576508 0.498057 0.680517 0.879729
C17   C     C_R   0.423504 0.506668 0.318972 0.872915
C18   C     C_R   0.039053 0.461275 0.531543 -0.015401
C19   C     C_R   0.965369 0.545027 0.475671 -0.040906
C20   C     C_R   0.623465 0.510913 0.784031 -0.076894
C21   C     C_R   0.375500 0.525813 0.214090 -0.067017
C22   C     C_R   0.765213 0.478740 0.950250 -0.198205
C23   C     C_R   0.635208 0.598880 0.099499 0.141331
C24   C     C_R   0.211830 0.575932 0.059346 -0.190754
C25   C     C_R   0.730531 0.465588 0.852271 -0.191814
C26   C     C_R   0.252477 0.550053 0.157636 -0.165217
C27   C     C_R   0.552113 0.566420 0.814439 -0.252881
C28   C     C_R   0.457031 0.530845 0.171713 -0.261920
C29   C     C_R   0.567157 0.557138 0.909337 0.076765
C30   C     C_R   0.420309 0.566405 0.075097 0.058942
C31   C     C_R   0.686087 0.528243 0.980089 0.094685
C32   C     C_R   0.294059 0.579281 0.015195 0.109539
C33   C     C_R   0.470402 0.575083 0.937061 -0.048451
C34   C     C_R   0.338998 0.577853 0.873322 0.116679
C35   C     C_R   0.508170 0.581985 0.037437 -0.055760
C36   C     C_3   0.857125 0.545884 0.151799 -0.401266
C37   C     C_3   0.873729 0.441272 0.208488 -0.874083
C38   C     C_3   0.117268 0.611193 0.849110 -0.430073
C39   C     C_3   0.033917 0.512351 0.832874 -0.829395
C40   C     C_3   0.962488 0.727221 0.391718 -0.399178
C41   C     C_3   0.040270 0.811909 0.459708 -0.833010
C42   C     C_3   0.071248 0.303013 0.650334 -0.399693
C43   C     C_3   0.059430 0.208517 0.591422 -0.826962
C44   C     C_3   0.673132 0.673694 0.181110 -0.434549
C45   C     C_R   0.724051 0.556567 0.076255 0.121914
C46   C     C_3   0.723491 0.777484 0.155144 -0.877596
C47   C     C_3   0.284259 0.553977 0.765941 -0.383299
C48   C     C_3   0.261744 0.652644 0.698405 -0.872294
C49   C     C_3   0.773309 0.795474 0.626190 -0.362891
C50   C     C_3   0.888319 0.854491 0.696005 -0.917649
C51   C     C_3   0.227568 0.205162 0.371709 -0.367836
C52   C     C_3   0.113105 0.146606 0.300652 -0.906528
C53   C     C_R   0.253234 0.590798 0.913707 0.112080
C54   C     C_R   0.543444 0.811611 0.511483 -0.129042
C55   C     C_R   0.456358 0.188393 0.488746 -0.130738
C56   C     C_R   0.336934 0.032114 0.421550 -0.184102
Cl1   Cl    Cl    0.822303 0.329737 0.655349 -0.700494
Cl2   Cl    Cl    0.174709 0.672336 0.345568 -0.703285
H1    H     H_    0.551155 0.508481 0.215225 0.166007
H2    H     H_    0.747343 0.009163 0.623382 0.166334
H3    H     H_    0.780037 0.606961 0.421082 0.145021
H4    H     H_    0.217871 0.390250 0.576149 0.167225
H5    H     H_    0.814527 0.435255 0.247798 0.261719
H6    H     H_    0.849163 0.375864 0.159046 0.257708
H7    H     H_    0.971386 0.434753 0.262161 0.259840
H8    H     H_    0.922848 0.555127 0.118490 0.202401
H9    H     H_    0.887066 0.608340 0.203921 0.234121
H10   H     H_    0.067224 0.449361 0.805432 0.260495
H11   H     H_    0.028682 0.481715 0.900290 0.250712
H12   H     H_    0.484636 0.616321 0.762633 0.186334
H13   H     H_    0.939301 0.530954 0.778814 0.269275
H14   H     H_    0.084288 0.671494 0.879916 0.197030
H15   H     H_    0.103637 0.646941 0.778061 0.224905
H16   H     H_    0.038765 0.797965 0.531458 0.251176
H17   H     H_    0.137159 0.813554 0.469172 0.282240
H18   H     H_    0.001542 0.889412 0.429190 0.243722
H19   H     H_    0.957800 0.745964 0.318656 0.246697
H20   H     H_    0.867861 0.733541 0.383990 0.196443
H21   H     H_    0.962212 0.178479 0.558400 0.272082
H22   H     H_    0.089296 0.229335 0.533175 0.249007
H23   H     H_    0.187235 0.548565 0.189054 0.192606
H24   H     H_    0.118083 0.145686 0.639434 0.245668
H25   H     H_    0.169286 0.328429 0.689617 0.179493
H26   H     H_    0.044752 0.277646 0.709406 0.251023
H27   H     H_    0.805218 0.766876 0.141441 0.259765
H28   H     H_    0.651255 0.814669 0.089150 0.270066
H29   H     H_    0.750062 0.831010 0.215296 0.250976
H30   H     H_    0.593944 0.694305 0.194519 0.228388
H31   H     H_    0.740315 0.637240 0.249621 0.197079
H32   H     H_    0.162172 0.668548 0.660432 0.246566
H33   H     H_    0.311957 0.722254 0.738675 0.256560
H34   H     H_    0.787583 0.422330 0.830065 0.190795
H35   H     H_    0.292587 0.641506 0.641316 0.272688
H36   H     H_    0.338104 0.496476 0.751417 0.207465
H37   H     H_    0.195610 0.509751 0.744350 0.210732
H38   H     H_    0.920621 0.914936 0.656000 0.262862
H39   H     H_    0.869335 0.890705 0.751656 0.269697
H40   H     H_    0.963449 0.799033 0.733423 0.248974
H41   H     H_    0.751095 0.731321 0.669198 0.211337
H42   H     H_    0.798418 0.760544 0.573125 0.228207
H43   H     H_    0.133939 0.109161 0.246512 0.268642
H44   H     H_    0.078477 0.087113 0.339888 0.260499
H45   H     H_    0.851695 0.447191 0.001403 0.148850
H46   H     H_    0.039014 0.202730 0.261487 0.257062
H47   H     H_    0.200990 0.240948 0.423513 0.223003
H48   H     H_    0.251740 0.268752 0.329306 0.210200
H49   H     H_    0.115438 0.592083 0.019730 0.149557
H50   H     H_    0.352197 0.832089 0.414628 0.215538
H51   H     H_    0.647122 0.167749 0.586622 0.215854
H52   H     H_    0.252051 0.990883 0.377242 0.166058
N1    N     N_R   0.799120 0.480200 0.517090 -0.126607
N2    N     N_R   0.200880 0.519800 0.482910 -0.138766
O1    O     O_R   0.580150 0.341050 0.504560 -0.553304
O2    O     O_R   0.419850 0.658950 0.495440 -0.566509
O3    O     O_R   0.388090 0.353760 0.493600 -0.643432
O4    O     O_R   0.611910 0.646240 0.506400 -0.644814
O5    O     O_R   0.650890 0.490020 0.640860 -0.568033
O6    O     O_R   0.349110 0.509980 0.359140 -0.569769
O7    O     O_R   0.458830 0.502730 0.629890 -0.629929
O8    O     O_R   0.541170 0.497270 0.370110 -0.623805
Zn1   Zn    Zn3+2 0.628240 0.491510 0.507320 0.973700
Zn2   Zn    Zn3+2 0.371760 0.508490 0.492680 0.961292

loop_
_geom_bond_atom_site_label_1
_geom_bond_atom_site_label_2
_ccdc_geom_bond_type
C21   C26   A    
C23   C45   A    
N1    Zn1   S    
C39   H10   S    
C14   C18   A    
C2    C7    A    
C8    C56   A    
C36   H9    S    
C7    C8    A    
C15   C19   A    
C52   H44   S    
C30   C35   A    
C36   C37   S    
C24   C26   A    
C38   C39   S    
C36   H8    S    
O7    Zn2   S    
C10   C42   S    
C20   C25   A    
C43   H21   S    
C14   H4    S    
C29   C33   A    
C27   C29   A    
C18   C19   A    
O6    Zn2   S    
O5    Zn1   S    
C17   O8    A    
C41   H16   S    
C3    C55   A    
C9    C19   A    
C50   H39   S    
C22   C25   A    
C37   H7    S    
C11   Cl2   S    
C51   H47   S    
C46   H27   S    
C14   N2    A    
O3    Zn2   S    
C48   H32   S    
C46   H28   S    
C1    O1    A    
C6    C54   A    
C56   H52   S    
C37   H5    S    
C44   C46   S    
C12   O2    A    
C15   H3    S    
C38   H14   S    
C52   H43   S    
C50   H40   S    
C22   C31   A    
C51   C52   S    
C15   N1    A    
C42   H26   S    
O4    Zn1   S    
C16   O7    A    
C49   H41   S    
C5    C7    A    
C3    C51   S    
C6    C8    A    
C43   H22   S    
C48   H33   S    
C9    C40   S    
C17   C21   S    
C22   H45   S    
C2    C4    A    
C24   C32   A    
N2    Zn2   S    
C41   H17   S    
C3    C56   A    
C47   C48   S    
C16   C20   S    
C33   C34   A    
C39   H11   S    
O1    Zn1   S    
C36   C45   S    
C24   H49   S    
C9    C11   A    
C27   H12   S    
C17   O6    A    
C40   C41   S    
C21   C28   A    
C26   H23   S    
C23   C35   A    
C40   H20   S    
C42   C43   S    
C32   C53   A    
C37   H6    S    
O8    Zn1   S    
C46   H29   S    
C28   H1    S    
C52   H46   S    
C25   H34   S    
C6    H50   S    
C4    C54   A    
C11   N2    A    
C5    C55   A    
C42   H25   S    
C10   C13   A    
C20   C27   A    
C4    C49   S    
C28   C30   A    
C1    C55   S    
C29   C31   A    
C16   O5    A    
C49   H42   S    
C30   C32   A    
C50   H38   S    
C38   C53   S    
C5    H51   S    
C10   C18   A    
C51   H48   S    
C33   C35   A    
C47   H36   S    
C2    H2    S    
C48   H35   S    
C23   C44   S    
O2    Zn2   S    
C13   Cl1   S    
C34   C53   A    
C13   N1    A    
C49   C50   S    
C31   C45   A    
C43   H24   S    
C47   H37   S    
C40   H19   S    
C34   C47   S    
C1    O3    A    
C12   O4    A    
C44   H30   S    
C38   H15   S    
C12   C54   S    
C44   H31   S    
C41   H18   S    
C39   H13   S    
