data_mof_unit_7153.cif
_audit_creation_date              2012-12-11T16:11:14-0500
_audit_creation_method            fapswitch 2.2
_symmetry_space_group_name_H-M    P1
_symmetry_Int_Tables_number       1
_space_group_crystal_system       triclinic
_cell_length_a                    12.827157
_cell_length_b                    13.292942
_cell_length_c                    26.954412
_cell_angle_alpha                 97.392173
_cell_angle_beta                  90.206747
_cell_angle_gamma                 118.650263
_cell_volume                      3988.49498331

loop_
_atom_site_label
_atom_site_type_symbol
_atom_type_description
_atom_site_fract_x
_atom_site_fract_y
_atom_site_fract_z
_atom_type_partial_charge
C1    C     C_R   0.627967 0.894605 0.424397 0.539728
C2    C     C_1   0.139186 0.823535 0.179610 -0.044270
C3    C     C_1   0.159118 0.836316 0.231964 -0.005288
C4    C     C_R   0.601985 0.224041 0.443365 0.546046
C5    C     C_1   0.173478 0.843294 0.276640 -0.007012
C6    C     C_1   0.193651 0.850391 0.328629 -0.049073
C7    C     C_1   0.220043 0.859009 0.372408 -0.012851
C8    C     C_1   0.690143 0.798757 0.136385 -0.011284
C9    C     C_1   0.674007 0.808158 0.180261 -0.054442
C10   C     C_1   0.662829 0.816804 0.232340 -0.014251
C11   C     C_1   0.656834 0.825578 0.277062 -0.013066
C12   C     C_R   0.588598 0.362248 0.232728 0.023306
C13   C     C_1   0.650887 0.840835 0.329404 -0.051854
C14   C     C_1   0.643367 0.860794 0.373641 -0.016626
C15   C     C_1   0.692962 0.383206 0.875021 0.000118
C16   C     C_R   0.268139 0.875550 0.422517 0.542773
C17   C     C_1   0.682022 0.354834 0.830361 -0.019083
C18   C     C_1   0.671442 0.332407 0.777705 0.010417
C19   C     C_1   0.662438 0.317013 0.732653 -0.009473
C20   C     C_1   0.649292 0.296963 0.679977 -0.065575
C21   C     C_1   0.632560 0.271805 0.635163 -0.031271
C22   C     C_1   0.221901 0.866247 0.609688 -0.024369
C23   C     C_R   0.588984 0.361712 0.285596 0.019382
C24   C     C_R   0.121145 0.737073 0.718869 0.016529
C25   C     C_R   0.109708 0.727299 0.770094 0.102674
C26   C     C_R   0.227105 0.939396 0.792233 -0.001968
C27   C     C_R   0.241323 0.949774 0.740740 0.009575
C28   C     C_R   0.630467 0.898994 0.564058 0.543257
C29   C     C_R   0.183817 0.848542 0.704575 0.016956
C30   C     C_R   0.162038 0.827772 0.806099 0.031334
C31   C     C_1   0.140420 0.814878 0.857561 -0.018089
C32   C     C_1   0.198648 0.857978 0.652366 -0.071362
C33   C     C_1   0.111621 0.797480 0.899058 0.015046
C34   C     C_R   0.675322 0.342783 0.309753 0.039768
C35   C     C_1   0.648750 0.868101 0.610636 -0.018722
C36   C     C_R   0.744362 0.937975 0.740042 0.021619
C37   C     C_R   0.732603 0.930623 0.792206 0.004816
C38   C     C_R   0.574004 0.728785 0.771200 0.096180
C39   C     C_R   0.580127 0.739459 0.720610 -0.102055
C40   C     C_R   0.602437 0.226486 0.583114 0.535819
C41   C     C_R   0.664756 0.841711 0.704862 0.004025
C42   C     C_R   0.649804 0.823332 0.807006 0.040178
C43   C     C_1   0.655871 0.805005 0.858077 -0.018594
C44   C     C_1   0.658281 0.851560 0.652697 -0.066799
C45   C     C_R   0.680683 0.354171 0.206688 0.016336
C46   C     C_1   0.673875 0.791037 0.899693 0.008758
C47   C     C_R   0.065311 0.771781 0.084211 0.540515
C48   C     C_R   0.716190 0.438962 0.066796 0.538382
C49   C     C_R   0.720440 0.782288 0.086150 0.543240
C50   C     C_R   0.060631 0.765220 0.944769 0.552105
C51   C     C_R   0.709529 0.432138 0.926644 0.534841
C52   C     C_R   0.268468 0.879788 0.562033 0.543415
C53   C     C_R   0.712242 0.775426 0.946311 0.548571
C54   C     C_1   0.638084 0.278966 0.399677 -0.028911
C55   C     C_R   0.767080 0.336498 0.283135 0.001319
C56   C     C_1   0.693457 0.370297 0.154852 -0.065774
C57   C     C_R   0.769157 0.343623 0.231906 -0.113972
C58   C     C_3   0.864492 0.323338 0.308652 -0.250889
C59   C     C_3   0.953732 0.437545 0.340833 -0.292491
C60   C     C_3   0.053640 0.426093 0.365881 -0.448606
C61   C     C_3   0.805821 0.034523 0.832578 -0.256109
C62   C     C_3   0.726813 0.079163 0.859160 -0.303224
C63   C     C_3   0.799958 0.184689 0.898661 -0.434992
C64   C     C_3   0.490910 0.369326 0.203420 -0.250897
C65   C     C_3   0.517067 0.495156 0.205265 -0.292117
C66   C     C_3   0.420917 0.501615 0.174511 -0.439429
C67   C     C_1   0.659600 0.313586 0.359921 -0.073618
C68   C     C_3   0.500404 0.382473 0.317181 -0.254012
C69   C     C_3   0.563087 0.500901 0.350936 -0.299244
C70   C     C_3   0.473992 0.526129 0.379780 -0.444257
C71   C     C_3   0.068951 0.629348 0.679228 -0.236062
C72   C     C_3   0.946122 0.602114 0.657443 -0.294371
C73   C     C_3   0.900612 0.503850 0.613288 -0.442752
C74   C     C_3   0.277861 0.045342 0.832888 -0.254491
C75   C     C_3   0.395142 0.065755 0.858194 -0.303078
C76   C     C_3   0.433801 0.156731 0.904942 -0.436067
C77   C     C_3   0.320720 0.066895 0.723962 -0.246846
C78   C     C_1   0.703465 0.394159 0.113015 -0.018587
C79   C     C_3   0.247582 0.124331 0.710439 -0.303966
C80   C     C_3   0.327304 0.242482 0.694656 -0.428364
C81   C     C_3   0.842883 0.044280 0.721234 -0.250858
C82   C     C_3   0.808736 0.139931 0.720080 -0.289677
C83   C     C_3   0.908984 0.245756 0.701585 -0.434498
C84   C     C_1   0.113107 0.805275 0.135243 -0.007473
Cr1   Cr    Cr6+3 0.416010 0.828400 0.490230 1.015211
Cr2   Cr    Cr6+3 0.676380 0.087280 0.505260 1.017432
Cr3   Cr    Cr6+3 0.407590 0.084280 0.504540 1.022144
Cr4   Cr    Cr6+3 0.914090 0.832340 0.018020 1.024383
Cr5   Cr    Cr6+3 0.923310 0.576840 0.003860 1.041959
Cr6   Cr    Cr6+3 0.654200 0.573160 0.004700 1.035147
H1    H     H_    0.518713 0.667061 0.693299 0.139332
H2    H     H_    0.847060 0.163173 0.926649 0.159196
H3    H     H_    0.866129 0.257844 0.880663 0.176951
H4    H     H_    0.740003 0.212072 0.918509 0.139898
H5    H     H_    0.682117 0.103469 0.831272 0.157833
H6    H     H_    0.656474 0.010605 0.877885 0.169390
H7    H     H_    0.850009 0.009371 0.860321 0.150379
H8    H     H_    0.878952 0.107907 0.817673 0.147457
H9    H     H_    0.418227 0.467209 0.134445 0.167057
H10   H     H_    0.332394 0.450830 0.189015 0.148385
H11   H     H_    0.440698 0.593164 0.177196 0.156865
H12   H     H_    0.840685 0.341250 0.211350 0.113722
H13   H     H_    0.521360 0.534879 0.244525 0.165820
H14   H     H_    0.604575 0.546472 0.189983 0.179933
H15   H     H_    0.481570 0.330393 0.163559 0.153911
H16   H     H_    0.402163 0.314586 0.216708 0.127771
H17   H     H_    0.409896 0.530155 0.353345 0.152667
H18   H     H_    0.424421 0.457713 0.403394 0.156451
H19   H     H_    0.522201 0.610895 0.404532 0.156052
H20   H     H_    0.629270 0.503330 0.378393 0.169271
H21   H     H_    0.611433 0.570604 0.327734 0.164113
H22   H     H_    0.427240 0.379769 0.294378 0.138419
H23   H     H_    0.016514 0.358401 0.390789 0.157586
H24   H     H_    0.456185 0.312232 0.340520 0.153824
H25   H     H_    0.962085 0.528717 0.582735 0.154712
H26   H     H_    0.893146 0.424012 0.625381 0.159543
H27   H     H_    0.811462 0.485622 0.598455 0.147761
H28   H     H_    0.881802 0.576721 0.686997 0.194627
H29   H     H_    0.951148 0.680106 0.644276 0.168352
H30   H     H_    0.130202 0.641596 0.648760 0.151634
H31   H     H_    0.062157 0.552894 0.694290 0.173324
H32   H     H_    0.443228 0.239178 0.895159 0.180960
H33   H     H_    0.367063 0.125846 0.933296 0.154752
H34   H     H_    0.103370 0.402909 0.337102 0.149445
H35   H     H_    0.520691 0.172759 0.921549 0.137863
H36   H     H_    0.384862 0.984047 0.869382 0.174946
H37   H     H_    0.465992 0.095252 0.831451 0.155840
H38   H     H_    0.291938 0.124806 0.818315 0.146321
H39   H     H_    0.211747 0.033246 0.861263 0.145834
H40   H     H_    0.395217 0.300723 0.725558 0.187824
H41   H     H_    0.372857 0.232786 0.660854 0.173543
H42   H     H_    0.272369 0.282616 0.685632 0.156940
H43   H     H_    0.180031 0.068207 0.679055 0.168613
H44   H     H_    0.199879 0.135800 0.743171 0.161205
H45   H     H_    0.116601 0.509971 0.388829 0.158092
H46   H     H_    0.393382 0.125499 0.752987 0.142622
H47   H     H_    0.368834 0.056543 0.691180 0.154119
H48   H     H_    0.991720 0.280776 0.726483 0.174791
H49   H     H_    0.926519 0.222269 0.662655 0.153186
H50   H     H_    0.883347 0.314530 0.701854 0.171576
H51   H     H_    0.727071 0.106561 0.694614 0.176022
H52   H     H_    0.789702 0.167174 0.758050 0.172984
H53   H     H_    0.928247 0.076860 0.743865 0.126917
H54   H     H_    0.863281 0.020615 0.682867 0.150378
H55   H     H_    0.993360 0.507073 0.316827 0.170039
H56   H     H_    0.907756 0.463713 0.370450 0.168971
H57   H     H_    0.824723 0.252655 0.332043 0.158687
H58   H     H_    0.913269 0.297615 0.280194 0.136341
I1    I     I_    0.448546 0.566372 0.791210 -0.418632
I2    I     I_    0.008297 0.560819 0.794350 -0.434393
O1    O     O_R   0.294740 0.800910 0.434410 -0.513864
O2    O     O_R   0.635480 0.460400 0.052590 -0.515040
O3    O     O_R   0.662650 0.681410 0.060750 -0.497910
O4    O     O_R   0.526010 0.837250 0.440870 -0.500418
O5    O     O_R   0.814500 0.852290 0.965490 -0.517324
O6    O     O_R   0.013160 0.821640 0.966980 -0.503764
O7    O     O_R   0.038850 0.666600 0.954370 -0.484899
O8    O     O_R   0.813260 0.476410 0.948680 -0.486910
O9    O     O_R   0.630060 0.454430 0.944230 -0.506776
O10   O     O_R   0.657630 0.675880 0.960300 -0.478161
O11   O     O_3   0.830530 0.660780 0.008860 -0.249943
O12   O     O_R   0.664100 0.185180 0.560770 -0.497492
O13   O     O_R   0.704290 0.994500 0.446090 -0.505682
O14   O     O_R   0.662870 0.181760 0.460430 -0.494980
O15   O     O_R   0.498970 0.199080 0.457120 -0.508540
O16   O     O_R   0.309350 0.975930 0.448180 -0.492270
O17   O     O_R   0.296060 0.804610 0.542650 -0.510040
O18   O     O_R   0.527240 0.840670 0.541200 -0.493473
O19   O     O_R   0.705610 0.998200 0.554330 -0.512079
O20   O     O_R   0.500290 0.202770 0.565360 -0.512407
O21   O     O_R   0.310570 0.979360 0.548520 -0.496851
O22   O     O_3   0.499990 0.999990 0.500010 -0.244169
O23   O     O_R   0.819910 0.858260 0.073860 -0.505975
O24   O     O_R   0.018180 0.827180 0.067430 -0.496733
O25   O     O_R   0.044260 0.672570 0.062730 -0.507001
O26   O     O_R   0.818270 0.481940 0.049130 -0.495609

loop_
_geom_bond_atom_site_label_1
_geom_bond_atom_site_label_2
_ccdc_geom_bond_type
C23   C68   S    
C40   O20   A    
C80   H42   S    
C62   H6    S    
C27   C29   A    
Cr2   O19   S    
C69   H21   S    
C2    C84   T    
C61   H8    S    
C82   H52   S    
C49   O23   A    
C81   C82   S    
C36   C41   A    
C56   C78   T    
Cr5   O8    S    
C39   C41   A    
C57   H12   S    
C12   C23   A    
C45   C57   A    
C26   C27   A    
C73   H26   S    
C22   C32   T    
C71   H30   S    
Cr2   O22   S    
C5    C6    S    
Cr4   O6    S    
C49   O3    A    
C36   C37   A    
C77   H47   S    
C38   C42   A    
C29   C32   S    
C70   H17   S    
C52   O17   A    
C30   C31   S    
C12   C64   S    
C58   H58   S    
Cr3   O16   S    
C66   H10   S    
Cr4   O11   S    
Cr6   O9    S    
Cr4   O24   S    
C4    O15   A    
C46   C53   S    
C18   C19   T    
C68   H22   S    
C48   C78   S    
C37   C42   A    
C60   H34   S    
C24   C29   A    
C81   H54   S    
C74   H38   S    
C19   C20   S    
C28   C35   S    
C16   O16   A    
C68   C69   S    
C63   H2    S    
C4    O14   A    
Cr2   O12   S    
C77   H46   S    
C15   C51   S    
C9    C10   S    
C38   I1    S    
C34   C55   A    
C80   H41   S    
C62   H5    S    
C76   H35   S    
C76   H33   S    
C66   H11   S    
C60   H23   S    
C61   C62   S    
C82   H51   S    
C52   O21   A    
Cr5   O11   S    
C83   H50   S    
C71   H31   S    
C77   C79   S    
C50   O7    A    
C38   C39   A    
C79   H43   S    
Cr1   O22   S    
C73   H27   S    
C74   C75   S    
Cr6   O11   S    
Cr1   O17   S    
Cr4   O5    S    
C64   H15   S    
C80   H40   S    
C24   C25   A    
C45   C56   S    
Cr6   O2    S    
C50   O6    A    
C58   H57   S    
C8    C9    T    
C54   C67   T    
C3    C5    T    
C58   C59   S    
Cr3   O20   S    
C82   C83   S    
Cr4   O23   S    
C25   I2    S    
C66   H9    S    
C75   C76   S    
Cr1   O1    S    
C40   O12   A    
C62   C63   S    
C70   H19   S    
C69   H20   S    
C63   H4    S    
C81   H53   S    
C36   C81   S    
C23   C34   A    
Cr3   O21   S    
C31   C33   T    
C17   C18   S    
C47   C84   S    
Cr6   O3    S    
Cr5   O7    S    
C35   C44   T    
C60   H45   S    
C59   H55   S    
C7    C16   S    
C53   O5    A    
C55   C57   A    
C83   H49   S    
C41   C44   S    
C74   H39   S    
Cr2   O14   S    
C42   C43   S    
C65   H13   S    
C22   C52   S    
C25   C30   A    
C15   C17   T    
C79   H44   S    
C53   O10   A    
C4    C54   S    
Cr1   O18   S    
C39   H1    S    
C61   H7    S    
C72   C73   S    
C27   C77   S    
C34   C67   S    
C37   C61   S    
C64   H16   S    
C6    C7    T    
C12   C45   A    
C1    C14   S    
C63   H3    S    
C51   O8    A    
C73   H25   S    
C75   H36   S    
C76   H32   S    
C64   C65   S    
C48   O2    A    
C2    C3    S    
C33   C50   S    
C71   C72   S    
C70   H18   S    
C65   H14   S    
C11   C13   S    
Cr3   O15   S    
C21   C40   S    
Cr3   O22   S    
C72   H29   S    
C51   O9    A    
C26   C74   S    
C16   O1    A    
C75   H37   S    
Cr1   O4    S    
Cr6   O10   S    
C1    O4    A    
C43   C46   T    
C69   C70   S    
C47   O24   A    
C10   C11   T    
C28   O18   A    
C79   C80   S    
C59   H56   S    
C28   O19   A    
C59   C60   S    
C20   C21   T    
C1    O13   A    
C65   C66   S    
C55   C58   S    
C72   H28   S    
Cr5   O25   S    
Cr2   O13   S    
Cr5   O26   S    
C13   C14   T    
C8    C49   S    
C83   H48   S    
C47   O25   A    
C24   C71   S    
C68   H24   S    
C48   O26   A    
C26   C30   A    
