data_mof_unit_35841.cif
_audit_creation_date              2012-10-26T19:59:38-0400
_audit_creation_method            fapswitch 2.2
_symmetry_space_group_name_H-M    P1
_symmetry_Int_Tables_number       1
_space_group_crystal_system       triclinic
_cell_length_a                    10.841497
_cell_length_b                    8.683065
_cell_length_c                    7.488231
_cell_angle_alpha                 102.971431
_cell_angle_beta                  96.161095
_cell_angle_gamma                 93.592873
_cell_volume                      680.223250649

loop_
_atom_site_label
_atom_site_type_symbol
_atom_type_description
_atom_site_fract_x
_atom_site_fract_y
_atom_site_fract_z
_atom_type_partial_charge
C1    C     C_R   0.493224 0.199574 0.453232 0.544790
C2    C     C_R   0.502533 0.800258 0.546974 0.525055
C3    C     C_R   0.738512 0.499997 0.502889 0.537697
C4    C     C_R   0.161689 0.701290 0.817312 -0.094067
C5    C     C_R   0.121829 0.739914 0.990479 -0.119542
C6    C     C_R   0.004577 0.681222 0.014217 -0.141264
C7    C     C_R   0.922024 0.598740 0.861942 -0.117596
C8    C     C_R   0.957294 0.568160 0.680410 0.022304
C9    C     C_3   0.648340 0.778024 0.043023 0.052432
C10   C     C_3   0.730186 0.889071 0.204751 -0.403584
C11   C     C_R   0.084355 0.601206 0.665826 0.026077
C12   C     C_R   0.131417 0.529165 0.502089 -0.006848
C13   C     C_R   0.050489 0.457333 0.343067 -0.168912
C14   C     C_R   0.923428 0.451026 0.346866 -0.166904
C15   C     C_R   0.874538 0.503699 0.513170 -0.011018
C16   C     C_2   0.484784 0.031289 0.427822 -0.164704
C17   C     C_2   0.503883 0.968393 0.573527 -0.171083
C18   C     C_R   0.263649 0.511183 0.500881 0.537162
Cu1   Cu    Cu3+1 0.513920 0.517380 0.684380 0.954806
Cu2   Cu    Cu3+1 0.486080 0.482620 0.315620 1.002401
H1    H     H_    0.085389 0.404378 0.215133 0.145058
H2    H     H_    0.557204 0.829335 0.028922 0.142397
H3    H     H_    0.695567 0.773646 0.917965 0.161225
H4    H     H_    0.828202 0.861448 0.205525 0.129984
H5    H     H_    0.725389 0.013867 0.192792 0.105149
H6    H     H_    0.699527 0.877381 0.337840 0.175180
H7    H     H_    0.253789 0.749347 0.803830 0.136504
H8    H     H_    0.183719 0.810100 0.107530 0.116970
H9    H     H_    0.977755 0.699787 0.151657 0.127357
H10   H     H_    0.835693 0.552504 0.895423 0.181560
H11   H     H_    0.863244 0.399386 0.219462 0.147798
H12   H     H_    0.464046 0.958758 0.288018 0.118174
H13   H     H_    0.523051 0.040841 0.713852 0.128087
H14   H     H_    0.393912 0.386167 0.949671 0.197495
N1    N     N_2   0.465100 0.456430 0.038520 -0.188747
N2    N     N_2   0.534900 0.543570 0.961480 0.031507
O1    O     O_R   0.509050 0.286130 0.619770 -0.509749
O2    O     O_R   0.485540 0.256780 0.308360 -0.510322
O3    O     O_R   0.331410 0.514680 0.655740 -0.530184
O4    O     O_R   0.307900 0.485330 0.344330 -0.514887
O5    O     O_R   0.514460 0.743220 0.691640 -0.552290
O6    O     O_R   0.490950 0.713870 0.380230 -0.468712
O7    O     O_R   0.692100 0.514670 0.655670 -0.528160
O8    O     O_R   0.668590 0.485320 0.344260 -0.441877
O9    O     O_3   0.632999 0.625707 0.077247 -0.436718

loop_
_geom_bond_atom_site_label_1
_geom_bond_atom_site_label_2
_ccdc_geom_bond_type
Cu2   O6    S    
C11   C12   A    
C9    O9    S    
C6    C7    A    
C16   H12   S    
C5    H8    S    
Cu2   O2    S    
C9    C10   S    
N1    N2    D    
C1    O1    A    
C14   H11   S    
C18   O3    A    
C10   H6    S    
C13   H1    S    
N2    O9    S    
C7    H10   S    
C13   C14   A    
C2    C17   S    
C3    O7    A    
C16   C17   D    
C17   H13   S    
C1    O2    A    
C2    O6    A    
C8    C11   A    
Cu1   O3    S    
C10   H5    S    
Cu2   O8    S    
Cu1   O7    S    
C8    C15   A    
Cu1   N2    S    
C5    C6    A    
Cu2   O4    S    
C3    O8    A    
C2    O5    A    
Cu1   O5    S    
C7    C8    A    
C6    H9    S    
C3    C15   S    
C12   C13   A    
H14   N1    S    
C12   C18   S    
C1    C16   S    
C18   O4    A    
C9    H2    S    
C9    H3    S    
C4    H7    S    
Cu1   O1    S    
C10   H4    S    
C14   C15   A    
Cu2   N1    S    
Cu1   Cu2   S    
C4    C5    A    
C4    C11   A    
