data_mof_unit_21181.cif
_audit_creation_date              2012-12-10T18:14:39-0500
_audit_creation_method            fapswitch 2.2
_symmetry_space_group_name_H-M    P1
_symmetry_Int_Tables_number       1
_space_group_crystal_system       triclinic
_cell_length_a                    10.807693
_cell_length_b                    9.511016
_cell_length_c                    27.775691
_cell_angle_alpha                 90.051627
_cell_angle_beta                  91.795708
_cell_angle_gamma                 90.624274
_cell_volume                      2853.54903328

loop_
_atom_site_label
_atom_site_type_symbol
_atom_type_description
_atom_site_fract_x
_atom_site_fract_y
_atom_site_fract_z
_atom_type_partial_charge
C1    C     C_R   0.259422 0.499177 0.498399 0.887498
C2    C     C_R   0.399197 0.427370 0.279610 -0.047853
C3    C     C_R   0.485637 0.503471 0.253496 0.308305
C4    C     C_R   0.476786 0.485570 0.101576 -0.098078
C5    C     C_R   0.378815 0.547157 0.126115 -0.005173
C6    C     C_R   0.278072 0.602547 0.099875 -0.092142
C7    C     C_R   0.580264 0.432563 0.128010 -0.122818
C8    C     C_R   0.500895 0.502324 0.354718 -0.047242
C9    C     C_R   0.493384 0.498195 0.645310 -0.052925
C10   C     C_R   0.377547 0.549346 0.973074 0.083022
C11   C     C_R   0.553189 0.386916 0.975492 -0.082888
C12   C     C_R   0.501429 0.500386 0.407699 0.896164
C13   C     C_R   0.466955 0.469136 0.948901 0.039993
C14   C     C_R   0.296839 0.635071 0.945368 -0.177709
C15   C     C_R   0.302444 0.639719 0.895543 -0.103319
C16   C     C_R   0.388229 0.558731 0.871423 0.017530
C17   C     C_R   0.470010 0.471280 0.897889 -0.096901
C18   C     C_R   0.554960 0.387126 0.873367 -0.180929
C19   C     C_R   0.561153 0.402063 0.822750 0.617831
C20   C     C_R   0.393627 0.563341 0.821136 0.560909
C21   C     C_R   0.461202 0.368908 0.719260 -0.075077
C22   C     C_R   0.466990 0.371812 0.669278 -0.111627
C23   C     C_R   0.739445 0.500862 0.500579 0.906333
C24   C     C_R   0.513459 0.621796 0.672329 -0.186943
C25   C     C_R   0.509018 0.618326 0.722514 -0.067724
C26   C     C_R   0.482996 0.491736 0.746224 0.308950
C27   C     C_R   0.373222 0.543029 0.024098 0.061873
C28   C     C_R   0.471383 0.478196 0.050478 0.080503
C29   C     C_R   0.565233 0.407818 0.026053 0.019496
C30   C     C_R   0.275463 0.601424 0.049820 -0.183339
C31   C     C_R   0.681136 0.379852 0.102412 0.415002
C32   C     C_R   0.621310 0.284494 0.950570 0.290236
C33   C     C_R   0.626390 0.288157 0.900059 0.380488
C34   C     C_R   0.498555 0.499871 0.592411 0.865898
C35   C     C_R   0.673034 0.370333 0.052387 -0.157452
C36   C     C_3   0.067854 0.644325 0.480660 0.116744
C37   C     C_3   0.074161 0.480643 0.551113 0.162343
C38   C     C_3   0.928060 0.651720 0.489544 -0.388853
C39   C     C_3   0.932062 0.454743 0.549627 -0.361381
C40   C     C_3   0.059732 0.375966 0.465260 0.666010
C41   C     C_3   0.120175 0.497329 0.498151 -0.145462
C42   C     C_3   0.876569 0.502173 0.500015 -0.114226
C43   C     C_3   0.919082 0.401634 0.459793 -0.357025
C44   C     C_3   0.622898 0.085407 0.517883 0.337521
C45   C     C_3   0.624097 0.917591 0.516369 0.328174
C46   C     C_3   0.405892 0.081655 0.533180 -0.211292
C47   C     C_3   0.409689 0.916130 0.534890 -0.247533
C48   C     C_3   0.477816 0.082157 0.451548 -0.222574
C49   C     C_3   0.472526 0.914922 0.451964 -0.212057
C50   C     C_R   0.383770 0.552400 0.176555 0.564464
C51   C     C_R   0.579103 0.437464 0.178873 0.601413
C52   C     C_R   0.577979 0.582207 0.277933 -0.153280
C53   C     C_R   0.587841 0.582002 0.328370 -0.035311
C54   C     C_R   0.406221 0.428180 0.329725 -0.132926
Cu1   Cu    Cu3+1 0.499860 0.642410 0.500020 0.999416
Cu2   Cu    Cu3+1 0.499860 0.357590 0.500020 0.995434
H1    H     H_    0.335735 0.373104 0.349067 0.236189
H2    H     H_    0.644148 0.641204 0.257203 0.155473
H3    H     H_    0.533617 0.720669 0.654801 0.204968
H4    H     H_    0.526450 0.713789 0.743006 0.173132
H5    H     H_    0.755011 0.338802 0.034059 0.218138
H6    H     H_    0.113385 0.731058 0.501753 0.132890
H7    H     H_    0.093052 0.581272 0.570670 0.130274
H8    H     H_    0.912523 0.721563 0.520937 0.200044
H9    H     H_    0.889984 0.514581 0.579319 0.188754
H10   H     H_    0.326653 0.367221 0.261032 0.181625
H11   H     H_    0.878309 0.700445 0.458399 0.270226
H12   H     H_    0.910264 0.341573 0.555390 0.279290
H13   H     H_    0.895663 0.449436 0.424157 0.242701
H14   H     H_    0.867546 0.299797 0.460232 0.200217
H15   H     H_    0.695417 0.122042 0.493119 0.086610
H16   H     H_    0.693276 0.886842 0.489528 0.084936
H17   H     H_    0.419023 0.123708 0.570298 0.219295
H18   H     H_    0.432859 0.882763 0.572383 0.214859
H19   H     H_    0.557539 0.113139 0.429139 0.159248
H20   H     H_    0.545891 0.879274 0.427526 0.172322
H21   H     H_    0.311891 0.114307 0.521552 0.211188
H22   H     H_    0.315502 0.872718 0.527559 0.149462
H23   H     H_    0.200796 0.648409 0.117957 0.204129
H24   H     H_    0.449858 0.275121 0.649441 0.187455
H25   H     H_    0.440062 0.270828 0.737158 0.164305
H26   H     H_    0.239321 0.708320 0.875965 0.199741
H27   H     H_    0.230970 0.703926 0.961349 0.155515
H28   H     H_    0.193950 0.644118 0.032165 0.156778
N1    N     N_R   0.482451 0.497516 0.201769 -0.475291
N2    N     N_R   0.479788 0.486742 0.797932 -0.474672
N3    N     N_3   0.500250 0.143650 0.501060 -0.232981
N4    N     N_3   0.500250 0.856350 0.501060 -0.222902
O1    O     O_R   0.317570 0.620260 0.500030 -0.624380
O2    O     O_R   0.317570 0.379740 0.500030 -0.557404
O3    O     O_R   0.499900 0.620250 0.430280 -0.546428
O4    O     O_R   0.499900 0.379750 0.430280 -0.614374
O5    O     O_R   0.682190 0.620260 0.500010 -0.547463
O6    O     O_R   0.682190 0.379740 0.500010 -0.583645
O7    O     O_R   0.499860 0.620280 0.569750 -0.560406
O8    O     O_R   0.499860 0.379720 0.569750 -0.541204
O9    O     O_2   0.291142 0.612963 0.200296 -0.487602
O10   O     O_2   0.312801 0.643179 0.795521 -0.511543
O11   O     O_2   0.671940 0.380623 0.205608 -0.439679
O12   O     O_2   0.649065 0.335746 0.798263 -0.440868
Cl1   Cl    Cl    0.823441 0.328709 0.129666 -0.465045
Cl2   Cl    Cl    0.678617 0.132397 0.980536 -0.504934
Cl3   Cl    Cl    0.716574 0.158980 0.871758 -0.414084
Cl4   Cl    Cl    0.092706 0.683825 0.418525 -0.498611
Cl5   Cl    Cl    0.152418 0.351865 0.587906 -0.553293
Cl6   Cl    Cl    0.122769 0.365713 0.406403 -0.546548
Cl7   Cl    Cl    0.078816 0.202832 0.490277 -0.605703
Cl8   Cl    Cl    0.673427 0.156895 0.575407 -0.523086
Cl9   Cl    Cl    0.683418 0.841479 0.571721 -0.555462
C55   C     C_2   0.366656 0.142800 0.425201 0.482031
H29   H     H_    0.291442 0.184751 0.444499 0.167102
O13   O     O_2   0.357487 0.134610 0.381370 -0.513027
C56   C     C_2   0.351596 0.857370 0.430650 0.620309
H30   H     H_    0.266838 0.870929 0.449677 0.078716
O14   O     O_2   0.346764 0.806673 0.390198 -0.461779
C57   C     C_2   0.692489 0.662756 0.350920 0.403139
H31   H     H_    0.742707 0.739007 0.329742 0.115107
O15   O     O_2   0.727011 0.642634 0.392455 -0.583245

loop_
_geom_bond_atom_site_label_1
_geom_bond_atom_site_label_2
_ccdc_geom_bond_type
C10   C27   A    
C49   C56   S    
C21   C26   A    
C1    O2    A    
C3    N1    S    
C39   H12   S    
C12   O3    A    
C48   C55   S    
C48   H19   S    
Cu1   Cu2   S    
C19   N2    A    
C51   N1    A    
C46   N3    S    
C52   C53   A    
Cu2   O6    S    
C23   C42   S    
C31   Cl1   S    
C28   C29   A    
C34   O8    A    
C38   C42   S    
C5    C6    A    
C45   Cl9   S    
C9    C22   A    
C15   C16   A    
C57   H31   S    
C44   H15   S    
C18   C19   A    
Cu1   N4    S    
C55   H29   S    
Cu1   O3    S    
C50   N1    A    
C4    C28   A    
C40   C43   S    
C16   C17   A    
C20   N2    A    
C25   H4    S    
C8    C12   S    
C39   C42   S    
C44   N3    S    
C53   C57   S    
C16   C20   A    
Cu2   O2    S    
C43   H13   S    
C21   C22   A    
C45   H16   S    
C37   C41   S    
C39   H9    S    
C49   N4    S    
C36   C41   S    
C14   H27   S    
C4    C7    A    
C36   H6    S    
C37   H7    S    
C15   H26   S    
C38   H8    S    
C44   Cl8   S    
C51   O11   S    
C48   N3    S    
C7    C31   A    
C45   N4    S    
C24   C25   A    
Cu1   O7    S    
C2    C54   A    
C8    C54   A    
Cu2   N3    S    
C25   C26   A    
C23   O5    A    
C37   Cl5   S    
C26   N2    S    
C17   C18   A    
C49   H20   S    
C35   H5    S    
C34   O7    A    
C52   H2    S    
C40   Cl7   S    
C1    C41   S    
C48   C49   S    
C6    C30   A    
C21   H25   S    
C11   C32   A    
C43   H14   S    
C10   C14   A    
C9    C34   S    
C31   C35   A    
C5    C50   A    
C42   C43   S    
C44   C45   S    
C40   Cl6   S    
C56   H30   S    
Cu2   O8    S    
C46   C47   S    
C40   C41   S    
C50   O9    S    
C1    O1    A    
C33   Cl3   S    
C12   O4    A    
C47   H18   S    
C4    C5    A    
C2    H10   S    
C10   C13   A    
C8    C53   A    
C46   H21   S    
C3    C52   A    
C9    C24   A    
C29   C35   A    
C23   O6    A    
C13   C17   A    
C36   Cl4   S    
C47   N4    S    
C36   C38   S    
C2    C3    A    
C22   H24   S    
Cu1   O1    S    
C32   C33   A    
C19   O12   S    
C11   C13   A    
C6    H23   S    
C24   H3    S    
C57   O15   D    
C32   Cl2   S    
C30   H28   S    
C18   C33   A    
C55   O13   D    
C7    C51   A    
Cu2   O4    S    
C20   O10   S    
C38   H11   S    
C11   C29   A    
C37   C39   S    
C27   C28   A    
C14   C15   A    
C47   H22   S    
C56   O14   D    
Cu1   O5    S    
C46   H17   S    
C27   C30   A    
C54   H1    S    
