data_mof_unit_54839.cif
_audit_creation_date              2012-12-10T19:45:44-0500
_audit_creation_method            fapswitch 2.2
_symmetry_space_group_name_H-M    P1
_symmetry_Int_Tables_number       1
_space_group_crystal_system       triclinic
_cell_length_a                    10.852184
_cell_length_b                    14.65858
_cell_length_c                    14.92715
_cell_angle_alpha                 64.733443
_cell_angle_beta                  103.187051
_cell_angle_gamma                 103.04139
_cell_volume                      2068.46869637

loop_
_atom_site_label
_atom_site_type_symbol
_atom_type_description
_atom_site_fract_x
_atom_site_fract_y
_atom_site_fract_z
_atom_type_partial_charge
C1    C     C_R   0.475356 0.120065 0.312824 0.815979
C2    C     C_R   0.543809 0.788074 0.967360 0.461444
C3    C     C_R   0.392767 0.147462 0.134193 -0.314045
C4    C     C_R   0.553759 0.851443 0.866554 -0.305068
C5    C     C_R   0.466364 0.292818 0.179208 -0.257950
C6    C     C_R   0.483553 0.707175 0.820015 -0.254245
C7    C     C_R   0.432202 0.360102 0.079921 0.028370
C8    C     C_R   0.474843 0.640372 0.920054 0.025170
C9    C     C_R   0.382600 0.318744 0.006250 0.077439
C10   C     C_R   0.508568 0.681806 0.994380 0.074309
C11   C     C_R   0.450802 0.467600 0.051632 0.098199
C12   C     C_R   0.520076 0.879806 0.687052 0.819250
C13   C     C_R   0.437704 0.533179 0.948378 0.099528
C14   C     C_R   0.386576 0.489419 0.877102 -0.240082
C15   C     C_R   0.479874 0.511499 0.123270 -0.242093
C16   C     C_R   0.263027 0.999042 0.502796 0.788039
C17   C     C_R   0.737261 0.000632 0.498022 0.789380
C18   C     C_R   0.357760 0.384528 0.905837 -0.191947
C19   C     C_R   0.506510 0.616295 0.094954 -0.179872
C20   C     C_R   0.708887 0.280617 0.671708 -0.113542
C21   C     C_R   0.292512 0.720327 0.327124 -0.123248
C22   C     C_R   0.676706 0.200402 0.640164 0.021562
C23   C     C_R   0.870898 0.000837 0.496081 -0.081872
C24   C     C_R   0.324394 0.800232 0.359099 0.017661
C25   C     C_R   0.521344 0.286341 0.508615 0.029231
C26   C     C_R   0.477590 0.713160 0.491921 0.022593
C27   C     C_R   0.549369 0.371475 0.535436 -0.031672
C28   C     C_R   0.449945 0.628318 0.464636 -0.035472
C29   C     C_R   0.644468 0.366813 0.619750 0.095640
C30   C     C_R   0.355787 0.633523 0.379664 0.096410
C31   C     C_R   0.484742 0.459272 0.483018 0.081680
C32   C     C_R   0.514548 0.540533 0.516980 0.075967
C33   C     C_R   0.608273 0.531527 0.601988 -0.244208
C34   C     C_R   0.129911 0.999088 0.505327 -0.080959
C35   C     C_R   0.391542 0.468561 0.397650 -0.250588
C36   C     C_R   0.671981 0.447334 0.651407 -0.195694
C37   C     C_R   0.328532 0.553166 0.347758 -0.202724
C38   C     C_R   0.365136 0.111542 0.740504 -0.129946
C39   C     C_R   0.627740 0.902255 0.260863 -0.104999
C40   C     C_R   0.275385 0.056624 0.691637 -0.096305
C41   C     C_R   0.725471 0.953807 0.307818 -0.087504
C42   C     C_R   0.184437 0.106142 0.611472 0.122436
C43   C     C_R   0.816207 0.900198 0.384871 0.112673
C44   C     C_R   0.180195 0.209776 0.585538 -0.168674
C45   C     C_R   0.908115 0.950662 0.445936 0.005929
C46   C     C_R   0.815406 0.796813 0.406442 -0.164786
C47   C     C_R   0.267045 0.263217 0.637458 -0.154537
C48   C     C_R   0.721995 0.747194 0.354237 -0.130654
C49   C     C_R   0.360091 0.214289 0.714472 -0.089158
C50   C     C_R   0.626989 0.799554 0.282501 -0.076240
C51   C     C_R   0.963501 0.050277 0.549038 -0.239190
C52   C     C_R   0.037229 0.949555 0.452513 -0.237352
C53   C     C_3   0.187067 0.117043 0.977429 0.035561
C54   C     C_3   0.129358 0.083962 0.890612 -0.297405
C55   C     C_3   0.997491 0.020365 0.905078 -0.908536
C56   C     C_R   0.092959 0.050609 0.554469 0.005028
C57   C     C_3   0.533921 0.919257 0.014700 0.054718
C58   C     C_3   0.647990 0.005053 0.005090 -0.355825
C59   C     C_3   0.608730 0.103694 0.993137 -0.871604
C60   C     C_1   0.806853 0.271772 0.757654 0.186479
C61   C     C_1   0.197214 0.730957 0.239354 0.181919
C62   C     C_R   0.446550 0.187525 0.206731 -0.105484
C63   C     C_R   0.521045 0.811787 0.793109 -0.112504
C64   C     C_R   0.358331 0.212113 0.034151 0.431652
Cu1   Cu    Cu3+1 0.466270 0.918260 0.475690 0.935953
Cu2   Cu    Cu3+1 0.533730 0.081740 0.524310 0.938352
H1    H     H_    0.428965 0.256238 0.753282 0.147122
H2    H     H_    0.724013 0.133314 0.679793 0.129758
H3    H     H_    0.635283 0.588378 0.633230 0.137359
H4    H     H_    0.364907 0.411807 0.366270 0.133772
H5    H     H_    0.439244 0.074616 0.797896 0.120307
H6    H     H_    0.551310 0.941998 0.209577 0.115538
H7    H     H_    0.279596 0.976608 0.713773 0.109936
H8    H     H_    0.725087 0.033721 0.289295 0.106717
H9    H     H_    0.110487 0.249415 0.524427 0.137126
H10   H     H_    0.885027 0.754162 0.465146 0.134684
H11   H     H_    0.263581 0.343008 0.616882 0.145646
H12   H     H_    0.551489 0.760075 0.245195 0.145763
H13   H     H_    0.720738 0.667359 0.371692 0.143756
H14   H     H_    0.935001 0.087533 0.588591 0.157641
H15   H     H_    0.065431 0.912389 0.412746 0.158603
H16   H     H_    0.317958 0.355138 0.848216 0.182543
H17   H     H_    0.528089 0.645544 0.153150 0.180148
H18   H     H_    0.465290 0.679260 0.761556 0.161272
H19   H     H_    0.512839 0.320924 0.236279 0.161848
H20   H     H_    0.586896 0.932087 0.844815 0.155094
H21   H     H_    0.378434 0.065886 0.154852 0.151065
H22   H     H_    0.123380 0.165459 0.980351 0.161664
H23   H     H_    0.363373 0.534328 0.798235 0.144877
H24   H     H_    0.191687 0.047385 0.048178 0.144679
H25   H     H_    0.120822 0.152593 0.819361 0.235496
H26   H     H_    0.193551 0.037706 0.885375 0.224567
H27   H     H_    0.004801 0.948962 0.973573 0.270622
H28   H     H_    0.957232 0.000084 0.839454 0.251573
H29   H     H_    0.931446 0.064051 0.911976 0.264850
H30   H     H_    0.482359 0.910091 0.074545 0.155636
H31   H     H_    0.460713 0.939597 0.946484 0.114811
H32   H     H_    0.721131 0.980755 0.072894 0.243515
H33   H     H_    0.693264 0.020460 0.939542 0.207521
H34   H     H_    0.478829 0.466715 0.202222 0.141528
H35   H     H_    0.534238 0.129562 0.926983 0.271642
H36   H     H_    0.693229 0.164228 0.982854 0.262154
H37   H     H_    0.571691 0.092478 0.060932 0.257909
H38   H     H_    0.743039 0.445670 0.715938 0.162413
H39   H     H_    0.258254 0.555297 0.282699 0.164129
H40   H     H_    0.550150 0.717672 0.552884 0.129007
H41   H     H_    0.447786 0.281314 0.448358 0.127548
H42   H     H_    0.278081 0.867792 0.318986 0.127904
N1    N     N_R   0.584450 0.204570 0.560790 -0.184198
N2    N     N_R   0.415550 0.795430 0.439210 -0.183266
N3    N     N_1   0.885280 0.264976 0.826372 -0.314643
N4    N     N_1   0.121019 0.739688 0.169016 -0.288653
O1    O     O_R   0.455540 0.022090 0.338120 -0.596237
O2    O     O_3   0.578858 0.825821 0.042252 -0.630657
O3    O     O_R   0.544460 0.977910 0.661880 -0.594434
O4    O     O_R   0.512510 0.160150 0.379180 -0.590527
O5    O     O_R   0.487490 0.839850 0.620820 -0.592143
O6    O     O_R   0.291160 0.930970 0.479480 -0.587423
O7    O     O_R   0.708840 0.069030 0.520520 -0.586954
O8    O     O_R   0.348130 0.069020 0.520540 -0.574422
O9    O     O_R   0.651870 0.930980 0.479460 -0.572739
O10   O     O_3   0.310723 0.172076 0.961906 -0.636009

loop_
_geom_bond_atom_site_label_1
_geom_bond_atom_site_label_2
_ccdc_geom_bond_type
C34   C56   A    
C8    C13   A    
C23   C45   A    
C27   C29   A    
C9    C64   A    
C2    O2    S    
C14   C18   A    
C58   H32   S    
C15   H34   S    
C55   H27   S    
C1    C62   S    
C26   H40   S    
C46   H10   S    
C39   C41   A    
C38   C49   A    
C53   C54   S    
C15   C19   A    
C4    C63   A    
C37   H39   S    
Cu2   O4    S    
C48   H13   S    
C35   C37   A    
C53   O10   S    
C16   O8    A    
C4    H20   S    
C33   C36   A    
C40   H7    S    
C51   C56   A    
C51   H14   S    
C16   C34   S    
C41   H8    S    
C38   H5    S    
C11   C15   A    
C35   H4    S    
C57   H30   S    
C39   H6    S    
C24   H42   S    
C1    O4    A    
Cu1   O9    S    
C20   C60   S    
C26   N2    A    
C21   C61   S    
C44   C47   A    
C33   H3    S    
C12   O3    A    
C5    H19   S    
C40   C42   A    
Cu2   O8    S    
C13   C14   A    
C41   C43   A    
C42   C44   A    
C55   H28   S    
C19   H17   S    
C50   H12   S    
C47   C49   A    
C26   C28   A    
C7    C11   A    
C20   C29   A    
C46   C48   A    
C6    H18   S    
Cu2   O3    S    
C27   C31   A    
C59   H35   S    
C28   C32   A    
C24   N2    A    
C55   H29   S    
C5    C7    A    
C12   C63   S    
C6    C8    A    
C45   C52   A    
C58   C59   S    
C3    C64   A    
C3    H21   S    
C30   C37   A    
C6    C63   A    
C44   H9    S    
C2    C4    A    
C14   H23   S    
C54   H26   S    
C16   O6    A    
C23   C51   A    
C31   C32   A    
C29   C36   A    
C10   C19   A    
Cu1   O6    S    
C22   N1    A    
C57   H31   S    
C17   C23   S    
C42   C56   S    
C43   C45   S    
C22   H2    S    
C17   O9    A    
C20   C22   A    
Cu2   O7    S    
C31   C35   A    
C47   H11   S    
C2    C10   A    
C25   H41   S    
C3    C62   A    
C7    C9    A    
C54   C55   S    
C49   H1    S    
C59   H36   S    
Cu1   O1    S    
C58   H33   S    
C57   O2    S    
C25   N1    A    
C25   C27   A    
C21   C30   A    
C34   C52   A    
C36   H38   S    
C59   H37   S    
C32   C33   A    
C28   C30   A    
C54   H25   S    
C60   N3    T    
C38   C40   A    
C11   C13   A    
C57   C58   S    
C64   O10   S    
C48   C50   A    
C18   H16   S    
C5    C62   A    
C53   H22   S    
C1    O1    A    
Cu2   N1    S    
C52   H15   S    
C43   C46   A    
Cu1   N2    S    
C17   O7    A    
C12   O5    A    
C9    C18   A    
C39   C50   A    
C8    C10   A    
Cu1   Cu2   S    
C21   C24   A    
C53   H24   S    
Cu1   O5    S    
C61   N4    T    
