data_mof_unit_12257.cif
_audit_creation_date              2012-12-11T15:53:51-0500
_audit_creation_method            fapswitch 2.2
_symmetry_space_group_name_H-M    P1
_symmetry_Int_Tables_number       1
_space_group_crystal_system       triclinic
_cell_length_a                    10.767176
_cell_length_b                    10.737917
_cell_length_c                    17.077528
_cell_angle_alpha                 80.549983
_cell_angle_beta                  99.762973
_cell_angle_gamma                 119.084588
_cell_volume                      1692.81227568

loop_
_atom_site_label
_atom_site_type_symbol
_atom_type_description
_atom_site_fract_x
_atom_site_fract_y
_atom_site_fract_z
_atom_type_partial_charge
C1    C     C_R   0.361837 0.230594 0.627656 0.546479
C2    C     C_R   0.512489 0.714476 0.734937 -0.153092
C3    C     C_R   0.489976 0.730192 0.810387 -0.137049
C4    C     C_3   0.094545 0.491165 0.769610 -0.251217
C5    C     C_3   0.119271 0.472946 0.688250 -0.251895
C6    C     C_R   0.398132 0.619843 0.685564 0.008177
C7    C     C_1   0.848638 0.668929 0.702923 -0.055059
C8    C     C_1   0.895327 0.703252 0.769588 -0.057163
C9    C     C_1   0.345609 0.188511 0.709976 -0.036031
C10   C     C_1   0.320306 0.159976 0.778170 -0.033910
C11   C     C_1   0.332030 0.669056 0.278708 -0.011380
C12   C     C_R   0.413329 0.620728 0.601854 0.565183
C13   C     C_1   0.319938 0.678883 0.207952 -0.008447
C14   C     C_R   0.822715 0.668584 0.154940 -0.012070
C15   C     C_R   0.775385 0.536616 0.200117 -0.052188
C16   C     C_R   0.762277 0.525470 0.279419 -0.017258
C17   C     C_R   0.830894 0.777023 0.271326 0.079405
C18   C     C_R   0.841007 0.787416 0.189628 -0.135647
C19   C     C_3   0.829154 0.429019 0.212971 -0.161863
C20   C     C_3   0.806833 0.410607 0.300318 0.047776
C21   C     C_R   0.800499 0.646242 0.317649 0.037876
C22   C     C_R   0.321231 0.147180 0.165541 0.018387
C23   C     C_R   0.780425 0.620844 0.626326 0.541613
C24   C     C_R   0.225877 0.180080 0.189698 -0.048757
C25   C     C_R   0.225818 0.189603 0.268057 0.040196
C26   C     C_R   0.411977 0.121391 0.304725 -0.140839
C27   C     C_R   0.412775 0.111729 0.224399 0.192732
C28   C     C_3   0.204394 0.307128 0.160680 -0.223609
C29   C     C_3   0.205813 0.319707 0.247383 0.135629
C30   C     C_R   0.322483 0.167096 0.326211 -0.045126
C31   C     C_R   0.946126 0.724597 0.851725 0.551574
C32   C     C_R   0.315370 0.706024 0.898175 0.531539
C33   C     C_R   0.283733 0.113590 0.857638 0.541262
C34   C     C_R   0.350334 0.225887 0.400476 0.547053
C35   C     C_R   0.887100 0.691433 0.083212 0.560509
C36   C     C_R   0.311384 0.703127 0.124661 0.553790
C37   C     C_R   0.286044 0.105466 0.085763 0.568138
C38   C     C_R   0.363727 0.655693 0.361535 0.554410
C39   C     C_R   0.768897 0.620984 0.398918 0.566511
C40   C     C_R   0.352303 0.652254 0.836816 0.012740
C41   C     C_R   0.249476 0.538304 0.794210 0.013534
C42   C     C_R   0.272299 0.522077 0.719988 0.023398
Cr1   Cr    Cr6+3 0.608440 0.389080 0.519680 0.999883
Cr2   Cr    Cr6+3 0.288640 0.400090 0.490760 1.013841
Cr3   Cr    Cr6+3 0.602940 0.710800 0.489510 1.020602
Cr4   Cr    Cr6+3 0.052530 0.947560 0.964210 1.019527
Cr5   Cr    Cr6+3 0.059970 0.626800 0.992920 1.021368
Cr6   Cr    Cr6+3 0.373320 0.938440 0.995370 1.071139
H1    H     H_    0.615616 0.783961 0.713013 0.141056
H2    H     H_    0.757130 0.333250 0.180846 0.194961
H3    H     H_    0.718083 0.304646 0.318853 0.167872
H4    H     H_    0.487109 0.102512 0.349280 0.152915
H5    H     H_    0.099411 0.277806 0.124691 0.187168
H6    H     H_    0.297806 0.396862 0.132721 0.096977
H7    H     H_    0.299270 0.415554 0.270728 0.129954
H8    H     H_    0.576322 0.813749 0.843845 0.150264
H9    H     H_    0.066729 0.578356 0.768085 0.145387
H10   H     H_    0.024960 0.388331 0.802756 0.152442
H11   H     H_    0.064435 0.359426 0.674592 0.147688
H12   H     H_    0.104426 0.549074 0.639846 0.150983
H13   H     H_    0.877020 0.891480 0.155882 0.154924
H14   H     H_    0.943458 0.478432 0.202601 0.217895
O1    O     O_R   0.754020 0.497590 0.609930 -0.510214
O2    O     O_R   0.295080 0.533620 0.397890 -0.482991
O3    O     O_R   0.485280 0.746620 0.388440 -0.515465
O4    O     O_R   0.720550 0.696220 0.420010 -0.469611
O5    O     O_3   0.500010 0.499990 0.499980 -0.282465
O6    O     O_R   0.163320 0.092900 0.874450 -0.516463
O7    O     O_R   0.934650 0.822080 0.882840 -0.491190
O8    O     O_R   0.915520 0.604140 0.893670 -0.504074
O9    O     O_R   0.191760 0.638110 0.923230 -0.516841
O10   O     O_R   0.406180 0.826930 0.920660 -0.520365
O11   O     O_R   0.358620 0.062870 0.901950 -0.497267
O12   O     O_R   0.481420 0.271390 0.600630 -0.490887
O13   O     O_R   0.163910 0.085460 0.050210 -0.526753
O14   O     O_R   0.935200 0.815170 0.045770 -0.503364
O15   O     O_R   0.916120 0.596690 0.069430 -0.516144
O16   O     O_R   0.192310 0.631200 0.086170 -0.507821
O17   O     O_R   0.406770 0.819480 0.096420 -0.458458
O18   O     O_R   0.359170 0.055960 0.064880 -0.437725
O19   O     O_3   0.161940 0.837600 0.984160 -0.281287
O20   O     O_R   0.263810 0.254550 0.589590 -0.526413
O21   O     O_R   0.300820 0.531200 0.560890 -0.518721
O22   O     O_R   0.491480 0.744020 0.564270 -0.512868
O23   O     O_R   0.726290 0.693800 0.583010 -0.515551
O24   O     O_R   0.747830 0.500190 0.434090 -0.533493
O25   O     O_R   0.475680 0.273800 0.437630 -0.511429
O26   O     O_R   0.257620 0.257160 0.413750 -0.474589
N1    N     N_2   0.939919 0.452327 0.352583 -0.459278
H15   H     H_    0.004857 0.559933 0.358692 0.254094
C43   C     C_3   0.936513 0.356447 0.423611 -0.222531
H16   H     H_    0.046841 0.386636 0.451386 0.187983
H17   H     H_    0.886561 0.244303 0.408364 0.164340
H18   H     H_    0.876168 0.362366 0.468023 0.139394
Cl1   Cl    Cl    0.535206 0.062392 0.202468 -0.689113
Cl2   Cl    Cl    0.037912 0.284119 0.271524 -0.683708
N2    N     N_2   0.862009 0.899826 0.307882 -0.510672
H19   H     H_    0.967257 0.976992 0.307590 0.286070
C44   C     C_3   0.763443 0.956511 0.280807 -0.184678
H20   H     H_    0.785118 0.015317 0.220630 0.199247
H21   H     H_    0.775779 0.030687 0.323230 0.196202
H22   H     H_    0.651699 0.868772 0.277897 0.202942

loop_
_geom_bond_atom_site_label_1
_geom_bond_atom_site_label_2
_ccdc_geom_bond_type
C5    C42   S    
C16   C21   A    
C41   C42   A    
C14   C18   A    
C27   Cl1   S    
C19   C20   S    
Cr2   O21   S    
Cr4   O14   S    
N2    H19   S    
Cr1   O1    S    
C7    C8    T    
C32   O10   A    
Cr2   O2    S    
C15   C19   S    
C26   C27   A    
C1    O12   A    
Cr6   O17   S    
C28   C29   S    
C20   H3    S    
Cr2   O20   S    
C6    C12   S    
C4    C41   S    
C19   H14   S    
C15   C16   A    
Cr6   O19   S    
C12   O22   A    
Cr4   O7    S    
C31   O8    A    
C4    H9    S    
Cr3   O5    S    
N1    C43   S    
C9    C10   T    
Cr1   O12   S    
C23   O1    A    
C37   O13   A    
Cr1   O24   S    
C2    C6    A    
Cr6   O10   S    
Cr4   O13   S    
N2    C44   S    
C32   O9    A    
C38   O2    A    
C25   C29   S    
C37   O18   A    
C35   O14   A    
C30   C34   S    
C1    C9    S    
C24   C25   A    
C13   C36   S    
C14   C35   S    
C5    H11   S    
Cr5   O19   S    
C29   H7    S    
C1    O20   A    
C22   C37   S    
C35   O15   A    
C17   C21   A    
C12   O21   A    
C11   C38   S    
Cr3   O23   S    
Cr5   O8    S    
Cr4   O6    S    
C2    H1    S    
C26   H4    S    
C43   H17   S    
Cr4   O19   S    
C3    H8    S    
C44   H20   S    
C21   C39   S    
C38   O3    A    
C16   C20   S    
C17   C18   A    
C34   O26   A    
Cr5   O9    S    
C33   O11   A    
C40   C41   A    
C44   H21   S    
C3    C40   A    
C26   C30   A    
C22   C27   A    
Cr3   O3    S    
C39   O4    A    
C22   C24   A    
Cr3   O22   S    
Cr5   O15   S    
C43   H16   S    
C25   C30   A    
C28   H6    S    
C5    H12   S    
C8    C31   S    
Cr6   O11   S    
C24   C28   S    
C4    C5    S    
C36   O17   A    
C29   Cl2   S    
C28   H5    S    
C18   H13   S    
C20   N1    S    
C39   O24   A    
Cr1   O25   S    
Cr6   O18   S    
C2    C3    A    
C23   O23   A    
C36   O16   A    
C43   H18   S    
C11   C13   T    
C19   H2    S    
C7    C23   S    
C10   C33   S    
C34   O25   A    
C32   C40   S    
C31   O7    A    
C44   H22   S    
Cr1   O5    S    
C6    C42   A    
C4    H10   S    
Cr3   O4    S    
C14   C15   A    
Cr2   O5    S    
Cr5   O16   S    
N1    H15   S    
Cr2   O26   S    
C17   N2    S    
C33   O6    A    
