data_mof_unit_30000.cif
_audit_creation_date              2012-12-10T17:35:38-0500
_audit_creation_method            fapswitch 2.2
_symmetry_space_group_name_H-M    P1
_symmetry_Int_Tables_number       1
_space_group_crystal_system       triclinic
_cell_length_a                    10.712375
_cell_length_b                    12.396226
_cell_length_c                    13.198492
_cell_angle_alpha                 117.115529
_cell_angle_beta                  76.283462
_cell_angle_gamma                 101.133985
_cell_volume                      1508.19485984

loop_
_atom_site_label
_atom_site_type_symbol
_atom_type_description
_atom_site_fract_x
_atom_site_fract_y
_atom_site_fract_z
_atom_type_partial_charge
C1    C     C_R   0.516718 0.854738 0.285691 0.792275
C2    C     C_3   0.122011 0.998934 0.499238 0.111574
C3    C     C_3   0.072949 0.123312 0.587922 -0.366375
C4    C     C_3   0.039501 0.897288 0.530987 -0.376756
C5    C     C_R   0.308024 0.286005 0.020346 -0.182251
C6    C     C_R   0.450439 0.228135 0.835786 -0.046525
C7    C     C_R   0.624063 0.805555 0.080135 0.263350
C8    C     C_R   0.649362 0.722414 0.965247 -0.156570
C9    C     C_R   0.593898 0.603459 0.929365 -0.230520
C10   C     C_R   0.507386 0.564405 0.007819 0.087716
C11   C     C_R   0.466542 0.652594 0.121295 0.043325
C12   C     C_R   0.739597 0.999450 0.499746 0.756188
C13   C     C_R   0.458508 0.440563 0.976125 0.100284
C14   C     C_R   0.358529 0.408178 0.052302 0.158461
C15   C     C_R   0.308110 0.498400 0.157965 -0.235388
C16   C     C_R   0.360222 0.618895 0.191577 -0.177179
C17   C     C_R   0.507113 0.347532 0.870742 -0.201283
C18   C     C_R   0.352745 0.196372 0.911737 -0.183686
C19   C     C_R   0.532442 0.772043 0.160712 -0.171965
C20   C     C_R   0.713303 0.348277 0.332054 -0.292659
C21   C     C_R   0.309853 0.751927 0.629482 0.079024
C22   C     C_R   0.249015 0.642722 0.630133 -0.258859
C23   C     C_R   0.479891 0.144908 0.713631 0.814280
C24   C     C_R   0.312707 0.537763 0.567814 -0.131192
C25   C     C_R   0.442983 0.542714 0.514270 0.021602
C26   C     C_R   0.492756 0.651592 0.501130 0.284984
C27   C     C_R   0.521007 0.441556 0.464085 -0.074657
C28   C     C_R   0.635384 0.444784 0.384893 0.134713
C29   C     C_R   0.673584 0.546086 0.361112 -0.267109
C30   C     C_R   0.605188 0.648016 0.419480 -0.193700
C31   C     C_R   0.496908 0.341402 0.494339 0.377139
C32   C     C_R   0.680799 0.249565 0.359544 0.062049
C33   C     C_R   0.260186 0.000143 0.500272 0.769554
C34   C     C_3   0.959198 0.973711 0.375411 0.018681
C35   C     C_3   0.103767 0.974275 0.377231 -0.377717
C36   C     C_3   0.929208 0.122528 0.587025 -0.450587
C37   C     C_3   0.896315 0.898531 0.533486 -0.357752
C38   C     C_3   0.877847 0.997233 0.497809 0.149099
Cu1   Cu    Cu3+1 0.529690 0.098270 0.475420 0.988482
Cu2   Cu    Cu3+1 0.470310 0.901730 0.524580 0.919859
H1    H     H_    0.950617 0.050167 0.355811 0.167378
H2    H     H_    0.053029 0.910769 0.617244 0.168979
H3    H     H_    0.872582 0.142109 0.674948 0.171102
H4    H     H_    0.086152 0.142952 0.676064 0.178397
H5    H     H_    0.307210 0.103925 0.885281 0.149338
H6    H     H_    0.228213 0.475767 0.215165 0.139946
H7    H     H_    0.230994 0.260591 0.077731 0.138122
H8    H     H_    0.588053 0.365314 0.812211 0.143785
H9    H     H_    0.618954 0.544990 0.838731 0.159972
H10   H     H_    0.717002 0.748894 0.903273 0.171673
H11   H     H_    0.313608 0.685330 0.272179 0.163505
H12   H     H_    0.743035 0.177148 0.321063 0.178435
H13   H     H_    0.759800 0.548226 0.299052 0.149374
H14   H     H_    0.800617 0.350202 0.271084 0.152422
H15   H     H_    0.258260 0.832357 0.674002 0.124664
H16   H     H_    0.255668 0.452671 0.556637 0.176443
H17   H     H_    0.150507 0.638228 0.674335 0.148802
H18   H     H_    0.641326 0.720506 0.394825 0.203452
H19   H     H_    0.141704 0.886181 0.312883 0.163101
H20   H     H_    0.161649 0.046060 0.352438 0.161241
H21   H     H_    0.917845 0.196744 0.565519 0.176803
H22   H     H_    0.129328 0.197548 0.566298 0.208060
H23   H     H_    0.842464 0.917994 0.622309 0.177547
H24   H     H_    0.857057 0.806596 0.475418 0.173613
H25   H     H_    0.070677 0.806389 0.466658 0.171021
N1    N     N_R   0.574690 0.246280 0.438200 -0.195359
N2    N     N_R   0.426100 0.754320 0.561190 -0.208256
O1    O     O_R   0.537340 0.972510 0.318130 -0.525489
O2    O     O_R   0.487200 0.806530 0.359650 -0.603113
O3    O     O_R   0.707380 0.082980 0.479220 -0.590794
O4    O     O_R   0.657240 0.917000 0.520740 -0.605503
O5    O     O_R   0.512800 0.193470 0.640350 -0.531441
O6    O     O_R   0.462660 0.027490 0.681870 -0.588755
O7    O     O_R   0.342760 0.083000 0.479260 -0.547701
O8    O     O_R   0.292620 0.917020 0.520780 -0.609645
Br1   Br    Br    0.726757 0.959384 0.117630 -0.596460
C39   C     C_3   0.911463 0.855795 0.277082 -0.864148
H26   H     H_    0.967564 0.849785 0.192597 0.257396
H27   H     H_    0.924041 0.773781 0.285758 0.228223
H28   H     H_    0.808193 0.855183 0.275642 0.238598
Br2   Br    Br    0.374745 0.351688 0.631505 -0.574635

loop_
_geom_bond_atom_site_label_1
_geom_bond_atom_site_label_2
_ccdc_geom_bond_type
C2    C35   S    
C31   N1    A    
Cu2   O4    S    
Cu1   O1    S    
C17   H8    S    
C22   H17   S    
C7    C8    A    
C39   H26   S    
C5    H7    S    
C11   C19   A    
C37   C38   S    
C29   H13   S    
C26   N2    A    
C28   C29   A    
C34   C39   S    
C4    H25   S    
C3    H22   S    
C15   C16   A    
C1    O1    A    
Cu2   O6    S    
C35   H19   S    
C34   C35   S    
Cu1   O7    S    
C32   H12   S    
C33   O8    A    
C8    C9    A    
Cu2   N2    S    
Cu1   O5    S    
C16   H11   S    
C9    C10   A    
C13   C14   A    
C21   N2    A    
C34   H1    S    
C23   O6    A    
C37   H23   S    
C39   H27   S    
C6    C18   A    
C3    H4    S    
C1    C19   S    
Cu2   O2    S    
C27   C31   A    
C9    H9    S    
C24   C25   A    
C20   H14   S    
Cu1   Cu2   S    
C21   H15   S    
C5    C18   A    
C20   C28   A    
C25   C26   A    
C1    O2    A    
C35   H20   S    
C2    C4    S    
C29   C30   A    
C11   C16   A    
C5    C14   A    
C2    C33   S    
C12   O4    A    
C26   C30   A    
C7    C19   A    
Cu1   N1    S    
C22   C24   A    
C24   H16   S    
C36   H21   S    
C18   H5    S    
C8    H10   S    
C37   H24   S    
C32   N1    A    
C20   C32   A    
C39   H28   S    
C6    C17   A    
C12   O3    A    
C34   C38   S    
C23   O5    A    
C10   C13   A    
C7    Br1   S    
C25   C27   A    
C31   Br2   S    
Cu2   O8    S    
C13   C17   A    
C36   C38   S    
C2    C3    S    
C4    H2    S    
C3    C36   S    
C6    C23   S    
C30   H18   S    
Cu1   O3    S    
C12   C38   S    
C10   C11   A    
C33   O7    A    
C4    C37   S    
C27   C28   A    
C14   C15   A    
C36   H3    S    
C15   H6    S    
C21   C22   A    
