data_mof_unit_9371.cif
_audit_creation_date              2012-12-10T17:35:36-0500
_audit_creation_method            fapswitch 2.2
_symmetry_space_group_name_H-M    P1
_symmetry_Int_Tables_number       1
_space_group_crystal_system       triclinic
_cell_length_a                    10.798718
_cell_length_b                    12.31253
_cell_length_c                    13.062731
_cell_angle_alpha                 116.673109
_cell_angle_beta                  77.498479
_cell_angle_gamma                 100.942347
_cell_volume                      1506.62046733

loop_
_atom_site_label
_atom_site_type_symbol
_atom_type_description
_atom_site_fract_x
_atom_site_fract_y
_atom_site_fract_z
_atom_type_partial_charge
C1    C     C_R   0.508897 0.855010 0.285565 0.863144
C2    C     C_3   0.123305 0.002790 0.499779 -0.272256
C3    C     C_3   0.050692 0.048802 0.627445 0.120862
C4    C     C_3   0.066252 0.870682 0.427284 -0.402948
C5    C     C_R   0.318968 0.274065 0.023483 -0.051495
C6    C     C_R   0.452236 0.228776 0.837259 -0.115258
C7    C     C_R   0.556391 0.815193 0.073072 0.347924
C8    C     C_R   0.552840 0.734845 0.956322 0.396073
C9    C     C_R   0.510578 0.612293 0.925567 -0.218867
C10   C     C_R   0.469017 0.566890 0.010006 0.067672
C11   C     C_R   0.443680 0.651047 0.126692 -0.017100
C12   C     C_R   0.739941 0.999107 0.499756 0.939191
C13   C     C_R   0.442106 0.440091 0.980017 -0.006096
C14   C     C_R   0.357432 0.399804 0.058608 0.006781
C15   C     C_R   0.312897 0.486572 0.169685 0.381399
C16   C     C_R   0.357226 0.609947 0.203249 -0.183733
C17   C     C_R   0.500767 0.352342 0.875694 0.334938
C18   C     C_R   0.362260 0.189994 0.912156 -0.190421
C19   C     C_R   0.501626 0.773972 0.160959 -0.203081
C20   C     C_R   0.699698 0.338046 0.318569 0.368594
C21   C     C_R   0.333123 0.763557 0.652332 0.168747
C22   C     C_R   0.299026 0.668543 0.686492 -0.158563
C23   C     C_R   0.481383 0.145392 0.714303 0.879362
C24   C     C_R   0.360812 0.562671 0.627401 -0.094954
C25   C     C_R   0.457987 0.550044 0.532266 0.049841
C26   C     C_R   0.489341 0.649986 0.500875 0.242907
C27   C     C_R   0.527355 0.444012 0.469322 -0.103944
C28   C     C_R   0.623515 0.437463 0.372943 -0.056672
C29   C     C_R   0.641181 0.531765 0.336808 0.410856
C30   C     C_R   0.584513 0.638609 0.406067 -0.160738
C31   C     C_R   0.504559 0.343018 0.497799 0.135718
C32   C     C_R   0.671867 0.243704 0.353062 0.084896
C33   C     C_R   0.260589 0.001049 0.499964 0.864851
C34   C     C_3   0.960346 0.075335 0.436299 -0.461011
C35   C     C_3   0.103574 0.086448 0.442857 0.640066
C36   C     C_3   0.908142 0.061299 0.630007 0.581234
C37   C     C_3   0.920569 0.865157 0.434347 0.618611
C38   C     C_3   0.878140 0.999081 0.501386 -0.304806
Cu1   Cu    Cu3+1 0.529690 0.098270 0.475420 1.062591
Cu2   Cu    Cu3+1 0.470310 0.901730 0.524580 1.025292
H1    H     H_    0.929018 0.167930 0.471284 0.270177
H2    H     H_    0.507296 0.553202 0.834771 0.193412
H3    H     H_    0.943450 0.032597 0.344699 0.250510
H4    H     H_    0.316408 0.673169 0.287672 0.191661
H5    H     H_    0.728436 0.167220 0.312101 0.187732
H6    H     H_    0.225035 0.677330 0.759607 0.190228
H7    H     H_    0.114491 0.838279 0.335973 0.220262
N1    N     N_R   0.574690 0.246280 0.438200 -0.221747
N2    N     N_R   0.426100 0.754320 0.561190 -0.210686
O1    O     O_R   0.537340 0.972510 0.318130 -0.527203
O2    O     O_R   0.487200 0.806530 0.359650 -0.634241
O3    O     O_R   0.707380 0.082980 0.479220 -0.576824
O4    O     O_R   0.657240 0.917000 0.520740 -0.536981
O5    O     O_R   0.512800 0.193470 0.640350 -0.563224
O6    O     O_R   0.462660 0.027490 0.681870 -0.573548
O7    O     O_R   0.342760 0.083000 0.479260 -0.535973
O8    O     O_R   0.292620 0.917020 0.520780 -0.578722
H8    H     H_    0.088168 0.805814 0.457107 0.261868
Cl1   Cl    Cl    0.796482 0.005373 0.724725 -0.302021
Cl2   Cl    Cl    0.067235 0.955781 0.697313 -0.482730
H9    H     H_    0.324066 0.094840 0.884156 0.198801
Cl3   Cl    Cl    0.204935 0.445346 0.272019 -0.482759
H10   H     H_    0.252041 0.240121 0.079851 0.231838
Cl4   Cl    Cl    0.650845 0.391158 0.805361 -0.440677
Cl5   Cl    Cl    0.630093 0.965341 0.103059 -0.437348
Cl6   Cl    Cl    0.605956 0.783411 0.844553 -0.406423
Cl7   Cl    Cl    0.719309 0.518733 0.198899 -0.386583
Cl8   Cl    Cl    0.840159 0.329584 0.217888 -0.356367
H11   H     H_    0.431120 0.338399 0.566433 0.150386
H12   H     H_    0.285939 0.845918 0.699690 0.169345
H13   H     H_    0.330780 0.492890 0.658581 0.162670
H14   H     H_    0.621699 0.712464 0.383571 0.243503
Cl9   Cl    Cl    0.191508 0.042990 0.298563 -0.504906
Cl10  Cl    Cl    0.157944 0.245000 0.523705 -0.540351
Cl11  Cl    Cl    0.886838 0.221056 0.697499 -0.432225
H15   H     H_    0.098760 0.139661 0.679965 0.175003
Cl12  Cl    Cl    0.845425 0.764640 0.501121 -0.439795
Cl13  Cl    Cl    0.881589 0.793376 0.289696 -0.515667

loop_
_geom_bond_atom_site_label_1
_geom_bond_atom_site_label_2
_ccdc_geom_bond_type
C2    C35   S    
C35   Cl10  S    
C8    Cl6   S    
C32   H5    S    
C36   Cl1   S    
C21   N2    A    
C7    C8    A    
C11   C19   A    
C9    H2    S    
C29   C30   A    
C28   C29   A    
C17   Cl4   S    
Cu1   O5    S    
C15   C16   A    
C5    H10   S    
C34   C35   S    
C29   Cl7   S    
C8    C9    A    
C1    O1    A    
C16   H4    S    
C12   O4    A    
C3    Cl2   S    
C33   O7    A    
Cu1   O3    S    
C13   C14   A    
C32   N1    A    
C34   H1    S    
C9    C10   A    
C12   O3    A    
C6    C18   A    
C1    C19   S    
C27   C31   A    
C24   C25   A    
C26   N2    A    
Cu1   Cu2   S    
C5    C18   A    
C20   C28   A    
C25   C26   A    
C37   Cl12  S    
C2    C4    S    
C37   C38   S    
C36   Cl11  S    
C7    Cl5   S    
C11   C16   A    
Cu1   O7    S    
Cu2   O6    S    
C3    H15   S    
C1    O2    A    
C5    C14   A    
C2    C33   S    
C22   H6    S    
C26   C30   A    
C7    C19   A    
C31   N1    A    
C22   C24   A    
C23   O5    A    
C20   C32   A    
C6    C17   A    
C35   Cl9   S    
C33   O8    A    
Cu2   O8    S    
C34   C38   S    
C20   Cl8   S    
C34   H3    S    
C10   C13   A    
C30   H14   S    
C18   H9    S    
C23   O6    A    
C25   C27   A    
Cu2   O2    S    
C37   Cl13  S    
C13   C17   A    
C21   H12   S    
C36   C38   S    
C2    C3    S    
C3    C36   S    
C6    C23   S    
C15   Cl3   S    
C12   C38   S    
C10   C11   A    
C31   H11   S    
Cu1   O1    S    
C4    C37   S    
Cu2   O4    S    
C4    H8    S    
C27   C28   A    
C14   C15   A    
C21   C22   A    
Cu2   N2    S    
C24   H13   S    
Cu1   N1    S    
C4    H7    S    
