data_mof_unit_53168.cif
_audit_creation_date              2012-12-10T18:23:56-0500
_audit_creation_method            fapswitch 2.2
_symmetry_space_group_name_H-M    P1
_symmetry_Int_Tables_number       1
_space_group_crystal_system       monoclinic
_cell_length_a                    22.571675
_cell_length_b                    22.312627
_cell_length_c                    14.648452
_cell_angle_alpha                 90.0
_cell_angle_beta                  90.643966
_cell_angle_gamma                 90.0
_cell_volume                      7376.98320949

loop_
_atom_site_label
_atom_site_type_symbol
_atom_type_description
_atom_site_fract_x
_atom_site_fract_y
_atom_site_fract_z
_atom_type_partial_charge
C1    C     C_R   0.419901 0.919564 0.499653 0.819928
C2    C     C_R   0.580001 0.080539 0.500351 0.820168
C3    C     C_R   0.580070 0.919536 0.500350 0.820070
C4    C     C_R   0.419981 0.080520 0.499654 0.820059
C5    C     C_R   0.919930 0.419536 0.499650 0.820070
C6    C     C_R   0.080019 0.580520 0.500346 0.820058
C7    C     C_R   0.080099 0.419564 0.500347 0.819928
C8    C     C_R   0.919999 0.580539 0.499649 0.820168
C9    C     C_1   0.338226 0.163857 0.498695 0.005100
C10   C     C_1   0.662341 0.836740 0.501369 0.004853
C11   C     C_1   0.661713 0.163924 0.501386 0.004910
C12   C     C_1   0.337497 0.836896 0.498681 0.005138
C13   C     C_1   0.838287 0.663924 0.498614 0.004910
C14   C     C_1   0.162503 0.336896 0.501319 0.005138
C15   C     C_1   0.161774 0.663857 0.501305 0.005100
C16   C     C_1   0.837659 0.336740 0.498631 0.004853
C17   C     C_1   0.499655 0.999862 0.194366 0.334230
C18   C     C_1   0.500402 0.999865 0.805636 0.334410
C19   C     C_1   0.999598 0.499865 0.194364 0.334410
C20   C     C_1   0.000345 0.499862 0.805634 0.334230
C21   C     C_3   0.527712 0.049359 0.970793 0.309346
C22   C     C_3   0.472433 0.950014 0.029233 0.308866
C23   C     C_3   0.471070 0.048591 0.029166 0.322018
C24   C     C_3   0.529040 0.950793 0.970804 0.321369
C25   C     C_3   0.028929 0.548591 0.970834 0.322018
C26   C     C_3   0.970960 0.450792 0.029196 0.321369
C27   C     C_3   0.972288 0.549359 0.029206 0.309346
C28   C     C_3   0.027567 0.450015 0.970767 0.308866
C29   C     C_3   0.705619 0.730470 0.548000 0.554996
C30   C     C_3   0.295791 0.270805 0.453385 0.555564
C31   C     C_3   0.294805 0.730209 0.453416 0.554827
C32   C     C_3   0.704783 0.270425 0.548073 0.555407
C33   C     C_3   0.205195 0.230209 0.546584 0.554827
C34   C     C_3   0.795217 0.770425 0.451927 0.555407
C35   C     C_3   0.794381 0.230470 0.452000 0.554996
C36   C     C_3   0.204209 0.770805 0.546615 0.555564
C37   C     C_3   0.229148 0.200027 0.459878 -0.298299
C38   C     C_3   0.771991 0.801333 0.538602 -0.303430
C39   C     C_3   0.771159 0.199559 0.538598 -0.298319
C40   C     C_3   0.228172 0.800987 0.459824 -0.303643
C41   C     C_3   0.728841 0.699559 0.461402 -0.298319
C42   C     C_3   0.271828 0.300987 0.540176 -0.303644
C43   C     C_3   0.270852 0.700027 0.540122 -0.298299
C44   C     C_3   0.728009 0.301333 0.461398 -0.303430
C45   C     C_1   0.375676 0.125827 0.498905 -0.163088
C46   C     C_1   0.624635 0.874503 0.501121 -0.163207
C47   C     C_1   0.624275 0.125880 0.501129 -0.163152
C48   C     C_1   0.375258 0.874606 0.498901 -0.163134
C49   C     C_1   0.875725 0.625880 0.498871 -0.163152
C50   C     C_1   0.124742 0.374606 0.501099 -0.163134
C51   C     C_1   0.124324 0.625827 0.501095 -0.163089
C52   C     C_1   0.875365 0.374503 0.498878 -0.163207
C53   C     C_3   0.268009 0.238599 0.587009 -0.301575
C54   C     C_3   0.732067 0.761564 0.413120 -0.296205
C55   C     C_3   0.731223 0.239369 0.413161 -0.301430
C56   C     C_3   0.267019 0.762454 0.587003 -0.295669
C57   C     C_3   0.768777 0.739369 0.586839 -0.301430
C58   C     C_3   0.232980 0.262454 0.412996 -0.295669
C59   C     C_3   0.231991 0.738599 0.412991 -0.301575
C60   C     C_3   0.767932 0.261564 0.586880 -0.296205
C61   C     C_3   0.292257 0.209405 0.499340 0.067179
C62   C     C_3   0.708554 0.791457 0.500724 0.066703
C63   C     C_3   0.707717 0.209439 0.500749 0.067057
C64   C     C_3   0.291281 0.791611 0.499316 0.066565
C65   C     C_3   0.792283 0.709439 0.499251 0.067057
C66   C     C_3   0.208718 0.291611 0.500684 0.066565
C67   C     C_3   0.207743 0.709405 0.500660 0.067179
C68   C     C_3   0.791446 0.291457 0.499276 0.066703
C69   C     C_3   0.556085 0.000444 0.031999 0.252638
C70   C     C_3   0.444036 0.998916 0.968015 0.252696
C71   C     C_3   0.055964 0.498917 0.031985 0.252696
C72   C     C_3   0.943915 0.500443 0.968001 0.252639
C73   C     C_3   0.499453 0.999703 0.092030 -0.258829
C74   C     C_3   0.500669 0.999703 0.907980 -0.258893
C75   C     C_3   0.999331 0.499703 0.092020 -0.258893
C76   C     C_3   0.000547 0.499703 0.907970 -0.258829
Cu1   Cu    Cu3+1 0.500000 1.000000 0.590220 1.004838
Cu2   Cu    Cu3+1 0.500000 1.000000 0.409780 1.004667
Cu3   Cu    Cu3+1 1.000000 0.500000 0.590220 1.004667
Cu4   Cu    Cu3+1 0.000000 0.500000 0.409780 1.004838
H1    H     H_    0.212422 0.158035 0.428230 0.149230
H2    H     H_    0.789242 0.843648 0.568609 0.151369
H3    H     H_    0.788075 0.157250 0.568994 0.149305
H4    H     H_    0.211106 0.842983 0.428542 0.151373
H5    H     H_    0.711925 0.657250 0.431006 0.149305
H6    H     H_    0.288894 0.342983 0.571457 0.151374
H7    H     H_    0.287578 0.658035 0.571771 0.149230
H8    H     H_    0.710757 0.343648 0.431391 0.151369
H9    H     H_    0.716765 0.771833 0.342587 0.149637
H10   H     H_    0.282144 0.227578 0.657876 0.151059
H11   H     H_    0.281684 0.773388 0.657611 0.149721
H12   H     H_    0.716395 0.229043 0.342375 0.151575
H13   H     H_    0.218316 0.273388 0.342389 0.149721
H14   H     H_    0.783605 0.729043 0.657624 0.151575
H15   H     H_    0.783235 0.271833 0.657413 0.149637
H16   H     H_    0.217857 0.727578 0.342124 0.151060
N1    N     N_1   0.499980 1.000000 0.274190 -0.163895
N2    N     N_1   0.500020 1.000000 0.725810 -0.163872
N3    N     N_1   0.999980 0.500000 0.274190 -0.163872
N4    N     N_1   0.000020 0.500000 0.725810 -0.163895
O1    O     O_R   0.439540 0.939530 0.576170 -0.573054
O2    O     O_R   0.560460 0.060470 0.423830 -0.573334
O3    O     O_R   0.560460 0.939530 0.423830 -0.573082
O4    O     O_R   0.439540 0.060470 0.576170 -0.573248
O5    O     O_R   0.939540 0.439530 0.576170 -0.573082
O6    O     O_R   0.060460 0.560470 0.423830 -0.573248
O7    O     O_R   0.060460 0.439530 0.423830 -0.573055
O8    O     O_R   0.939540 0.560470 0.576170 -0.573334
O9    O     O_R   0.439530 0.939530 0.423800 -0.565255
O10   O     O_R   0.560470 0.060470 0.576200 -0.565383
O11   O     O_R   0.560470 0.939530 0.576200 -0.565120
O12   O     O_R   0.439530 0.060470 0.423800 -0.565460
O13   O     O_R   0.939530 0.439530 0.423800 -0.565120
O14   O     O_R   0.060470 0.560470 0.576200 -0.565460
O15   O     O_R   0.060470 0.439530 0.576200 -0.565255
O16   O     O_R   0.939530 0.560470 0.423800 -0.565383
O17   O     O_3   0.386912 0.998875 0.927609 -0.611714
C77   C     C_3   0.343203 0.991560 0.994915 0.081684
H17   H     H_    0.350189 0.022562 0.053627 0.174225
H18   H     H_    0.343254 0.944799 0.020610 0.184998
C78   C     C_3   0.282514 0.004242 0.951857 -0.356619
H19   H     H_    0.281174 0.051140 0.926344 0.217780
H20   H     H_    0.275220 0.973636 0.892921 0.231100
C79   C     C_3   0.232840 0.995228 0.020290 -0.931226
H21   H     H_    0.232582 0.948216 0.045249 0.257930
H22   H     H_    0.189507 0.004774 0.986717 0.258807
H23   H     H_    0.238651 0.026116 0.079190 0.261543
O18   O     O_3   0.613256 0.000417 0.072264 -0.611475
C80   C     C_3   0.656935 0.007054 0.004732 0.083435
H24   H     H_    0.658158 0.054100 0.980285 0.181805
H25   H     H_    0.648835 0.976989 0.945202 0.175788
C81   C     C_3   0.717375 0.991926 0.046836 -0.358649
H26   H     H_    0.726545 0.022498 0.105242 0.228292
H27   H     H_    0.716908 0.945178 0.072997 0.221538
C82   C     C_3   0.766782 0.998181 0.977248 -0.929384
H28   H     H_    0.759231 0.966963 0.919198 0.261403
H29   H     H_    0.809970 0.987146 0.010175 0.258380
H30   H     H_    0.768708 0.044877 0.951150 0.258307
O19   O     O_3   0.886744 0.500416 0.927736 -0.611475
C83   C     C_3   0.843065 0.507053 0.995268 0.083435
H31   H     H_    0.841842 0.554099 0.019715 0.181805
H32   H     H_    0.851166 0.476987 0.054798 0.175788
C84   C     C_3   0.782625 0.491923 0.953164 -0.358649
H33   H     H_    0.773454 0.522496 0.894759 0.228292
H34   H     H_    0.783093 0.445175 0.927003 0.221538
C85   C     C_3   0.733218 0.498178 0.022752 -0.929384
H35   H     H_    0.740769 0.466961 0.080802 0.261403
H36   H     H_    0.690030 0.487143 0.989825 0.258380
H37   H     H_    0.731292 0.544875 0.048850 0.258307
O20   O     O_3   0.113088 0.498876 0.072391 -0.611714
C86   C     C_3   0.156797 0.491562 0.005085 0.081686
H38   H     H_    0.149810 0.522562 0.946372 0.174224
H39   H     H_    0.156747 0.444800 0.979392 0.184998
C87   C     C_3   0.217486 0.504245 0.048143 -0.356619
H40   H     H_    0.218825 0.551144 0.073653 0.217778
H41   H     H_    0.224781 0.473642 0.107081 0.231101
C88   C     C_3   0.267160 0.495231 0.979710 -0.931226
H42   H     H_    0.267420 0.448217 0.954755 0.257929
H43   H     H_    0.310493 0.504779 0.013282 0.258807
H44   H     H_    0.261348 0.526116 0.920808 0.261543
O21   O     O_3   0.655908 0.712287 0.598597 -0.604875
C89   C     C_3   0.664807 0.654302 0.635610 0.048515
H45   H     H_    0.655428 0.656530 0.709827 0.165134
H46   H     H_    0.710925 0.636776 0.629290 0.124549
C90   C     C_3   0.621539 0.610208 0.590735 -0.322257
H47   H     H_    0.575372 0.625834 0.601450 0.230512
H48   H     H_    0.629599 0.608463 0.516112 0.211138
C91   C     C_3   0.628556 0.547315 0.630524 -0.948240
H49   H     H_    0.674063 0.530206 0.618769 0.256622
H50   H     H_    0.596444 0.516484 0.596915 0.256022
H51   H     H_    0.619848 0.547787 0.705007 0.258127
O22   O     O_3   0.346240 0.289344 0.404827 -0.604646
C92   C     C_3   0.338089 0.347761 0.369038 0.050233
H52   H     H_    0.377506 0.374900 0.388599 0.167214
H53   H     H_    0.298670 0.371996 0.395931 0.123622
C93   C     C_3   0.333891 0.344801 0.264837 -0.324367
H54   H     H_    0.374436 0.323193 0.237745 0.232156
H55   H     H_    0.295018 0.317230 0.244228 0.210577
C94   C     C_3   0.327496 0.407205 0.223150 -0.941041
H56   H     H_    0.286982 0.429552 0.248842 0.256312
H57   H     H_    0.323898 0.403480 0.147696 0.261571
H58   H     H_    0.366821 0.435040 0.240539 0.262045
O23   O     O_3   0.345049 0.711739 0.404321 -0.604982
C95   C     C_3   0.336718 0.653371 0.368440 0.048276
H59   H     H_    0.346807 0.654918 0.294416 0.164967
H60   H     H_    0.290600 0.635735 0.374101 0.124340
C96   C     C_3   0.379723 0.609892 0.415292 -0.321903
H61   H     H_    0.425928 0.625675 0.405477 0.230662
H62   H     H_    0.370848 0.608726 0.489707 0.210969
C97   C     C_3   0.373474 0.546644 0.376557 -0.948463
H63   H     H_    0.327915 0.529397 0.387392 0.256630
H64   H     H_    0.405356 0.516258 0.411613 0.256128
H65   H     H_    0.383041 0.546565 0.302338 0.258064
O24   O     O_3   0.654905 0.288765 0.598162 -0.604498
C98   C     C_3   0.663784 0.346751 0.635197 0.050359
H66   H     H_    0.624600 0.374501 0.616584 0.166491
H67   H     H_    0.703376 0.370833 0.608572 0.124204
C99   C     C_3   0.668299 0.342712 0.739281 -0.324542
H68   H     H_    0.627411 0.321688 0.766216 0.232310
H69   H     H_    0.706665 0.314133 0.758923 0.210412
C100  C     C_3   0.676125 0.404555 0.782354 -0.943377
H70   H     H_    0.717409 0.425993 0.757766 0.258713
H71   H     H_    0.679155 0.400027 0.857743 0.259014
H72   H     H_    0.637682 0.433646 0.765053 0.262658
O25   O     O_3   0.154951 0.211739 0.595679 -0.604982
C101  C     C_3   0.163282 0.153371 0.631561 0.048276
H73   H     H_    0.153194 0.154918 0.705585 0.164967
H74   H     H_    0.209400 0.135735 0.625899 0.124340
C102  C     C_3   0.120277 0.109893 0.584708 -0.321904
H75   H     H_    0.074072 0.125675 0.594524 0.230662
H76   H     H_    0.129152 0.108726 0.510294 0.210969
C103  C     C_3   0.126526 0.046644 0.623444 -0.948462
H77   H     H_    0.172085 0.029397 0.612608 0.256629
H78   H     H_    0.094644 0.016258 0.588388 0.256128
H79   H     H_    0.116960 0.046565 0.697663 0.258064
O26   O     O_3   0.845095 0.788765 0.401838 -0.604498
C104  C     C_3   0.836216 0.846751 0.364803 0.050361
H80   H     H_    0.875400 0.874502 0.383416 0.166490
H81   H     H_    0.796624 0.870833 0.391428 0.124204
C105  C     C_3   0.831701 0.842712 0.260719 -0.324543
H82   H     H_    0.872589 0.821688 0.233784 0.232310
H83   H     H_    0.793335 0.814134 0.241078 0.210411
C106  C     C_3   0.823875 0.904556 0.217647 -0.943377
H84   H     H_    0.782592 0.925993 0.242235 0.258712
H85   H     H_    0.820845 0.900028 0.142258 0.259013
H86   H     H_    0.862319 0.933647 0.234948 0.262658
O27   O     O_3   0.844092 0.212287 0.401403 -0.604876
C107  C     C_3   0.835193 0.154302 0.364390 0.048515
H87   H     H_    0.844572 0.156530 0.290173 0.165134
H88   H     H_    0.789074 0.136776 0.370709 0.124549
C108  C     C_3   0.878461 0.110208 0.409265 -0.322256
H89   H     H_    0.924627 0.125834 0.398550 0.230512
H90   H     H_    0.870401 0.108463 0.483887 0.211137
C109  C     C_3   0.871444 0.047315 0.369476 -0.948239
H91   H     H_    0.825937 0.030206 0.381231 0.256621
H92   H     H_    0.903555 0.016484 0.403085 0.256021
H93   H     H_    0.880152 0.047787 0.294993 0.258126
O28   O     O_3   0.153760 0.789344 0.595172 -0.604646
C110  C     C_3   0.161910 0.847761 0.630961 0.050233
H94   H     H_    0.122494 0.874900 0.611400 0.167214
H95   H     H_    0.201330 0.871996 0.604069 0.123622
C111  C     C_3   0.166109 0.844801 0.735162 -0.324366
H96   H     H_    0.125563 0.823192 0.762254 0.232155
H97   H     H_    0.204981 0.817230 0.755771 0.210577
C112  C     C_3   0.172503 0.907205 0.776849 -0.941042
H98   H     H_    0.213016 0.929552 0.751158 0.256312
H99   H     H_    0.176101 0.903481 0.852304 0.261570
H100  H     H_    0.133178 0.935040 0.759460 0.262045
O29   O     O_3   0.441918 0.099177 0.065286 -0.578446
C113  C     C_3   0.415703 0.132996 0.994123 -0.278170
H101  H     H_    0.372697 0.113256 0.972830 0.181844
H102  H     H_    0.444711 0.137873 0.933671 0.188981
H103  H     H_    0.406581 0.178713 0.020151 0.170374
O30   O     O_3   0.558103 0.900167 0.934635 -0.578078
C114  C     C_3   0.584307 0.866274 0.005732 -0.274332
H104  H     H_    0.555649 0.861961 0.066684 0.188468
H105  H     H_    0.627653 0.885565 0.026213 0.181377
H106  H     H_    0.592736 0.820358 0.979954 0.171037
O31   O     O_3   0.556834 0.099943 0.934601 -0.582977
C115  C     C_3   0.571598 0.140457 0.005270 -0.282399
H107  H     H_    0.589546 0.118022 0.067532 0.180931
H108  H     H_    0.532805 0.168323 0.023298 0.197600
H109  H     H_    0.606452 0.171181 0.980207 0.168998
O32   O     O_3   0.443450 0.899343 0.065421 -0.583183
C116  C     C_3   0.428813 0.858757 0.994768 -0.279541
H110  H     H_    0.467522 0.830562 0.977499 0.197264
H111  H     H_    0.411401 0.881128 0.932087 0.180892
H112  H     H_    0.393587 0.828355 0.019504 0.169768
O33   O     O_3   0.943165 0.599942 0.065398 -0.582977
C117  C     C_3   0.928400 0.640457 0.994730 -0.282399
H113  H     H_    0.910452 0.618021 0.932468 0.180930
H114  H     H_    0.967193 0.668323 0.976702 0.197600
H115  H     H_    0.893547 0.671180 0.019793 0.168998
O34   O     O_3   0.056551 0.399344 0.934580 -0.583183
C118  C     C_3   0.071188 0.358757 0.005232 -0.279540
H116  H     H_    0.032480 0.330562 0.022500 0.197263
H117  H     H_    0.088599 0.381129 0.067913 0.180892
H118  H     H_    0.106415 0.328357 0.980497 0.169768
O35   O     O_3   0.058081 0.599178 0.934713 -0.578446
C119  C     C_3   0.084296 0.632997 0.005877 -0.278170
H119  H     H_    0.127301 0.613257 0.027170 0.181844
H120  H     H_    0.055287 0.637874 0.066328 0.188980
H121  H     H_    0.093417 0.678714 0.979848 0.170374
O36   O     O_3   0.941898 0.400167 0.065365 -0.578077
C120  C     C_3   0.915694 0.366273 0.994268 -0.274335
H122  H     H_    0.944353 0.361960 0.933316 0.188468
H123  H     H_    0.872348 0.385564 0.973787 0.181378
H124  H     H_    0.907265 0.320358 0.020046 0.171037

loop_
_geom_bond_atom_site_label_1
_geom_bond_atom_site_label_2
_ccdc_geom_bond_type
C84   C85   S    
Cu1   Cu2   S    
C114  H105  S    
C9    C45   T    
C88   H42   S    
C98   H67   S    
Cu3   O15   S    
Cu2   O2    S    
C26   C72   S    
C100  H70   S    
C40   H4    S    
Cu1   O1    S    
C110  H94   S    
C23   C70   S    
C119  H121  S    
C25   O35   S    
O18   C80   S    
C30   C58   S    
C105  H83   S    
O21   C89   S    
C36   C67   S    
C105  H82   S    
C82   H28   S    
C13   C65   S    
O25   C101  S    
C104  C105  S    
Cu4   O7    S    
C33   O25   S    
O29   C113  S    
C90   H47   S    
C31   C43   S    
C9    C61   S    
O36   C120  S    
C118  H117  S    
C58   H13   S    
C119  H120  S    
C89   H45   S    
C120  H124  S    
C11   C63   S    
C42   C53   S    
C12   C64   S    
C101  H74   S    
C103  H78   S    
C71   O20   S    
C108  H90   S    
C70   O17   S    
C7    O15   A    
C84   H33   S    
C38   C57   S    
C107  C108  S    
Cu4   O6    S    
C102  C103  S    
C95   H59   S    
C20   C76   S    
C82   H29   S    
O34   C118  S    
C86   C87   S    
C31   C59   S    
Cu1   O11   S    
C77   H17   S    
C6    O14   A    
C78   C79   S    
C97   H65   S    
C59   C67   S    
O28   C110  S    
C11   C47   T    
C58   C66   S    
C56   H11   S    
C2    O10   A    
Cu4   O16   S    
C69   O18   S    
C3    O11   A    
O32   C116  S    
C96   C97   S    
C116  H112  S    
C55   C63   S    
C70   C74   S    
C111  H97   S    
C86   H38   S    
C56   C64   S    
C5    C52   S    
C69   C73   S    
C99   H68   S    
C16   C68   S    
C15   C51   T    
C6    C51   S    
Cu2   O9    S    
C116  H110  S    
C85   H36   S    
C37   C58   S    
C72   C76   S    
C98   C99   S    
C1    O9    A    
C113  H103  S    
C91   H50   S    
O24   C98   S    
C4    O12   A    
C114  H106  S    
C87   H41   S    
C18   C74   S    
C40   C59   S    
O33   C117  S    
C38   H2    S    
C17   C73   S    
C100  H71   S    
C117  H115  S    
C37   H1    S    
C10   C62   S    
C109  H92   S    
C23   C73   S    
C115  H109  S    
C27   C75   S    
C8    O8    A    
C34   C65   S    
C107  H88   S    
C107  H87   S    
C80   C81   S    
C24   C69   S    
C111  H96   S    
C89   H46   S    
C4    C45   S    
C93   C94   S    
C33   C53   S    
C99   H69   S    
C82   H30   S    
C106  H86   S    
C111  C112  S    
C78   H20   S    
C85   H35   S    
C35   C55   S    
C29   O21   S    
Cu3   N4    S    
C36   C40   S    
C118  H118  S    
C119  H119  S    
C14   C66   S    
C106  H84   S    
C115  H108  S    
C22   O32   S    
C117  H113  S    
C19   N3    T    
C101  H73   S    
C81   H26   S    
C43   C67   S    
C5    O5    A    
C54   C62   S    
C4    O4    A    
C44   H8    S    
C113  H101  S    
C92   H52   S    
C38   C62   S    
C21   C74   S    
C33   C37   S    
Cu3   Cu4   S    
C21   C69   S    
C109  H93   S    
C88   H43   S    
C35   C39   S    
O23   C95   S    
C97   H63   S    
C10   C46   T    
C120  H122  S    
C36   C56   S    
C118  H116  S    
C85   H37   S    
C43   C56   S    
C60   C68   S    
C28   O34   S    
O27   C107  S    
C20   N4    T    
C103  H79   S    
O35   C119  S    
C15   C67   S    
C33   C66   S    
C99   C100  S    
C117  H114  S    
C102  H75   S    
C32   C44   S    
Cu1   N2    S    
C110  H95   S    
C5    O13   A    
C25   C71   S    
O26   C104  S    
C83   C84   S    
C24   O30   S    
C116  H111  S    
C30   O22   S    
C78   H19   S    
C13   C49   T    
C92   H53   S    
C27   C72   S    
C87   C88   S    
C79   H23   S    
C42   H6    S    
C81   H27   S    
C93   H54   S    
C27   O33   S    
C55   H12   S    
C29   C57   S    
C34   C54   S    
C88   H44   S    
C57   H14   S    
C21   C23   S    
Cu4   N3    S    
C100  H72   S    
C7    O7    A    
C30   C61   S    
C28   C71   S    
C25   C27   S    
C109  H91   S    
C32   C60   S    
C53   C61   S    
O31   C115  S    
C28   C76   S    
C1    O1    A    
C53   H10   S    
C32   C63   S    
O22   C92   S    
C79   H22   S    
C80   H24   S    
C92   C93   S    
C3    O3    A    
C84   H34   S    
C101  C102  S    
C29   C62   S    
C91   H49   S    
C97   H64   S    
C22   C70   S    
C31   O23   S    
Cu2   O3    S    
C34   C38   S    
C89   C90   S    
C26   O36   S    
C31   C64   S    
C21   O31   S    
C16   C52   T    
C7    C50   S    
C83   H32   S    
C115  H107  S    
C36   O28   S    
Cu2   N1    S    
C37   C61   S    
O19   C83   S    
C106  H85   S    
C1    C48   S    
C90   C91   S    
C2    C47   S    
C104  H81   S    
C39   C63   S    
C3    C46   S    
C26   C28   S    
C40   C64   S    
C95   C96   S    
C25   C76   S    
C43   H7    S    
C26   C75   S    
C94   H58   S    
O30   C114  S    
C112  H99   S    
C104  H80   S    
C39   H3    S    
C96   H61   S    
C120  H123  S    
C34   O26   S    
O17   C77   S    
C71   C75   S    
C32   O24   S    
C44   C55   S    
C24   C74   S    
C14   C50   T    
C29   C41   S    
C17   N1    T    
C35   C68   S    
C81   C82   S    
C83   H31   S    
C39   C60   S    
C35   O27   S    
C19   C75   S    
C102  H76   S    
C12   C48   T    
C93   H55   S    
C54   H9    S    
C95   H60   S    
C110  C111  S    
C22   C24   S    
C86   H39   S    
C41   C65   S    
Cu1   O10   S    
C18   N2    T    
Cu3   O8    S    
C77   H18   S    
C41   C54   S    
C96   H62   S    
C44   C68   S    
C108  C109  S    
C8    O16   A    
C98   H66   S    
C60   H15   S    
C87   H40   S    
C79   H21   S    
Cu4   O13   S    
C72   O19   S    
Cu3   O5    S    
C90   H48   S    
C59   H16   S    
C112  H100  S    
C23   O29   S    
C108  H89   S    
C42   C66   S    
C94   H56   S    
C2    O2    A    
O20   C86   S    
C30   C42   S    
Cu1   O4    S    
Cu2   O12   S    
C91   H51   S    
C22   C73   S    
C94   H57   S    
C112  H98   S    
C113  H102  S    
C8    C49   S    
C77   C78   S    
C105  C106  S    
Cu3   O14   S    
C41   H5    S    
C114  H104  S    
C57   C65   S    
C103  H77   S    
C6    O6    A    
C80   H25   S    
