data_mof_unit_48613.cif
_audit_creation_date              2012-12-10T17:15:52-0500
_audit_creation_method            fapswitch 2.2
_symmetry_space_group_name_H-M    P1
_symmetry_Int_Tables_number       1
_space_group_crystal_system       triclinic
_cell_length_a                    10.165134
_cell_length_b                    10.690828
_cell_length_c                    10.752444
_cell_angle_alpha                 90.115962
_cell_angle_beta                  95.332128
_cell_angle_gamma                 81.211801
_cell_volume                      1149.70436111

loop_
_atom_site_label
_atom_site_type_symbol
_atom_type_description
_atom_site_fract_x
_atom_site_fract_y
_atom_site_fract_z
_atom_type_partial_charge
C1    C     C_R   0.443930 0.513451 0.267236 0.909108
C2    C     C_R   0.534635 0.059970 0.387442 0.080402
C3    C     C_R   0.496661 0.128677 0.494106 -0.165227
C4    C     C_R   0.454183 0.071543 0.597952 -0.078356
C5    C     C_R   0.457989 0.941697 0.599358 -0.064103
C6    C     C_R   0.498602 0.871919 0.495124 -0.162985
C7    C     C_2   0.412067 0.536978 0.135114 -0.380514
C8    C     C_2   0.509831 0.560289 0.068430 -0.166052
C9    C     C_2   0.589571 0.509594 0.865904 -0.183700
C10   C     C_2   0.490610 0.557693 0.934474 -0.183167
C11   C     C_2   0.075957 0.487395 0.490029 -0.124752
C12   C     C_R   0.499042 0.260849 0.497748 0.883678
C13   C     C_2   0.930450 0.507121 0.509878 -0.133018
C14   C     C_R   0.556314 0.496135 0.733128 0.901615
C15   C     C_R   0.499788 0.739267 0.498536 0.874692
C16   C     C_R   0.568751 0.118987 0.279304 -0.164688
C17   C     C_R   0.603911 0.048057 0.175240 -0.123502
C18   C     C_R   0.601498 0.918584 0.174728 -0.122479
C19   C     C_R   0.565838 0.859366 0.279022 -0.158442
C20   C     C_R   0.534135 0.929083 0.387514 0.082629
H1    H     H_    0.312107 0.531451 0.092084 0.155394
H2    H     H_    0.895909 0.574889 0.579546 0.159415
H3    H     H_    0.115665 0.418717 0.423425 0.173874
H4    H     H_    0.118333 0.616284 0.614234 0.168630
H5    H     H_    0.567124 0.220064 0.272804 0.148973
H6    H     H_    0.631920 0.093742 0.094215 0.137236
H7    H     H_    0.626345 0.863926 0.092950 0.146288
H8    H     H_    0.562173 0.759135 0.272647 0.146735
H9    H     H_    0.388802 0.585068 0.892242 0.198980
H10   H     H_    0.609089 0.567833 0.112212 0.194753
N1    N     N_2   0.157290 0.551390 0.551110 -0.194993
N2    N     N_2   0.842740 0.448550 0.448960 -0.137626
O1    O     O_R   0.568950 0.489660 0.307530 -0.625444
O2    O     O_R   0.348880 0.522640 0.340350 -0.606306
O3    O     O_R   0.610060 0.300270 0.483590 -0.617106
O4    O     O_R   0.389990 0.333260 0.516410 -0.607512
O5    O     O_R   0.651120 0.477360 0.659650 -0.611846
O6    O     O_R   0.431050 0.510340 0.692470 -0.602119
O7    O     O_R   0.610010 0.666740 0.483590 -0.626234
O8    O     O_R   0.389940 0.699730 0.516410 -0.602020
Zn1   Zn    Zn3+2 0.646940 0.477980 0.478090 0.948912
Zn2   Zn    Zn3+2 0.353060 0.522020 0.521910 0.957566
C21   C     C_R   0.404186 0.147018 0.704972 0.152560
C22   C     C_R   0.265997 0.182407 0.710319 -0.093732
C23   C     C_R   0.217818 0.250942 0.811761 -0.131001
C24   C     C_R   0.307156 0.283496 0.908707 -0.087762
C25   C     C_R   0.444794 0.248522 0.903830 -0.137389
C26   C     C_R   0.493587 0.180680 0.802089 -0.172493
H11   H     H_    0.195992 0.156942 0.635898 0.126577
H12   H     H_    0.111256 0.278326 0.815474 0.141701
H13   H     H_    0.269640 0.335626 0.987619 0.127246
H14   H     H_    0.513592 0.274720 0.978685 0.140769
H15   H     H_    0.600386 0.153951 0.799152 0.127266
C27   C     C_1   0.882522 0.361615 0.357955 0.302774
N3    N     N_1   0.915129 0.289314 0.282230 -0.242968
C28   C     C_1   0.423163 0.880167 0.709674 0.186683
N4    N     N_1   0.395186 0.831976 0.797675 -0.215435
C29   C     C_1   0.725627 0.468487 0.919540 0.161614
N5    N     N_1   0.834148 0.435588 0.962250 -0.213103

loop_
_geom_bond_atom_site_label_1
_geom_bond_atom_site_label_2
_ccdc_geom_bond_type
C22   H11   S    
C13   H2    S    
C9    C14   S    
C25   H14   S    
C4    C21   S    
C12   O4    A    
C6    C20   A    
C9    C10   D    
C5    C28   S    
O4    Zn2   S    
C19   C20   A    
O2    Zn2   S    
N2    Zn1   S    
C8    H10   S    
O8    Zn2   S    
C17   C18   A    
C6    C15   S    
H4    N1    S    
O1    Zn1   S    
C7    C8    D    
O7    Zn1   S    
C24   C25   A    
C23   C24   A    
C28   N4    T    
C14   O5    A    
C7    H1    S    
C19   H8    S    
C11   C13   S    
C10   H9    S    
C15   O7    A    
C26   H15   S    
C23   H12   S    
C17   H6    S    
N2    C27   S    
N1    Zn2   S    
C1    O2    A    
O6    Zn2   S    
C2    C3    A    
C21   C22   A    
O5    Zn1   S    
C5    C6    A    
O3    Zn1   S    
C15   O8    A    
C14   O6    A    
C1    O1    A    
C11   N1    D    
C3    C4    A    
C2    C16   A    
C22   C23   A    
C8    C10   S    
C9    C29   S    
C21   C26   A    
C11   H3    S    
C16   H5    S    
C27   N3    T    
C18   C19   A    
C3    C12   S    
C13   N2    D    
C29   N5    T    
C1    C7    S    
C2    C20   A    
C24   H13   S    
C18   H7    S    
C25   C26   A    
C16   C17   A    
C4    C5    A    
C12   O3    A    
