data_mof_unit_17268.cif
_audit_creation_date              2012-12-10T18:47:09-0500
_audit_creation_method            fapswitch 2.2
_symmetry_space_group_name_H-M    P1
_symmetry_Int_Tables_number       1
_space_group_crystal_system       triclinic
_cell_length_a                    10.675366
_cell_length_b                    9.83751
_cell_length_c                    15.015457
_cell_angle_alpha                 89.043651
_cell_angle_beta                  91.546369
_cell_angle_gamma                 89.997638
_cell_volume                      1576.1145136

loop_
_atom_site_label
_atom_site_type_symbol
_atom_type_description
_atom_site_fract_x
_atom_site_fract_y
_atom_site_fract_z
_atom_type_partial_charge
C1    C     C_R   0.259974 0.499862 0.501001 0.850977
C2    C     C_R   0.127510 0.499820 0.500298 -0.015107
C3    C     C_R   0.584033 0.070643 0.552208 -0.073530
C4    C     C_R   0.415689 0.929389 0.448073 -0.076906
C5    C     C_R   0.415768 0.073292 0.447986 -0.063722
C6    C     C_R   0.584067 0.926701 0.552175 -0.075249
C7    C     C_R   0.495532 0.501495 0.327043 0.950588
C8    C     C_R   0.503054 0.498951 0.673094 0.924665
C9    C     C_R   0.608733 0.456431 0.818421 0.081140
C10   C     C_R   0.385641 0.542171 0.183696 0.098978
C11   C     C_R   0.501632 0.498785 0.768678 -0.170250
C12   C     C_R   0.739951 0.500209 0.498129 0.854029
C13   C     C_R   0.496461 0.507448 0.231579 -0.139769
C14   C     C_R   0.396560 0.553186 0.809473 0.125559
C15   C     C_R   0.610311 0.487435 0.189813 0.102148
C16   C     C_R   0.395276 0.555908 0.902437 0.053344
C17   C     C_R   0.611925 0.490664 0.097013 0.055059
C18   C     C_R   0.504568 0.522013 0.953125 0.004750
C19   C     C_R   0.501809 0.524321 0.046808 0.006264
C20   C     C_R   0.615393 0.481714 0.910330 -0.017503
C21   C     C_R   0.388881 0.557957 0.089962 -0.032075
C22   C     C_R   0.286450 0.593947 0.945102 -0.176119
C23   C     C_R   0.283359 0.601539 0.037118 0.001591
C24   C     C_R   0.723113 0.461968 0.053926 -0.169740
C25   C     C_3   0.780661 0.416200 0.715066 -0.788143
C26   C     C_3   0.237586 0.663825 0.276461 -0.790583
C27   C     C_3   0.275813 0.740562 0.743253 -0.758825
C28   C     C_3   0.796368 0.580803 0.261339 -0.769365
C29   C     C_2   0.174432 0.673394 0.072363 0.382891
C30   C     C_2   0.852902 0.457366 0.922239 0.509789
C31   C     C_R   0.727398 0.461545 0.961699 -0.031446
C32   C     C_R   0.063233 0.383184 0.473478 -0.174225
C33   C     C_R   0.936661 0.617470 0.524139 -0.190503
C34   C     C_R   0.934976 0.383607 0.472196 -0.207928
C35   C     C_R   0.064859 0.617056 0.525400 -0.208406
C36   C     C_R   0.872372 0.500601 0.497781 -0.012265
H1    H     H_    0.203017 0.622905 0.906648 0.206692
H2    H     H_    0.651246 0.871051 0.593877 0.124921
H3    H     H_    0.659192 0.270284 0.767479 0.241229
H4    H     H_    0.878835 0.395499 0.737215 0.248349
H5    H     H_    0.768796 0.527293 0.702722 0.226944
H6    H     H_    0.765126 0.360205 0.652691 0.250123
H7    H     H_    0.196431 0.490139 0.200223 0.254030
H8    H     H_    0.141778 0.698015 0.256103 0.230163
H9    H     H_    0.305297 0.747562 0.264239 0.237553
H10   H     H_    0.235616 0.641430 0.348222 0.262623
H11   H     H_    0.269265 0.539962 0.701160 0.224410
H12   H     H_    0.809112 0.442841 0.092063 0.224613
H13   H     H_    0.349963 0.779260 0.699136 0.264526
H14   H     H_    0.282190 0.795197 0.807324 0.238935
H15   H     H_    0.183074 0.763107 0.711161 0.228831
H16   H     H_    0.714166 0.396058 0.294787 0.238134
H17   H     H_    0.745040 0.646983 0.307201 0.248935
H18   H     H_    0.817172 0.639151 0.199498 0.263755
H19   H     H_    0.886702 0.549869 0.294031 0.248501
H20   H     H_    0.189289 0.760374 0.114484 0.078982
H21   H     H_    0.872809 0.521755 0.865219 0.071429
H22   H     H_    0.111727 0.292668 0.452863 0.152892
H23   H     H_    0.888244 0.708030 0.544761 0.151534
H24   H     H_    0.885091 0.293381 0.450844 0.157934
H25   H     H_    0.114645 0.707445 0.546540 0.157471
H26   H     H_    0.651156 0.124164 0.593957 0.123403
H27   H     H_    0.348111 0.875977 0.406755 0.125704
H28   H     H_    0.348417 0.128911 0.406411 0.126980
N1    N     N_R   0.500000 0.857200 0.500000 -0.082787
N2    N     N_R   0.500000 0.142800 0.500000 -0.081423
N3    N     N_2   0.696147 0.364704 0.781397 -0.308453
N4    N     N_2   0.270284 0.541508 0.229827 -0.318341
N5    N     N_2   0.288293 0.595150 0.757702 -0.309178
N6    N     N_2   0.723126 0.461022 0.240792 -0.321637
O1    O     O_R   0.316770 0.614620 0.499990 -0.637924
O2    O     O_2   0.936260 0.386041 0.955055 -0.548891
O3    O     O_R   0.683230 0.385380 0.500010 -0.639624
O4    O     O_R   0.683230 0.614620 0.500010 -0.628385
O5    O     O_R   0.316770 0.385380 0.499990 -0.623009
O6    O     O_R   0.499980 0.614680 0.367850 -0.613643
O7    O     O_R   0.500020 0.385320 0.632150 -0.616295
O8    O     O_R   0.500020 0.614680 0.632150 -0.622282
O9    O     O_R   0.499980 0.385320 0.367850 -0.629624
O10   O     O_2   0.067737 0.640143 0.050983 -0.565231
Zn1   Zn    Zn3+2 0.500000 0.653120 0.500000 0.934297
Zn2   Zn    Zn3+2 0.500000 0.346880 0.500000 0.942720

loop_
_geom_bond_atom_site_label_1
_geom_bond_atom_site_label_2
_ccdc_geom_bond_type
C2    C35   A    
C34   H24   S    
C12   O4    A    
C25   N3    S    
C32   H22   S    
C3    C6    A    
C26   H8    S    
C4    H27   S    
C1    O1    A    
C23   C29   S    
C19   C21   A    
C1    C2    S    
C25   H4    S    
C30   C31   S    
C11   C14   A    
C30   H21   S    
C33   C36   A    
C2    C32   A    
C18   C19   A    
H11   N5    S    
C26   H9    S    
C17   C19   A    
C6    N1    A    
H7    N4    S    
C6    H2    S    
C12   C36   S    
C18   C20   A    
C27   N5    S    
C27   H14   S    
C33   H23   S    
C12   O3    A    
C8    O8    A    
C28   H19   S    
C27   H15   S    
C10   C21   A    
C17   C24   A    
C1    O5    A    
C25   H5    S    
C28   H18   S    
C4    C5    A    
C22   H1    S    
C5    H28   S    
C24   H12   S    
C25   H6    S    
C9    N3    S    
N2    Zn2   S    
C9    C20   A    
N1    Zn1   S    
C35   H25   S    
C9    C11   A    
C13   C15   A    
C8    O7    A    
C14   N5    S    
C14   C16   A    
C3    N2    A    
O4    Zn1   S    
O3    Zn2   S    
C7    O9    A    
C3    H26   S    
C15   C17   A    
C15   N6    S    
C16   C22   A    
H3    N3    S    
C28   N6    S    
C5    N2    A    
C10   C13   A    
O6    Zn1   S    
O9    Zn2   S    
C30   O2    D    
C28   H17   S    
O5    Zn2   S    
C7    O6    A    
C29   H20   S    
C10   N4    S    
C26   N4    S    
C21   C23   A    
C24   C31   A    
O8    Zn1   S    
C4    N1    A    
C29   O10   D    
O7    Zn2   S    
C8    C11   S    
C33   C35   A    
C34   C36   A    
H16   N6    S    
C26   H10   S    
C7    C13   S    
C16   C18   A    
C22   C23   A    
C27   H13   S    
C32   C34   A    
O1    Zn1   S    
C20   C31   A    
