data_mof_unit_18557.cif
_audit_creation_date              2012-12-10T17:45:35-0500
_audit_creation_method            fapswitch 2.2
_symmetry_space_group_name_H-M    P1
_symmetry_Int_Tables_number       1
_space_group_crystal_system       triclinic
_cell_length_a                    11.510342
_cell_length_b                    10.64403
_cell_length_c                    9.983311
_cell_angle_alpha                 87.843088
_cell_angle_beta                  88.786252
_cell_angle_gamma                 92.673834
_cell_volume                      1220.5999182

loop_
_atom_site_label
_atom_site_type_symbol
_atom_type_description
_atom_site_fract_x
_atom_site_fract_y
_atom_site_fract_z
_atom_type_partial_charge
C1    C     C_R   0.517827 0.262814 0.502973 1.019557
C2    C     C_R   0.502497 0.877175 0.493624 -0.241061
C3    C     C_R   0.298215 0.409962 0.144171 0.419940
C4    C     C_R   0.282261 0.500188 0.501096 0.953876
C5    C     C_R   0.191950 0.422243 0.081284 0.011213
C6    C     C_R   0.191163 0.425537 0.941393 -0.058810
C7    C     C_R   0.297092 0.414365 0.871723 0.366976
C8    C     C_R   0.401475 0.456422 0.932146 0.016573
C9    C     C_R   0.401734 0.455578 0.075883 -0.019189
C10   C     C_R   0.595483 0.539230 0.064838 0.176777
C11   C     C_R   0.594097 0.540275 0.923211 0.012207
C12   C     C_R   0.456268 0.039678 0.865796 0.125977
C13   C     C_R   0.497655 0.740974 0.497465 0.898536
C14   C     C_R   0.717794 0.500493 0.498809 0.896659
C15   C     C_1   0.161665 0.499710 0.502664 -0.135363
C16   C     C_1   0.059366 0.499385 0.501002 0.014646
C17   C     C_1   0.940668 0.499425 0.498044 0.026176
C18   C     C_1   0.838373 0.499843 0.496866 -0.128418
C19   C     C_R   0.525003 0.100448 0.762777 0.515430
C20   C     C_R   0.385163 0.934375 0.837433 -0.235364
C21   C     C_R   0.393026 0.882109 0.711821 -0.106511
C22   C     C_R   0.468364 0.938512 0.610549 0.002866
C23   C     C_R   0.516152 0.058835 0.629488 -0.073675
C24   C     C_R   0.548526 0.132307 0.512686 -0.263174
C25   C     C_R   0.583527 0.074458 0.395873 0.358094
C26   C     C_R   0.564633 0.945361 0.387882 0.319788
Cl1   Cl    Cl    0.659028 0.162109 0.263470 -0.492457
Cl2   Cl    Cl    0.297153 0.282901 0.770098 -0.603913
Cl3   Cl    Cl    0.637033 0.209505 0.807689 -0.534232
Cl4   Cl    Cl    0.621544 0.874608 0.244684 -0.589402
Cl5   Cl    Cl    0.298504 0.274958 0.251576 -0.558425
H1    H     H_    0.671109 0.573279 0.865925 0.158502
H2    H     H_    0.035656 0.483862 0.137756 0.204089
H3    H     H_    0.039774 0.325699 0.128176 0.252794
H4    H     H_    0.328769 0.889007 0.914817 0.162777
H5    H     H_    0.340572 0.797361 0.694867 0.154750
H6    H     H_    0.084799 0.489726 0.798779 0.199290
H7    H     H_    0.072685 0.331938 0.828481 0.260927
H8    H     H_    0.478818 0.013608 0.064391 0.252483
H9    H     H_    0.372649 0.110806 0.023094 0.235711
H10   H     H_    0.686408 0.642069 0.196457 0.273616
H11   H     H_    0.740589 0.498374 0.163398 0.234581
N1    N     N_R   0.498930 0.498800 0.142780 -0.104642
N2    N     N_R   0.498900 0.498720 0.857170 -0.105869
N3    N     N_3   0.082432 0.418512 0.873883 -0.424701
N4    N     N_3   0.457201 0.086703 0.998203 -0.338238
N5    N     N_3   0.702613 0.578063 0.122952 -0.439167
N6    N     N_3   0.085664 0.406331 0.158831 -0.385914
O1    O     O_R   0.500000 0.316780 0.614690 -0.544215
O2    O     O_R   0.499990 0.316750 0.385360 -0.523301
O3    O     O_R   0.334450 0.500030 0.614670 -0.609632
O4    O     O_R   0.334440 0.500000 0.385330 -0.600624
O5    O     O_R   0.500010 0.683250 0.614640 -0.635201
O6    O     O_R   0.500000 0.683220 0.385310 -0.581501
O7    O     O_R   0.665560 0.500000 0.614670 -0.601991
O8    O     O_R   0.665550 0.499970 0.385330 -0.641378
Zn1   Zn    Zn3+2 0.500010 0.500020 0.653130 1.019123
Zn2   Zn    Zn3+2 0.499990 0.499980 0.346870 1.032435

loop_
_geom_bond_atom_site_label_1
_geom_bond_atom_site_label_2
_ccdc_geom_bond_type
C2    C22   A    
C19   C23   A    
C23   C24   A    
C26   Cl4   S    
C6    C7    A    
O3    Zn1   S    
C6    N3    S    
C25   Cl1   S    
C1    O2    A    
C14   C18   S    
C14   O8    A    
N2    Zn1   S    
C12   C20   A    
C4    C15   S    
C14   O7    A    
H10   N5    S    
C7    C8    A    
C2    C26   A    
C21   H5    S    
C21   C22   A    
C24   C25   A    
C3    Cl5   S    
O4    Zn2   S    
C4    O4    A    
H8    N4    S    
C3    C9    A    
C12   C19   A    
O8    Zn2   S    
C11   H1    S    
C17   C18   T    
C13   O5    A    
H11   N5    S    
O7    Zn1   S    
C5    C6    A    
C5    N6    S    
C9    N1    A    
H3    N6    S    
C10   C11   A    
H9    N4    S    
C4    O3    A    
H6    N3    S    
C15   C16   T    
C19   Cl3   S    
C11   N2    A    
O1    Zn1   S    
C20   C21   A    
C1    C24   S    
C12   N4    S    
C13   O6    A    
O6    Zn2   S    
C10   N5    S    
C2    C13   S    
H2    N6    S    
O5    Zn1   S    
C22   C23   A    
C16   C17   S    
H7    N3    S    
N1    Zn2   S    
C25   C26   A    
C20   H4    S    
C1    O1    A    
C7    Cl2   S    
C8    N2    A    
C10   N1    A    
C8    C9    A    
C3    C5    A    
O2    Zn2   S    
