data_mof_unit_31372.cif
_audit_creation_date              2012-12-10T18:34:15-0500
_audit_creation_method            fapswitch 2.2
_symmetry_space_group_name_H-M    P1
_symmetry_Int_Tables_number       1
_space_group_crystal_system       triclinic
_cell_length_a                    11.022764
_cell_length_b                    15.100603
_cell_length_c                    14.113109
_cell_angle_alpha                 90.670939
_cell_angle_beta                  102.174488
_cell_angle_gamma                 94.003532
_cell_volume                      2289.8548034

loop_
_atom_site_label
_atom_site_type_symbol
_atom_type_description
_atom_site_fract_x
_atom_site_fract_y
_atom_site_fract_z
_atom_type_partial_charge
C1    C     C_R   0.498611 0.330250 0.498920 0.775785
C2    C     C_R   0.500367 0.669932 0.500225 0.773948
C3    C     C_R   0.499649 0.048869 0.488549 0.094224
C4    C     C_R   0.502991 0.952273 0.493829 0.095925
C5    C     C_R   0.587042 0.555662 0.124533 -0.344743
C6    C     C_R   0.438211 0.437495 0.885131 -0.335544
C7    C     C_R   0.586541 0.554755 0.224110 0.312248
C8    C     C_R   0.437366 0.433062 0.784636 0.304092
C9    C     C_R   0.404172 0.456384 0.190447 0.268870
C10   C     C_R   0.578462 0.560855 0.805811 0.276757
C11   C     C_R   0.391435 0.473357 0.088754 0.094662
C12   C     C_R   0.603006 0.548414 0.908161 0.031468
C13   C     C_R   0.498123 0.507219 0.054816 0.068394
C14   C     C_R   0.510780 0.501317 0.948104 0.029635
C15   C     C_R   0.263221 0.499586 0.460562 0.846263
C16   C     C_R   0.736662 0.499969 0.539496 0.847146
C17   C     C_2   0.127847 0.494012 0.438821 -0.363548
C18   C     C_2   0.871848 0.504304 0.561886 -0.359131
C19   C     C_2   0.067218 0.504363 0.510157 -0.156662
C20   C     C_2   0.932774 0.489235 0.491940 -0.152202
C21   C     C_R   0.424342 0.090076 0.541573 -0.211719
C22   C     C_R   0.443714 0.900087 0.412300 -0.222651
C23   C     C_R   0.423708 0.181763 0.545039 -0.222547
C24   C     C_R   0.443052 0.808138 0.414570 -0.186665
C25   C     C_R   0.498020 0.233668 0.495148 -0.041223
C26   C     C_R   0.500009 0.766900 0.499051 -0.049362
C27   C     C_R   0.567777 0.192888 0.436985 -0.222434
C28   C     C_R   0.558408 0.818858 0.580814 -0.261597
C29   C     C_R   0.569312 0.100259 0.432296 0.171839
C30   C     C_R   0.559612 0.911459 0.580292 0.183968
Cu1   Cu    Cu3+1 0.500000 0.499990 0.596430 0.932830
Cu2   Cu    Cu3+1 0.500000 0.500010 0.403570 0.913847
H1    H     H_    0.882906 0.466041 0.420379 0.184618
H2    H     H_    0.117054 0.524371 0.582961 0.177483
H3    H     H_    0.921788 0.523280 0.635031 0.143519
H4    H     H_    0.077593 0.478043 0.365004 0.145486
H5    H     H_    0.366492 0.050824 0.581129 0.134065
H6    H     H_    0.397007 0.930767 0.346926 0.133102
H7    H     H_    0.362744 0.211464 0.584745 0.145258
H8    H     H_    0.396776 0.769179 0.350558 0.153192
H9    H     H_    0.622356 0.233635 0.396150 0.144723
H10   H     H_    0.606224 0.787929 0.644646 0.148716
H11   H     H_    0.653967 0.600452 0.102134 0.198294
H12   H     H_    0.392664 0.383841 0.917145 0.146499
N1    N     N_R   0.500000 0.500020 0.258690 -0.220126
N2    N     N_R   0.500000 0.499980 0.741310 -0.194691
O1    O     O_R   0.500010 0.371450 0.581440 -0.580280
O2    O     O_R   0.499990 0.628550 0.418560 -0.604487
O3    O     O_R   0.500010 0.371460 0.418560 -0.596001
O4    O     O_R   0.499990 0.628540 0.581440 -0.581479
O5    O     O_R   0.320690 0.500000 0.551510 -0.566856
O6    O     O_R   0.679310 0.500000 0.448490 -0.582253
O7    O     O_R   0.320690 0.500010 0.388630 -0.603000
O8    O     O_R   0.679310 0.499990 0.611370 -0.570564
C31   C     C_3   0.260508 0.474717 0.024338 -0.400106
C32   C     C_3   0.237136 0.565182 0.978914 -0.830420
H13   H     H_    0.258999 0.618714 0.035912 0.248011
H14   H     H_    0.293944 0.578916 0.923924 0.258027
H15   H     H_    0.137627 0.566054 0.942200 0.234314
H16   H     H_    0.239030 0.421635 0.967702 0.194419
H17   H     H_    0.187536 0.462949 0.066521 0.200809
C33   C     C_3   0.739913 0.548716 0.959342 -0.371323
C34   C     C_3   0.805530 0.640942 0.989124 -0.884587
H18   H     H_    0.848020 0.668702 0.930445 0.259576
H19   H     H_    0.741092 0.688508 0.007414 0.243178
H20   H     H_    0.882554 0.635218 0.053077 0.240074
H21   H     H_    0.750818 0.505964 0.023652 0.201232
H22   H     H_    0.791628 0.515744 0.910899 0.196132
C35   C     C_3   0.643231 0.059457 0.365751 -0.418769
C36   C     C_3   0.762727 0.023142 0.421355 -0.833457
H23   H     H_    0.819711 0.075488 0.470429 0.249126
H24   H     H_    0.741626 0.964939 0.463776 0.266121
H25   H     H_    0.817969 0.001224 0.369232 0.238881
H26   H     H_    0.585481 0.006169 0.318892 0.199869
H27   H     H_    0.669586 0.109992 0.315570 0.195020
C37   C     C_3   0.619449 0.963337 0.673324 -0.418092
C38   C     C_3   0.742985 0.012739 0.667378 -0.835101
H28   H     H_    0.806033 0.966491 0.644388 0.248701
H29   H     H_    0.728023 0.067958 0.616223 0.267452
H30   H     H_    0.788542 0.041651 0.739914 0.237198
H31   H     H_    0.555333 0.010627 0.692383 0.201303
H32   H     H_    0.637947 0.917739 0.735214 0.192833
C39   C     C_3   0.681917 0.620684 0.286374 -0.334594
C40   C     C_3   0.815522 0.603242 0.280698 -0.889196
H33   H     H_    0.840212 0.634434 0.215908 0.242770
H34   H     H_    0.881750 0.632714 0.345629 0.255767
H35   H     H_    0.826575 0.530991 0.275975 0.252239
H36   H     H_    0.663477 0.688589 0.260071 0.167451
H37   H     H_    0.677192 0.624132 0.362466 0.254186
C41   C     C_3   0.375072 0.346273 0.735504 -0.345394
C42   C     C_3   0.251005 0.354647 0.665066 -0.760573
H38   H     H_    0.208506 0.415882 0.681369 0.245970
H39   H     H_    0.262680 0.352092 0.589220 0.253197
H40   H     H_    0.184786 0.297333 0.672010 0.204943
H41   H     H_    0.441432 0.308065 0.707328 0.205419
H42   H     H_    0.352479 0.299305 0.790523 0.147885
C43   C     C_3   0.312615 0.387418 0.220113 -0.360768
C44   C     C_3   0.313329 0.297243 0.169802 -0.916072
H43   H     H_    0.279301 0.300750 0.090271 0.247841
H44   H     H_    0.409007 0.274361 0.185014 0.260344
H45   H     H_    0.251300 0.247566 0.197675 0.248445
H46   H     H_    0.334195 0.374839 0.297228 0.263197
H47   H     H_    0.217091 0.409831 0.206573 0.169064
C45   C     C_3   0.621477 0.652138 0.777392 -0.315276
C46   C     C_3   0.740939 0.656187 0.737610 -0.779552
H48   H     H_    0.798891 0.600570 0.763698 0.243322
H49   H     H_    0.720758 0.656176 0.657603 0.251654
H50   H     H_    0.797060 0.719455 0.762057 0.201866
H51   H     H_    0.542971 0.683753 0.733013 0.190348
H52   H     H_    0.640349 0.697794 0.841861 0.168004

loop_
_geom_bond_atom_site_label_1
_geom_bond_atom_site_label_2
_ccdc_geom_bond_type
C7    C39   S    
C31   C32   S    
C34   H19   S    
C9    N1    A    
C27   C29   A    
Cu2   N1    S    
C19   C20   S    
C40   H35   S    
C43   C44   S    
C41   H41   S    
C38   H28   S    
C46   H49   S    
C33   H21   S    
C7    N1    A    
C24   C26   A    
C45   H51   S    
C6    C14   A    
C12   C33   S    
C22   H6    S    
C30   C37   S    
C32   H13   S    
C28   H10   S    
C3    C29   A    
Cu2   O6    S    
C2    O4    A    
C17   C19   D    
C39   C40   S    
Cu1   N2    S    
C10   N2    A    
C36   H23   S    
C17   H4    S    
C15   O5    A    
C18   H3    S    
C5    C13   A    
C43   H46   S    
C39   H36   S    
C5    H11   S    
C34   H20   S    
Cu1   O1    S    
C31   H16   S    
C1    C25   S    
Cu2   O2    S    
C45   C46   S    
C29   C35   S    
C38   H29   S    
C39   H37   S    
C46   H50   S    
C40   H33   S    
C37   H32   S    
C42   H38   S    
C5    C7    A    
C1    O1    A    
C6    C8    A    
C2    O2    A    
C33   C34   S    
Cu1   O5    S    
C42   H39   S    
C4    C22   A    
C27   H9    S    
Cu1   Cu2   S    
C36   H25   S    
C35   H26   S    
C2    C26   S    
C37   C38   S    
C9    C11   A    
C43   H47   S    
C10   C12   A    
C20   H1    S    
C12   C14   A    
C44   H44   S    
C21   C23   A    
C22   C24   A    
C3    C21   A    
C8    C41   S    
Cu1   O4    S    
C3    C4    S    
C15   O7    A    
Cu2   O7    S    
C11   C31   S    
C6    H12   S    
C38   H30   S    
C15   C17   S    
C9    C43   S    
C16   O6    A    
C40   H34   S    
C19   H2    S    
C37   H31   S    
C41   H42   S    
C25   C27   A    
C44   H45   S    
C46   H48   S    
C26   C28   A    
C32   H15   S    
C33   H22   S    
C10   C45   S    
C42   H40   S    
C45   H52   S    
C11   C13   A    
C41   C42   S    
C23   H7    S    
C31   H17   S    
C28   C30   A    
C24   H8    S    
C32   H14   S    
C35   H27   S    
C18   C20   D    
C23   C25   A    
Cu1   O8    S    
C35   C36   S    
C16   O8    A    
Cu2   O3    S    
C34   H18   S    
C21   H5    S    
C16   C18   S    
C44   H43   S    
C36   H24   S    
C8    N2    A    
C13   C14   S    
C1    O3    A    
C4    C30   A    
