data_mof_unit_56422.cif
_audit_creation_date              2012-12-10T19:44:27-0500
_audit_creation_method            fapswitch 2.2
_symmetry_space_group_name_H-M    P1
_symmetry_Int_Tables_number       1
_space_group_crystal_system       triclinic
_cell_length_a                    10.761573
_cell_length_b                    12.378416
_cell_length_c                    13.095927
_cell_angle_alpha                 116.842367
_cell_angle_beta                  76.580649
_cell_angle_gamma                 101.054308
_cell_volume                      1506.44079262

loop_
_atom_site_label
_atom_site_type_symbol
_atom_type_description
_atom_site_fract_x
_atom_site_fract_y
_atom_site_fract_z
_atom_type_partial_charge
C1    C     C_R   0.520048 0.854882 0.285336 0.744206
C2    C     C_R   0.625613 0.861888 0.817277 -0.118034
C3    C     C_R   0.037916 0.960315 0.571094 -0.239718
C4    C     C_R   0.129471 0.996723 0.494439 -0.061367
C5    C     C_R   0.091908 0.034287 0.420040 0.017810
C6    C     C_R   0.962135 0.037727 0.426757 -0.245298
C7    C     C_R   0.870715 0.001671 0.503624 -0.066545
C8    C     C_R   0.908256 0.963283 0.577309 -0.000015
C9    C     C_R   0.196970 0.183756 0.338243 -0.095016
C10   C     C_R   0.288624 0.215383 0.258632 -0.138597
C11   C     C_R   0.367301 0.129332 0.171430 -0.118633
C12   C     C_R   0.736954 0.000828 0.501748 0.770666
C13   C     C_R   0.354193 0.011349 0.163440 -0.119964
C14   C     C_R   0.263248 0.979566 0.243367 -0.117192
C15   C     C_R   0.184827 0.066035 0.332147 0.120526
C16   C     C_R   0.302056 0.292702 0.016636 -0.203718
C17   C     C_R   0.451646 0.228046 0.836367 -0.050146
C18   C     C_R   0.651985 0.802624 0.085272 0.082509
C19   C     C_R   0.684615 0.714434 0.971846 -0.163476
C20   C     C_R   0.623098 0.597729 0.934492 -0.239442
C21   C     C_R   0.523316 0.563206 0.008288 0.086208
C22   C     C_R   0.477190 0.654325 0.118164 0.059792
C23   C     C_R   0.480182 0.144810 0.713903 0.811339
C24   C     C_R   0.466983 0.440939 0.975618 0.093197
C25   C     C_R   0.358885 0.413071 0.048572 0.162032
C26   C     C_R   0.306377 0.506093 0.150580 -0.245905
C27   C     C_R   0.363048 0.625044 0.183887 -0.190145
C28   C     C_R   0.514662 0.345148 0.871988 -0.227980
C29   C     C_R   0.347756 0.200479 0.910361 -0.202916
C30   C     C_R   0.546117 0.772256 0.159981 -0.153970
C31   C     C_R   0.712546 0.349170 0.332880 -0.308885
C32   C     C_R   0.338518 0.770264 0.658125 0.084831
C33   C     C_R   0.324585 0.692025 0.710329 -0.280177
C34   C     C_R   0.263156 0.998580 0.497405 0.815578
C35   C     C_R   0.395617 0.592239 0.658387 -0.121632
C36   C     C_R   0.473580 0.563072 0.548389 0.005788
C37   C     C_R   0.497391 0.654720 0.506800 0.290958
C38   C     C_R   0.538031 0.453379 0.483769 -0.108906
C39   C     C_R   0.641151 0.449844 0.392903 0.128893
C40   C     C_R   0.672042 0.546468 0.361501 -0.271905
C41   C     C_R   0.599765 0.645120 0.415141 -0.170970
C42   C     C_R   0.501893 0.344263 0.499985 0.508711
C43   C     C_R   0.678959 0.249281 0.358933 -0.010424
C44   C     C_R   0.646516 0.982940 0.832931 -0.122441
C45   C     C_R   0.740729 0.016894 0.756326 -0.108596
C46   C     C_R   0.814811 0.929574 0.663498 0.123239
C47   C     C_R   0.794805 0.808525 0.649494 -0.140966
C48   C     C_R   0.700027 0.774884 0.725923 -0.148544
Cu1   Cu    Cu3+1 0.529370 0.098270 0.475420 0.982097
Cu2   Cu    Cu3+1 0.470630 0.901730 0.524580 0.929795
H1    H     H_    0.551824 0.835510 0.875945 0.133534
H2    H     H_    0.438357 0.154084 0.110077 0.130740
H3    H     H_    0.415074 0.944742 0.095802 0.119112
H4    H     H_    0.254721 0.888143 0.236874 0.091814
H5    H     H_    0.297549 0.109842 0.883252 0.140543
H6    H     H_    0.220764 0.486933 0.204883 0.140032
H7    H     H_    0.219082 0.270891 0.071692 0.135857
H8    H     H_    0.598758 0.358821 0.814234 0.135786
H9    H     H_    0.655712 0.537165 0.845843 0.137878
H10   H     H_    0.761278 0.732764 0.910412 0.142280
H11   H     H_    0.588859 0.050215 0.903688 0.120878
H12   H     H_    0.314891 0.693920 0.261322 0.162724
H13   H     H_    0.735975 0.173127 0.315066 0.142072
H14   H     H_    0.751384 0.544594 0.292537 0.152067
H15   H     H_    0.794150 0.347831 0.265981 0.143324
H16   H     H_    0.286930 0.850339 0.700834 0.120560
H17   H     H_    0.395197 0.545129 0.710285 0.196668
H18   H     H_    0.263215 0.711719 0.793596 0.146101
H19   H     H_    0.630898 0.714307 0.384927 0.201233
H20   H     H_    0.754604 0.110558 0.768070 0.101852
H21   H     H_    0.850243 0.739877 0.577819 0.130478
H22   H     H_    0.683504 0.681087 0.713712 0.132408
H23   H     H_    0.067655 0.933102 0.629075 0.147863
H24   H     H_    0.932042 0.064831 0.368920 0.138254
H25   H     H_    0.137432 0.251587 0.406064 0.146255
H26   H     H_    0.299108 0.306828 0.264944 0.136372
N1    N     N_R   0.573890 0.246290 0.438210 -0.192940
N2    N     N_R   0.426890 0.754320 0.561170 -0.202545
O1    O     O_R   0.536940 0.972510 0.318130 -0.583130
O2    O     O_R   0.487330 0.806530 0.359650 -0.595836
O3    O     O_R   0.705160 0.082990 0.479250 -0.594792
O4    O     O_R   0.655550 0.917010 0.520760 -0.583975
O5    O     O_R   0.512670 0.193470 0.640350 -0.535433
O6    O     O_R   0.463060 0.027490 0.681870 -0.591825
O7    O     O_R   0.344450 0.082990 0.479240 -0.498206
O8    O     O_R   0.294840 0.917010 0.520750 -0.607780
C49   C     C_3   0.731182 0.926759 0.127513 -0.382934
C50   C     C_3   0.853625 0.941743 0.044477 -0.380218
C51   C     C_3   0.928613 0.066197 0.098860 -0.867052
H27   H     H_    0.869664 0.139422 0.117491 0.247725
H28   H     H_    0.956823 0.079341 0.180383 0.248834
H29   H     H_    0.017150 0.072754 0.037510 0.245959
H30   H     H_    0.917118 0.870598 0.022574 0.224054
H31   H     H_    0.827726 0.933076 0.963574 0.233629
H32   H     H_    0.668576 0.996988 0.145060 0.211827
H33   H     H_    0.761798 0.944126 0.209507 0.199799
Cl1   Cl    Cl    0.354902 0.325734 0.586707 -0.648499

loop_
_geom_bond_atom_site_label_1
_geom_bond_atom_site_label_2
_ccdc_geom_bond_type
C49   C50   S    
C17   C29   A    
C35   C36   A    
C43   H13   S    
C7    C8    A    
C45   C46   A    
C26   C27   A    
C17   C23   S    
C31   C43   A    
C32   H16   S    
C36   C37   A    
C38   C42   A    
C38   C39   A    
C18   C19   A    
C34   O8    A    
Cu1   O3    S    
C11   H2    S    
C46   C47   A    
C10   H26   S    
C19   C20   A    
C2    C44   A    
C49   H32   S    
C18   C30   A    
C51   H28   S    
C9    C10   A    
C21   C22   A    
C48   H22   S    
Cu2   N2    S    
C25   C26   A    
C6    H24   S    
C13   H3    S    
C7    C12   S    
C50   H31   S    
C23   O6    A    
Cu2   O6    S    
Cu1   O7    S    
C24   C25   A    
C3    C8    A    
C2    H1    S    
C42   Cl1   S    
C39   C40   A    
C29   H5    S    
C2    C48   A    
C16   C29   A    
Cu1   O1    S    
Cu2   O2    S    
C51   H29   S    
C34   O7    A    
C27   H12   S    
C47   C48   A    
C35   H17   S    
C49   H33   S    
C12   O4    A    
C50   C51   S    
C20   H9    S    
C47   H21   S    
C23   O5    A    
C40   C41   A    
C14   H4    S    
C22   C27   A    
C1    O1    A    
C3    C4    A    
C44   C45   A    
Cu2   O4    S    
C41   H19   S    
C16   C25   A    
C31   H15   S    
C50   H30   S    
C22   C30   A    
C45   H20   S    
C17   C28   A    
C24   C28   A    
C4    C5    A    
C26   H6    S    
C6    C7    A    
C28   H8    S    
C44   H11   S    
C43   N1    A    
C37   N2    A    
C18   C49   S    
C40   H14   S    
C32   C33   A    
Cu1   O5    S    
C36   C38   A    
C9    C15   A    
C11   C13   A    
C5    C6    A    
C1    C30   S    
C33   C35   A    
Cu1   N1    S    
C12   O3    A    
C16   H7    S    
C4    C34   S    
C37   C41   A    
C3    H23   S    
C8    C46   S    
C5    C15   S    
C10   C11   A    
Cu2   O8    S    
C32   N2    A    
C20   C21   A    
C42   N1    A    
Cu1   Cu2   S    
C21   C24   A    
C31   C39   A    
C1    O2    A    
C14   C15   A    
C19   H10   S    
C9    H25   S    
C51   H27   S    
C13   C14   A    
C33   H18   S    
