data_mof_unit_51170.cif
_audit_creation_date              2012-12-10T17:05:23-0500
_audit_creation_method            fapswitch 2.2
_symmetry_space_group_name_H-M    P1
_symmetry_Int_Tables_number       1
_space_group_crystal_system       triclinic
_cell_length_a                    10.09977
_cell_length_b                    10.679288
_cell_length_c                    15.408475
_cell_angle_alpha                 91.164964
_cell_angle_beta                  68.180099
_cell_angle_gamma                 90.709648
_cell_volume                      1542.52673854

loop_
_atom_site_label
_atom_site_type_symbol
_atom_type_description
_atom_site_fract_x
_atom_site_fract_y
_atom_site_fract_z
_atom_type_partial_charge
C1    C     C_R   0.500885 0.737170 0.500479 0.819364
C2    C     C_R   0.748965 0.504520 0.022879 -0.206346
C3    C     C_R   0.605753 0.473763 0.077646 -0.145120
C4    C     C_R   0.410839 0.498426 0.675637 0.928789
C5    C     C_R   0.843736 0.534660 0.069114 0.446303
C6    C     C_R   0.794980 0.531476 0.167345 0.283637
C7    C     C_R   0.553095 0.502065 0.173450 0.428257
C8    C     C_2   0.629329 0.064390 0.458712 0.315832
C9    C     C_2   0.521269 0.134258 0.455896 0.250765
C10   C     C_2   0.620764 0.929473 0.444500 0.360553
C11   C     C_2   0.504634 0.870548 0.503830 0.245715
C12   C     C_R   0.431126 0.457013 0.907041 -0.114758
C13   C     C_2   0.109611 0.439289 0.438242 0.608430
C14   C     C_2   0.954428 0.423043 0.449164 0.535035
C15   C     C_R   0.505102 0.263198 0.489509 0.853320
C16   C     C_R   0.589867 0.505595 0.323657 0.914184
C17   C     C_R   0.358261 0.475676 0.775401 -0.076253
C18   C     C_R   0.647624 0.514158 0.220570 -0.380159
C19   C     C_R   0.217811 0.348927 0.905877 -0.052647
C20   C     C_R   0.246886 0.390800 0.815612 -0.328153
C21   C     C_R   0.439446 0.519780 0.825555 0.395448
C22   C     C_3   0.004315 0.694391 0.020127 0.122963
C23   C     C_R   0.311141 0.379218 0.952005 0.015147
C24   C     C_3   0.161106 0.725370 0.965634 -0.318450
C25   C     C_3   0.190142 0.865688 0.968242 -0.933737
C26   C     C_3   0.797083 0.921768 0.294403 0.078618
C27   C     C_3   0.705414 0.903392 0.234852 -0.420414
C28   C     C_3   0.766453 0.975689 0.143977 -0.919942
C29   C     C_3   0.366133 0.637687 0.199381 0.080832
C30   C     C_3   0.337144 0.727803 0.282808 -0.313161
C31   C     C_3   0.290044 0.855875 0.263167 -0.893499
C32   C     C_R   0.540566 0.466510 0.942818 -0.097697
C33   C     C_R   0.512052 0.430153 0.034695 -0.045221
C34   C     C_R   0.392510 0.350759 0.080255 0.369686
C35   C     C_R   0.290635 0.327470 0.039185 0.411301
C36   C     C_R   0.681561 0.500782 0.887073 -0.151367
C37   C     C_R   0.787342 0.511340 0.924677 0.455615
H1    H     H_    0.128087 0.286151 0.936445 0.197321
H2    H     H_    0.304558 0.884844 0.927240 0.279580
H3    H     H_    0.165048 0.898821 0.041432 0.265000
H4    H     H_    0.800735 0.044458 0.485762 0.361739
H5    H     H_    0.361014 0.146026 0.413309 0.378317
H6    H     H_    0.902181 0.877293 0.256356 0.165687
H7    H     H_    0.820745 0.022562 0.301714 0.172054
H8    H     H_    0.700377 0.802119 0.218288 0.201883
H9    H     H_    0.595145 0.936500 0.274180 0.263479
H10   H     H_    0.763713 0.077959 0.159249 0.280677
H11   H     H_    0.701529 0.955918 0.100771 0.263028
H12   H     H_    0.184432 0.354958 0.776542 0.193164
H13   H     H_    0.878203 0.947340 0.103614 0.259141
H14   H     H_    0.323672 0.875144 0.610242 0.345323
H15   H     H_    0.173252 0.352098 0.318073 0.379541
H16   H     H_    0.095228 0.549379 0.623861 0.389230
H17   H     H_    0.841907 0.345129 0.385564 0.382664
H18   H     H_    0.808336 0.658509 0.552196 0.396565
H19   H     H_    0.265764 0.623939 0.186388 0.178130
H20   H     H_    0.444506 0.681129 0.135098 0.109515
H21   H     H_    0.252275 0.688071 0.345253 0.254208
H22   H     H_    0.435469 0.739502 0.298420 0.205767
H23   H     H_    0.713798 0.510662 0.812267 0.229224
H24   H     H_    0.375058 0.898838 0.202402 0.263392
H25   H     H_    0.269130 0.918507 0.325200 0.303687
H26   H     H_    0.190695 0.846852 0.248382 0.258026
H27   H     H_    0.855202 0.619388 0.256285 0.349042
H28   H     H_    0.985460 0.476172 0.879906 0.366142
H29   H     H_    0.529971 0.670696 0.848967 0.336296
H30   H     H_    0.476966 0.271984 0.160005 0.349000
H31   H     H_    0.165468 0.229639 0.144719 0.386709
H32   H     H_    0.974998 0.731799 0.092796 0.147268
H33   H     H_    0.938096 0.740975 0.986350 0.151488
H34   H     H_    0.228515 0.674964 0.996360 0.223290
H35   H     H_    0.190621 0.693582 0.891744 0.248249
H36   H     H_    0.124605 0.918214 0.937330 0.274468
N1    N     N_2   0.148330 0.498670 0.499030 0.027948
N2    N     N_2   0.852680 0.498640 0.499000 0.021164
O1    O     O_R   0.386950 0.680940 0.500010 -0.635721
O2    O     O_3   0.985578 0.563122 0.019550 -0.606260
O3    O     O_3   0.736405 0.113546 0.485062 -0.727432
O4    O     O_3   0.425977 0.081229 0.419552 -0.790528
O5    O     O_3   0.734620 0.861410 0.381456 -0.668514
O6    O     O_3   0.395237 0.935885 0.571367 -0.757020
O7    O     O_3   0.215403 0.384577 0.362717 -0.711543
O8    O     O_3   0.047913 0.507207 0.585470 -0.665468
O9    O     O_3   0.924744 0.323062 0.401222 -0.780717
O10   O     O_3   0.896426 0.612812 0.515428 -0.670398
O11   O     O_3   0.407791 0.519386 0.220632 -0.547010
O12   O     O_R   0.613110 0.680900 0.499990 -0.593407
O13   O     O_3   0.893521 0.552151 0.208449 -0.718579
O14   O     O_3   0.923819 0.534667 0.863703 -0.751637
O15   O     O_3   0.522414 0.625613 0.794085 -0.777614
O16   O     O_3   0.380542 0.284317 0.158927 -0.744217
O17   O     O_R   0.322330 0.500030 0.632270 -0.639538
O18   O     O_R   0.548480 0.499990 0.632240 -0.563733
O19   O     O_R   0.386890 0.319100 0.500010 -0.600791
O20   O     O_R   0.613050 0.319060 0.499990 -0.581140
O21   O     O_R   0.451520 0.500010 0.367760 -0.521211
O22   O     O_R   0.677670 0.499970 0.367730 -0.634694
O23   O     O_3   0.172475 0.251819 0.081101 -0.762717
Zn1   Zn    Zn3+2 0.349000 0.500030 0.500020 1.029850
Zn2   Zn    Zn3+2 0.651000 0.499970 0.499980 1.039762

loop_
_geom_bond_atom_site_label_1
_geom_bond_atom_site_label_2
_ccdc_geom_bond_type
C1    O12   A    
C28   H10   S    
C31   H24   S    
C19   C20   A    
C1    C11   S    
C14   O9    S    
N1    O8    S    
C15   O19   A    
H17   O9    S    
C26   H7    S    
H29   O15   S    
C11   O6    S    
O1    Zn1   S    
H28   O14   S    
C12   C23   A    
C26   C27   S    
C29   C30   S    
C32   C36   A    
C36   C37   A    
C3    C7    A    
C25   H3    S    
C15   O20   A    
C30   C31   S    
C16   O22   A    
C7    O11   S    
C3    C33   A    
O21   Zn1   S    
C17   C20   A    
C6    O13   S    
C34   C35   A    
C9    O4    S    
C34   O16   S    
C28   H13   S    
N2    O10   S    
C8    C9    D    
C35   O23   S    
H14   O6    S    
C22   H32   S    
C27   H8    S    
H5    O4    S    
C13   C14   S    
C12   C32   A    
C8    O3    S    
C31   H25   S    
C26   H6    S    
C21   O15   S    
C6    C18   A    
C16   O21   A    
C31   H26   S    
C24   C25   S    
H4    O3    S    
C10   O5    S    
O20   Zn2   S    
C13   O7    S    
C26   O5    S    
H18   O10   S    
C19   C23   A    
C20   H12   S    
C19   H1    S    
C7    C18   A    
C30   H22   S    
H30   O16   S    
C33   C34   A    
H15   O7    S    
O18   Zn2   S    
C29   O11   S    
C4    C17   S    
C27   H9    S    
C8    C10   S    
C29   H20   S    
C23   C35   A    
C22   C24   S    
C2    C5    A    
C5    O2    S    
O22   Zn2   S    
C24   H35   S    
O12   Zn2   S    
C28   H11   S    
C1    O1    A    
C22   O2    S    
C36   H23   S    
N1    Zn1   S    
C29   H19   S    
C37   O14   S    
H16   O8    S    
C32   C33   A    
C2    C3    A    
C9    C15   S    
C14   N2    D    
C2    C37   A    
C5    C6    A    
O19   Zn1   S    
C30   H21   S    
N2    Zn2   S    
C22   H33   S    
C25   H36   S    
H31   O23   S    
C10   C11   D    
C4    O18   A    
C12   C21   A    
C13   N1    D    
O17   Zn1   S    
C16   C18   S    
C27   C28   S    
H27   O13   S    
C25   H2    S    
C24   H34   S    
C4    O17   A    
C17   C21   A    
