data_mof_unit_29381.cif
_audit_creation_date              2012-12-10T17:36:44-0500
_audit_creation_method            fapswitch 2.2
_symmetry_space_group_name_H-M    P1
_symmetry_Int_Tables_number       1
_space_group_crystal_system       triclinic
_cell_length_a                    12.0509
_cell_length_b                    12.867631
_cell_length_c                    15.71145
_cell_angle_alpha                 90.981779
_cell_angle_beta                  86.11529
_cell_angle_gamma                 92.761152
_cell_volume                      2427.66520361

loop_
_atom_site_label
_atom_site_type_symbol
_atom_type_description
_atom_site_fract_x
_atom_site_fract_y
_atom_site_fract_z
_atom_type_partial_charge
C1    C     C_R   0.521901 0.700329 0.498398 0.916177
C2    C     C_R   0.555634 0.026271 0.500889 -0.058193
C3    C     C_R   0.958786 0.410580 0.413013 0.122161
C4    C     C_R   0.041860 0.591913 0.585203 0.127314
C5    C     C_R   0.841781 0.420150 0.420407 0.269674
C6    C     C_R   0.158310 0.581109 0.578706 0.312069
C7    C     C_R   0.856325 0.537482 0.537726 -0.074192
C8    C     C_R   0.143434 0.462023 0.462768 -0.062940
C9    C     C_R   0.974148 0.533141 0.530964 -0.083173
C10   C     C_R   0.025756 0.468008 0.468478 -0.032384
C11   C     C_R   0.500208 0.500416 0.661948 0.882562
C12   C     C_R   0.478485 0.299806 0.504428 0.918235
C13   C     C_R   0.499871 0.500289 0.337955 0.896802
C14   C     C_3   0.537774 0.599310 0.027705 -0.320942
C15   C     C_3   0.465876 0.408805 0.971506 -0.320079
C16   C     C_3   0.604368 0.525145 0.968077 0.585992
C17   C     C_3   0.399098 0.482920 0.030869 0.588801
C18   C     C_1   0.501189 0.501823 0.750724 -0.200871
C19   C     C_1   0.499389 0.501776 0.248990 -0.198385
C20   C     C_3   0.434117 0.577857 0.975238 -0.331947
C21   C     C_3   0.569546 0.430256 0.023864 -0.328792
C22   C     C_3   0.502555 0.504047 0.916689 0.082336
C23   C     C_R   0.648647 0.969929 0.472938 0.393075
C24   C     C_3   0.500698 0.503915 0.082652 0.078124
C25   C     C_1   0.502454 0.503141 0.825917 -0.013025
C26   C     C_1   0.499332 0.502959 0.173647 -0.008809
C27   C     C_R   0.467271 0.189236 0.517499 -0.259595
C28   C     C_R   0.536718 0.811781 0.499412 -0.237190
C29   C     C_3   0.789802 0.561277 0.988744 0.096933
C30   C     C_3   0.902469 0.591530 0.944158 -0.835027
C31   C     C_3   0.214968 0.451051 0.004663 0.107037
C32   C     C_3   0.101244 0.415079 0.043974 -0.856407
C33   C     C_3   0.298675 0.240274 0.669728 0.142926
C34   C     C_R   0.366905 0.033265 0.569740 0.422058
C35   C     C_3   0.205582 0.312317 0.695938 -0.784006
C36   C     C_3   0.723802 0.789986 0.350719 0.161989
C37   C     C_3   0.812345 0.715091 0.319931 -0.809195
C38   C     C_3   0.817504 0.030862 0.512611 0.098764
C39   C     C_3   0.918005 0.102090 0.486653 -0.780686
C40   C     C_3   0.293948 0.955627 0.692551 0.096315
C41   C     C_3   0.185787 0.951059 0.748401 -0.821454
C42   C     C_3   0.200435 0.608572 0.729129 -0.786226
C43   C     C_3   0.792807 0.399605 0.271112 -0.787173
C44   C     C_3   0.069126 0.383968 0.278084 -0.765506
C45   C     C_R   0.638086 0.861902 0.469361 0.352286
C46   C     C_3   0.980053 0.765566 0.612877 -0.764031
C47   C     C_R   0.371986 0.141140 0.560138 0.382416
C48   C     C_R   0.447512 0.868370 0.532157 -0.306988
C49   C     C_R   0.559262 0.132348 0.491820 -0.289623
C50   C     C_R   0.456493 0.975549 0.535377 -0.077764
H1    H     H_    0.568028 0.676033 0.052633 0.151184
H2    H     H_    0.767252 0.624574 0.035019 0.132288
H3    H     H_    0.897251 0.664862 0.908669 0.259696
H4    H     H_    0.965686 0.603543 0.992057 0.207665
H5    H     H_    0.928871 0.528992 0.898661 0.253646
H6    H     H_    0.240546 0.392909 0.954645 0.129196
H7    H     H_    0.206744 0.527689 0.974479 0.137491
H8    H     H_    0.071017 0.473040 0.092252 0.255913
H9    H     H_    0.041000 0.406623 0.993595 0.210520
H10   H     H_    0.106671 0.338535 0.074629 0.259494
H11   H     H_    0.379312 0.286230 0.670562 0.112372
H12   H     H_    0.435676 0.332050 0.946578 0.149684
H13   H     H_    0.297433 0.178089 0.717867 0.123129
H14   H     H_    0.124084 0.267935 0.699210 0.242844
H15   H     H_    0.219417 0.347695 0.759560 0.185046
H16   H     H_    0.203930 0.375282 0.648785 0.275919
H17   H     H_    0.740483 0.864813 0.316591 0.159692
H18   H     H_    0.641332 0.755105 0.334209 0.110844
H19   H     H_    0.796796 0.639422 0.352565 0.275353
H20   H     H_    0.809915 0.701811 0.250038 0.188835
H21   H     H_    0.896179 0.747864 0.334027 0.254180
H22   H     H_    0.847400 0.953717 0.529225 0.177479
H23   H     H_    0.625203 0.371327 0.045769 0.152254
H24   H     H_    0.773820 0.066053 0.570207 0.125950
H25   H     H_    0.890357 0.180899 0.473290 0.240272
H26   H     H_    0.975296 0.108239 0.539178 0.231025
H27   H     H_    0.963279 0.070545 0.428675 0.264037
H28   H     H_    0.354109 0.010344 0.723521 0.097900
H29   H     H_    0.328158 0.876988 0.691019 0.145870
H30   H     H_    0.126425 0.892016 0.722595 0.265594
H31   H     H_    0.202416 0.929179 0.814245 0.200509
H32   H     H_    0.148005 0.028178 0.750466 0.256124
H33   H     H_    0.301480 0.663174 0.622956 0.261065
H34   H     H_    0.378941 0.637066 0.953122 0.149564
H35   H     H_    0.276181 0.579123 0.754911 0.237329
H36   H     H_    0.132188 0.547735 0.738501 0.235583
H37   H     H_    0.176935 0.679410 0.766025 0.247193
H38   H     H_    0.700309 0.334361 0.377677 0.268937
H39   H     H_    0.712745 0.421377 0.247489 0.245085
H40   H     H_    0.823207 0.333835 0.230884 0.235468
H41   H     H_    0.852861 0.467653 0.263394 0.244246
H42   H     H_    0.960649 0.272676 0.339546 0.251449
H43   H     H_    0.024507 0.364132 0.220163 0.234125
H44   H     H_    0.152493 0.350631 0.270347 0.259613
H45   H     H_    0.633350 0.170699 0.461537 0.224868
H46   H     H_    0.079995 0.470122 0.283467 0.247908
H47   H     H_    0.928445 0.634417 0.684172 0.225938
H48   H     H_    0.948331 0.817524 0.665207 0.226799
H49   H     H_    0.918773 0.760529 0.563031 0.254224
H50   H     H_    0.060580 0.799977 0.585163 0.271253
H51   H     H_    0.369791 0.828485 0.553546 0.209645
H52   H     H_    0.184922 0.411100 0.416888 0.190730
H53   H     H_    0.814299 0.586662 0.584683 0.163590
H54   H     H_    0.797821 0.487828 0.023767 0.137254
N1    N     N_R   0.207800 0.519340 0.515560 -0.160006
N2    N     N_R   0.792200 0.480660 0.484440 -0.139048
N3    N     N_2   0.222547 0.634974 0.639955 -0.281715
N4    N     N_2   0.777059 0.366886 0.359205 -0.300487
N5    N     N_2   0.007839 0.339369 0.352385 -0.311389
N6    N     N_2   0.995550 0.663625 0.646318 -0.298664
O1    O     O_R   0.421700 0.658830 0.504150 -0.654171
O2    O     O_3   0.291483 0.459899 0.068959 -0.603439
O3    O     O_3   0.281096 0.197509 0.587974 -0.563568
O4    O     O_3   0.728403 0.806035 0.439569 -0.595435
O5    O     O_3   0.747740 0.020340 0.443959 -0.615614
O6    O     O_3   0.271828 0.985590 0.609187 -0.589714
O7    O     O_R   0.578300 0.341170 0.495850 -0.658196
O8    O     O_R   0.609310 0.646410 0.494170 -0.567728
O9    O     O_R   0.390690 0.353590 0.505830 -0.570731
O10   O     O_R   0.406210 0.506220 0.628210 -0.629767
O11   O     O_R   0.593790 0.493780 0.371790 -0.622781
O12   O     O_R   0.593830 0.493800 0.618230 -0.609360
O13   O     O_R   0.406170 0.506200 0.381770 -0.607198
O14   O     O_3   0.710434 0.547434 0.927087 -0.605344
Zn1   Zn    Zn3+2 0.374730 0.508290 0.506660 0.945931
Zn2   Zn    Zn3+2 0.625270 0.491710 0.493340 0.945109

loop_
_geom_bond_atom_site_label_1
_geom_bond_atom_site_label_2
_ccdc_geom_bond_type
C46   H49   S    
C11   C18   S    
C16   C21   S    
C23   C45   A    
C37   H19   S    
C32   H8    S    
C36   O4    S    
C8    N1    A    
C41   H30   S    
C36   H17   S    
C37   H21   S    
C30   H4    S    
C43   H39   S    
C39   H27   S    
C36   C37   S    
C24   C26   S    
C38   C39   S    
C13   O13   A    
H42   N5    S    
O13   Zn1   S    
C35   H15   S    
C34   O6    S    
C29   O14   S    
C21   H23   S    
C17   C20   S    
C15   C17   S    
C14   C24   S    
C19   C26   T    
C4    N6    S    
C44   H43   S    
C2    C50   A    
C45   O4    S    
C15   H12   S    
C15   C22   S    
C14   H1    S    
C22   C25   S    
O1    Zn1   S    
C1    C28   S    
C6    N3    S    
C35   H14   S    
C42   H36   S    
C39   H25   S    
C31   H6    S    
C42   N3    S    
C43   N4    S    
C44   N5    S    
C48   C50   A    
C46   H48   S    
C7    H53   S    
C37   H20   S    
C18   C25   T    
C11   O10   A    
C9    C10   A    
C5    N2    A    
C30   H3    S    
C38   H22   S    
C28   C45   A    
C34   C50   A    
C17   C24   S    
C13   C19   S    
C12   C27   S    
C43   H40   S    
C14   C20   S    
C40   H29   S    
C4    C6    A    
O10   Zn1   S    
C35   H16   S    
C43   H41   S    
C29   H54   S    
O12   Zn2   S    
C29   C30   S    
C44   H46   S    
C2    C49   A    
C12   O9    A    
C13   O11   A    
C31   C32   S    
C33   H13   S    
C41   H31   S    
C7    N2    A    
C42   H35   S    
C39   H26   S    
C49   H45   S    
O9    Zn1   S    
C33   H11   S    
C40   C41   S    
C20   C22   S    
C20   H34   S    
C14   C16   S    
C11   O12   A    
C32   H10   S    
C17   O2    S    
C38   H24   S    
C27   C47   A    
C47   O3    S    
C46   H50   S    
C28   C48   A    
C16   C22   S    
C3    C5    A    
C31   O2    S    
C36   H18   S    
C42   H37   S    
C38   O5    S    
C30   H5    S    
N2    Zn2   S    
C33   O3    S    
N1    Zn1   S    
C31   H7    S    
C46   N6    S    
C16   O14   S    
C41   H32   S    
O11   Zn2   S    
C3    C10   A    
C1    O1    A    
H47   N6    S    
C40   O6    S    
C3    N5    S    
H38   N4    S    
C48   H51   S    
C33   C35   S    
C6    N1    A    
H33   N3    S    
C40   H28   S    
C1    O8    A    
C44   H44   S    
C23   O5    S    
C12   O7    A    
C7    C9    A    
C15   C21   S    
C8    C10   A    
C21   C24   S    
C2    C23   A    
O7    Zn2   S    
C34   C47   A    
O8    Zn2   S    
C32   H9    S    
C4    C9    A    
C8    H52   S    
C29   H2    S    
C27   C49   A    
C5    N4    S    
