data_mof_unit_38865.cif
_audit_creation_date              2012-12-11T14:15:20-0500
_audit_creation_method            fapswitch 2.2
_symmetry_space_group_name_H-M    P1
_symmetry_Int_Tables_number       1
_space_group_crystal_system       triclinic
_cell_length_a                    11.132264
_cell_length_b                    12.697974
_cell_length_c                    23.554962
_cell_angle_alpha                 90.893182
_cell_angle_beta                  96.855284
_cell_angle_gamma                 68.506003
_cell_volume                      3074.52820548

loop_
_atom_site_label
_atom_site_type_symbol
_atom_type_description
_atom_site_fract_x
_atom_site_fract_y
_atom_site_fract_z
_atom_type_partial_charge
C1    C     C_R   0.149466 0.616403 0.428715 0.541573
C2    C     C_2   0.178458 0.235031 0.226200 -0.119932
C3    C     C_2   0.154580 0.166486 0.262364 -0.126162
C4    C     C_R   0.758407 0.599256 0.402237 0.543329
C5    C     C_1   0.131795 0.199859 0.320179 -0.051230
C6    C     C_1   0.208905 0.199111 0.169465 -0.040929
C7    C     C_1   0.115783 0.232576 0.368088 -0.009491
C8    C     C_1   0.167126 0.750324 0.123676 -0.003880
C9    C     C_2   0.141388 0.688976 0.227562 -0.120325
C10   C     C_2   0.235528 0.675724 0.271279 -0.127306
C11   C     C_1   0.216820 0.651676 0.328790 -0.042526
C12   C     C_R   0.777432 0.517378 0.307683 -0.142983
C13   C     C_1   0.154580 0.721156 0.170579 -0.044789
C14   C     C_1   0.193408 0.634012 0.375806 0.001631
C15   C     C_1   0.578357 0.774532 0.855975 0.003913
C16   C     C_R   0.101149 0.282248 0.423257 0.551346
C17   C     C_2   0.658628 0.733180 0.753973 -0.117728
C18   C     C_2   0.582232 0.711838 0.710678 -0.123837
C19   C     C_1   0.631721 0.676521 0.657036 -0.043734
C20   C     C_1   0.615776 0.757202 0.809596 -0.046738
C21   C     C_1   0.680308 0.644293 0.613880 0.002988
C22   C     C_R   0.192069 0.188027 0.857029 0.051366
C23   C     C_R   0.710042 0.721038 0.315370 -0.124438
C24   C     C_R   0.083798 0.289394 0.648833 0.019692
C25   C     C_R   0.010056 0.189409 0.714587 -0.150894
C26   C     C_R   0.009320 0.225117 0.659483 -0.129604
C27   C     C_R   0.153434 0.323075 0.693571 -0.130722
C28   C     C_R   0.150959 0.617825 0.590493 0.543820
C29   C     C_R   0.155803 0.286896 0.749079 0.033166
C30   C     C_R   0.086608 0.216469 0.759819 0.053499
C31   C     C_R   0.102925 0.168541 0.814660 0.084626
C32   C     C_R   0.250646 0.265601 0.847107 -0.156542
C33   C     C_R   0.231836 0.315478 0.793419 -0.141627
C34   C     C_R   0.710814 0.731125 0.256603 0.000887
C35   C     C_R   0.129271 0.749065 0.851023 0.013366
C36   C     C_R   0.195482 0.642629 0.648327 0.004199
C37   C     C_R   0.311325 0.567910 0.741316 -0.173094
C38   C     C_R   0.298010 0.559799 0.682001 -0.198676
C39   C     C_R   0.114828 0.739868 0.674212 0.269573
C40   C     C_R   0.748473 0.603005 0.565435 0.541065
C41   C     C_R   0.114521 0.737712 0.733038 0.057991
C42   C     C_R   0.216112 0.653505 0.767137 -0.001262
C43   C     C_R   0.222933 0.659579 0.826369 -0.126068
C44   C     C_R   0.018689 0.821398 0.816941 -0.152935
C45   C     C_R   0.742133 0.633253 0.222925 0.044123
C46   C     C_R   0.013004 0.817803 0.758130 -0.141531
C47   C     C_R   0.265624 0.110362 0.069436 0.540509
C48   C     C_R   0.602041 0.774419 0.080597 0.580774
C49   C     C_R   0.189564 0.788015 0.069872 0.545971
C50   C     C_R   0.240507 0.115426 0.908050 0.562037
C51   C     C_R   0.529073 0.792131 0.910175 0.555459
C52   C     C_R   0.083424 0.327536 0.591472 0.553790
C53   C     C_R   0.163836 0.786160 0.907164 0.545315
C54   C     C_R   0.674196 0.755144 0.137851 0.025349
C55   C     C_R   0.738454 0.614624 0.340557 0.017218
C56   C     C_R   0.724176 0.645090 0.163009 0.270822
C57   C     C_R   0.783441 0.526366 0.249846 -0.140335
C58   C     C_3   0.660494 0.498580 0.128868 -0.082199
C59   C     C_3   0.088908 0.905527 0.630627 -0.116104
C60   C     C_R   0.661214 0.849672 0.171855 -0.182067
C61   C     C_R   0.678684 0.837740 0.230977 -0.158743
C62   C     C_1   0.235071 0.163620 0.122866 -0.000063
Cr1   Cr    Cr6+3 0.189770 0.415650 0.511620 1.023716
Cr2   Cr    Cr6+3 0.930400 0.667320 0.496770 1.047607
Cr3   Cr    Cr6+3 0.879870 0.417010 0.491650 1.019184
Cr4   Cr    Cr6+3 0.149500 0.973980 0.985330 1.043264
Cr5   Cr    Cr6+3 0.457000 0.976510 0.994660 1.024538
Cr6   Cr    Cr6+3 0.411170 0.724270 0.995270 1.013482
H1    H     H_    0.051300 0.679236 0.234724 0.147430
H2    H     H_    0.624469 0.934519 0.153017 0.149466
H3    H     H_    0.943339 0.888832 0.835357 0.146629
H4    H     H_    0.391115 0.503851 0.766980 0.118417
H5    H     H_    0.931036 0.879977 0.732585 0.157174
H6    H     H_    0.363427 0.486308 0.662810 0.140247
H7    H     H_    0.819374 0.449159 0.226735 0.145579
H8    H     H_    0.658963 0.912693 0.256464 0.125478
H9    H     H_    0.809652 0.433307 0.327177 0.145115
H10   H     H_    0.687275 0.795393 0.341456 0.118017
H11   H     H_    0.155657 0.083778 0.249214 0.138499
H12   H     H_    0.485212 0.715547 0.716172 0.138114
H13   H     H_    0.178281 0.317402 0.239518 0.141340
H14   H     H_    0.325193 0.686485 0.264403 0.134802
H15   H     H_    0.574605 0.546269 0.151302 0.108749
H16   H     H_    0.708313 0.412027 0.148284 0.107046
H17   H     H_    0.623997 0.488119 0.084033 0.160145
H18   H     H_    0.939486 0.133643 0.818082 0.222155
H19   H     H_    0.070100 0.022867 0.799399 0.224986
H20   H     H_    0.170614 0.863971 0.604992 0.123272
H21   H     H_    0.124500 0.937623 0.670929 0.108924
H22   H     H_    0.018001 0.979651 0.605116 0.143103
H23   H     H_    0.756286 0.727803 0.748519 0.144710
H24   H     H_    0.317110 0.282612 0.880158 0.130540
H25   H     H_    0.953930 0.137588 0.720725 0.108186
H26   H     H_    0.283090 0.370684 0.785806 0.116041
H27   H     H_    0.952371 0.200229 0.625122 0.133646
H28   H     H_    0.207660 0.375397 0.684859 0.115716
H29   H     H_    0.306606 0.600925 0.852742 0.125762
N1    N     N_3   0.040254 0.091673 0.826191 -0.599376
O1    O     O_R   0.196340 0.303200 0.448500 -0.497413
O2    O     O_R   0.555390 0.700940 0.062700 -0.490096
O3    O     O_R   0.295020 0.731920 0.049950 -0.505804
O4    O     O_R   0.199310 0.519670 0.454880 -0.493558
O5    O     O_R   0.094290 0.884230 0.921550 -0.499385
O6    O     O_R   0.168980 0.069410 0.926940 -0.459068
O7    O     O_R   0.358400 0.089990 0.927950 -0.532591
O8    O     O_R   0.544850 0.873850 0.939920 -0.487383
O9    O     O_R   0.536020 0.701900 0.936430 -0.505446
O10   O     O_R   0.277070 0.732810 0.932890 -0.519900
O11   O     O_3   0.339220 0.891590 0.991750 -0.265731
O12   O     O_R   0.811960 0.658090 0.547150 -0.485366
O13   O     O_R   0.045660 0.691380 0.441680 -0.509129
O14   O     O_R   0.811930 0.659460 0.430950 -0.500808
O15   O     O_R   0.757900 0.507620 0.421760 -0.518215
O16   O     O_R   0.988630 0.322990 0.439840 -0.498593
O17   O     O_R   0.196380 0.301720 0.573850 -0.506893
O18   O     O_R   0.199350 0.518300 0.571080 -0.529835
O19   O     O_R   0.045700 0.689900 0.567030 -0.448591
O20   O     O_3   0.753232 0.551083 0.128491 -0.559361
O21   O     O_3   0.025599 0.831627 0.642008 -0.554976
O22   O     O_R   0.757930 0.506140 0.547110 -0.514185
O23   O     O_R   0.988670 0.321620 0.556040 -0.506121
O24   O     O_3   0.000020 0.499990 0.500010 -0.271968
O25   O     O_R   0.113660 0.883270 0.047820 -0.503400
O26   O     O_R   0.186930 0.068530 0.043990 -0.494387
O27   O     O_R   0.377770 0.089040 0.054220 -0.516333
O28   O     O_R   0.562800 0.872960 0.056970 -0.508074

loop_
_geom_bond_atom_site_label_1
_geom_bond_atom_site_label_2
_ccdc_geom_bond_type
C24   C52   S    
C25   H25   S    
C8    C13   T    
C35   C53   S    
C41   C42   A    
C17   H23   S    
C24   C27   A    
C3    H11   S    
C33   H26   S    
C47   C62   S    
C39   C41   A    
C54   C60   A    
C50   O6    A    
C45   C57   A    
C37   C38   A    
C22   C32   A    
C19   C21   T    
C9    H1    S    
C28   O19   A    
Cr5   O27   S    
C49   O3    A    
C30   C31   A    
C11   C14   T    
Cr2   O24   S    
Cr2   O14   S    
C27   C29   A    
C49   O25   A    
C29   C33   A    
C58   O20   S    
C17   C20   S    
C44   H3    S    
C18   C19   S    
Cr3   O16   S    
C31   N1    S    
C37   C42   A    
C9    C13   S    
C59   H20   S    
Cr1   O1    S    
C28   O18   A    
Cr5   O11   S    
C59   H21   S    
C45   C56   A    
C50   O7    A    
C41   C46   A    
C25   C30   A    
Cr6   O9    S    
C15   C51   S    
C35   C43   A    
C9    C10   D    
C22   C50   S    
H19   N1    S    
Cr1   O17   S    
C4    O14   A    
Cr4   O11   S    
C27   H28   S    
C2    C6    S    
C56   O20   S    
Cr1   O4    S    
C44   C46   A    
C47   O27   A    
C61   H8    S    
C15   C20   T    
C48   O2    A    
C54   C56   A    
C22   C31   A    
Cr4   O6    S    
C4    O15   A    
Cr6   O3    S    
Cr5   O28   S    
C5    C7    T    
Cr5   O7    S    
Cr2   O13   S    
C40   O12   A    
C25   C26   A    
C10   H14   S    
C34   C61   A    
Cr2   O19   S    
C60   C61   A    
C59   H22   S    
C48   C54   S    
Cr6   O2    S    
C29   C30   A    
C58   H16   S    
C52   O23   A    
Cr2   O12   S    
C60   H2    S    
C23   C34   A    
C12   H9    S    
C17   C18   D    
Cr5   O8    S    
C34   C45   A    
Cr3   O24   S    
C35   C44   A    
C12   C57   A    
C18   H12   S    
C7    C16   S    
C40   O22   A    
Cr3   O23   S    
C4    C55   S    
Cr4   O26   S    
C42   C43   A    
Cr1   O18   S    
C58   H17   S    
Cr1   O24   S    
C38   H6    S    
C52   O17   A    
C26   H27   S    
C59   O21   S    
Cr3   O15   S    
Cr4   O5    S    
C36   C39   A    
C43   H29   S    
C24   C26   A    
C3    C5    S    
C16   O16   A    
C16   O1    A    
C23   C55   A    
C32   C33   A    
C6    C62   T    
C36   C38   A    
C2    C3    D    
C58   H15   S    
C1    O13   A    
C53   O10   A    
C57   H7    S    
C47   O26   A    
C32   H24   S    
C21   C40   S    
C53   O5    A    
C51   O8    A    
C39   O21   S    
C8    C49   S    
Cr3   O22   S    
Cr6   O11   S    
C23   H10   S    
H18   N1    S    
C12   C55   A    
C10   C11   S    
C48   O28   A    
C28   C36   S    
C51   O9    A    
C37   H4    S    
Cr4   O25   S    
C2    H13   S    
C1    C14   S    
Cr6   O10   S    
C1    O4    A    
C46   H5    S    
