data_mof_unit_68288.cif
_audit_creation_date              2012-12-10T20:45:31-0500
_audit_creation_method            fapswitch 2.2
_symmetry_space_group_name_H-M    P1
_symmetry_Int_Tables_number       1
_space_group_crystal_system       triclinic
_cell_length_a                    10.820603
_cell_length_b                    10.592932
_cell_length_c                    9.914571
_cell_angle_alpha                 88.500233
_cell_angle_beta                  91.683004
_cell_angle_gamma                 91.759713
_cell_volume                      1135.03787741

loop_
_atom_site_label
_atom_site_type_symbol
_atom_type_description
_atom_site_fract_x
_atom_site_fract_y
_atom_site_fract_z
_atom_type_partial_charge
C1    C     C_R   0.498154 0.260564 0.501457 0.863902
C2    C     C_R   0.188019 0.595214 0.986502 -0.321945
C3    C     C_R   0.930443 0.446369 0.385823 0.414762
C4    C     C_R   0.871808 0.473114 0.507087 -0.236101
C5    C     C_R   0.943819 0.494381 0.625906 -0.023564
C6    C     C_R   0.070080 0.492589 0.619084 -0.265440
C7    C     C_R   0.126628 0.491833 0.495022 -0.194713
C8    C     C_R   0.055464 0.476535 0.374827 0.036079
C9    C     C_R   0.920992 0.649954 0.812106 0.378267
C10   C     C_R   0.892456 0.671692 0.947583 0.409139
C11   C     C_R   0.838128 0.574570 0.025455 -0.164948
C12   C     C_R   0.259788 0.500219 0.497785 0.867954
C13   C     C_R   0.814196 0.455695 0.972022 -0.181864
C14   C     C_R   0.844151 0.432004 0.839839 -0.178112
C15   C     C_R   0.896149 0.528186 0.758203 0.040600
C16   C     C_R   0.608965 0.068619 0.508786 -0.099213
C17   C     C_R   0.496867 0.128681 0.502842 0.057434
C18   C     C_R   0.386701 0.062119 0.470861 -0.198397
C19   C     C_R   0.388002 0.931462 0.466162 -0.232122
C20   C     C_R   0.499756 0.871292 0.492305 -0.030147
C21   C     C_R   0.610830 0.940139 0.501971 -0.042228
C22   C     C_3   0.719930 0.930372 0.597579 0.853928
C23   C     C_R   0.500769 0.739427 0.498229 0.926274
C24   C     C_3   0.715678 0.076051 0.608052 0.068826
C25   C     C_R   0.461637 0.394953 0.072966 0.131421
C26   C     C_R   0.530057 0.608149 0.070393 0.478970
C27   C     C_R   0.526811 0.606990 0.924949 -0.295657
C28   C     C_R   0.461652 0.395171 0.930790 0.108489
C29   C     C_3   0.519136 0.269423 0.929831 -0.475894
C30   C     C_3   0.520472 0.269239 0.082970 0.185394
C31   C     C_R   0.739662 0.491603 0.502413 0.903557
C32   C     C_R   0.176273 0.683921 0.088556 0.626636
C33   C     C_R   0.133622 0.641582 0.214092 -0.258026
C34   C     C_R   0.103265 0.513451 0.239935 0.012836
C35   C     C_R   0.113819 0.425851 0.136885 0.574685
C36   C     C_R   0.156478 0.467882 0.010521 -0.357089
H1    H     H_    0.215445 0.624926 0.886425 0.179477
H2    H     H_    0.814854 0.591889 0.128596 0.225472
H3    H     H_    0.774782 0.380681 0.034045 0.185547
H4    H     H_    0.829249 0.337834 0.801507 0.159976
H5    H     H_    0.300425 0.110390 0.455006 0.133827
H6    H     H_    0.302417 0.877705 0.448628 0.136762
H7    H     H_    0.792391 0.137587 0.569710 0.085550
H8    H     H_    0.547454 0.690951 0.865205 0.195138
H9    H     H_    0.456065 0.196243 0.884391 0.236198
H10   H     H_    0.613119 0.276052 0.888588 0.215256
H11   H     H_    0.613707 0.271640 0.133262 0.119548
H12   H     H_    0.120732 0.710046 0.291475 0.148327
H13   H     H_    0.161078 0.402196 0.929200 0.170192
H14   H     H_    0.124057 0.503660 0.711689 0.189232
N1    N     N_R   0.499160 0.499140 0.142800 -0.162111
N2    N     N_R   0.499160 0.499180 0.857150 -0.107508
O1    O     O_R   0.500020 0.316790 0.614690 -0.592333
O2    O     O_R   0.500000 0.316760 0.385350 -0.616907
O3    O     O_R   0.316770 0.500030 0.614670 -0.627391
O4    O     O_R   0.316750 0.499990 0.385330 -0.636438
O5    O     O_R   0.500000 0.683240 0.614650 -0.599606
O6    O     O_R   0.499980 0.683210 0.385310 -0.554846
O7    O     O_R   0.683250 0.500010 0.614670 -0.594693
O8    O     O_R   0.683230 0.499970 0.385330 -0.596418
Zn1   Zn    Zn3+2 0.500010 0.500020 0.653130 0.972244
Zn2   Zn    Zn3+2 0.499990 0.499980 0.346870 0.993790
O9    O     O_3   0.687399 0.865988 0.717330 -0.762120
H15   H     H_    0.760264 0.875067 0.779627 0.339975
O10   O     O_3   0.820542 0.871144 0.536708 -0.632490
C37   C     C_3   0.901725 0.952150 0.463046 0.017082
H16   H     H_    0.853124 0.026697 0.403220 0.118188
H17   H     H_    0.945365 0.894533 0.386548 0.192650
C38   C     C_3   0.005563 0.005946 0.555098 -0.856035
H18   H     H_    0.077713 0.934710 0.573304 0.264450
H19   H     H_    0.049064 0.091307 0.507061 0.213862
H20   H     H_    0.970016 0.032219 0.654076 0.258082
O11   O     O_3   0.677380 0.112718 0.734357 -0.755229
H21   H     H_    0.752439 0.111527 0.794253 0.318226
O12   O     O_3   0.562853 0.715332 0.143840 -0.582696
C39   C     C_3   0.618084 0.816209 0.068625 0.072539
H22   H     H_    0.547352 0.868635 0.008915 0.135273
H23   H     H_    0.687861 0.783245 0.000024 0.185310
C40   C     C_3   0.683864 0.907051 0.164559 -0.767501
H24   H     H_    0.753795 0.856206 0.227533 0.277691
H25   H     H_    0.730811 0.984703 0.106403 0.213635
H26   H     H_    0.615901 0.948161 0.230728 0.236844
O13   O     O_3   0.185097 0.813790 0.064855 -0.616784
C41   C     C_3   0.287058 0.852583 0.986303 0.089294
H27   H     H_    0.353229 0.777370 0.969306 0.124698
H28   H     H_    0.339121 0.927777 0.041624 0.178380
C42   C     C_3   0.242892 0.908923 0.851127 -0.822818
H29   H     H_    0.198947 0.834399 0.787943 0.276570
H30   H     H_    0.175342 0.983627 0.866889 0.260862
H31   H     H_    0.323019 0.951229 0.796747 0.227272
O14   O     O_3   0.440570 0.176385 0.137400 -0.784349
H32   H     H_    0.483009 0.095478 0.129929 0.336931
O15   O     O_3   0.068873 0.303240 0.154938 -0.598961
C43   C     C_3   0.168714 0.221096 0.162282 0.085430
H33   H     H_    0.233004 0.246111 0.248036 0.183996
H34   H     H_    0.219207 0.223718 0.066049 0.184641
C44   C     C_3   0.119399 0.086856 0.185937 -0.754328
H35   H     H_    0.067978 0.053383 0.094426 0.269891
H36   H     H_    0.197316 0.023643 0.210107 0.249372
H37   H     H_    0.055938 0.083609 0.271450 0.240856
O16   O     O_3   0.867192 0.396327 0.276166 -0.755827
H38   H     H_    0.805485 0.333220 0.310731 0.323212
O17   O     O_3   0.976417 0.747333 0.738267 -0.802861
H39   H     H_    0.982508 0.723819 0.643025 0.373428
O18   O     O_3   0.917319 0.785957 0.008405 -0.782832
H40   H     H_    0.952139 0.847800 0.942182 0.384216

loop_
_geom_bond_atom_site_label_1
_geom_bond_atom_site_label_2
_ccdc_geom_bond_type
O6    Zn2   S    
C23   O6    A    
C37   H17   S    
C42   H29   S    
C16   C21   A    
C38   H20   S    
C11   C13   A    
O11   H21   S    
C35   C36   A    
C39   C40   S    
C1    O2    A    
C44   H35   S    
C7    C8    A    
C25   C28   A    
C26   C27   A    
O15   C43   S    
O8    Zn2   S    
C28   C29   S    
C41   H28   S    
C18   C19   A    
N2    Zn1   S    
C5    C6    A    
C24   O11   S    
C37   C38   S    
C2    C32   A    
C34   C35   A    
C31   O7    A    
C38   H19   S    
C1    O1    A    
C22   O9    S    
O1    Zn1   S    
C27   H8    S    
C19   C20   A    
C16   C17   A    
C41   C42   S    
C9    C10   A    
C19   H6    S    
C3    O16   S    
C37   H16   S    
C16   C24   S    
C21   C22   S    
C38   H18   S    
N1    Zn2   S    
C44   H36   S    
C26   O12   S    
C35   O15   S    
C7    C12   S    
O7    Zn1   S    
C5    C15   S    
C12   O3    A    
O16   H38   S    
C30   H11   S    
C41   H27   S    
C3    C8    A    
C18   H5    S    
O14   H32   S    
C40   H25   S    
C30   O14   S    
O2    Zn2   S    
C43   C44   S    
C6    H14   S    
O9    H15   S    
C29   H9    S    
C31   O8    A    
C11   H2    S    
O12   C39   S    
C25   N1    A    
C22   O10   S    
C29   C30   S    
O13   C41   S    
C20   C23   S    
C9    O17   S    
C17   C18   A    
C8    C34   S    
C39   H22   S    
C43   H34   S    
C12   O4    A    
C42   H30   S    
C22   C24   S    
C3    C4    A    
C44   H37   S    
C27   N2    A    
C2    C36   A    
C25   C30   S    
C23   O5    A    
C32   O13   S    
C39   H23   S    
C4    C5    A    
C40   H26   S    
O5    Zn1   S    
C6    C7    A    
O18   H40   S    
C1    C17   S    
C29   H10   S    
C32   C33   A    
C9    C15   A    
C26   N1    A    
C28   N2    A    
C2    H1    S    
O3    Zn1   S    
C33   C34   A    
O4    Zn2   S    
C43   H33   S    
C24   H7    S    
C13   H3    S    
C4    C31   S    
C10   C11   A    
C14   H4    S    
C40   H24   S    
C20   C21   A    
O10   C37   S    
C42   H31   S    
O17   H39   S    
C33   H12   S    
C14   C15   A    
C10   O18   S    
C13   C14   A    
C36   H13   S    
