data_mof_unit_13265.cif
_audit_creation_date              2012-12-10T17:50:31-0500
_audit_creation_method            fapswitch 2.2
_symmetry_space_group_name_H-M    P1
_symmetry_Int_Tables_number       1
_space_group_crystal_system       triclinic
_cell_length_a                    15.681913
_cell_length_b                    10.603273
_cell_length_c                    10.026157
_cell_angle_alpha                 88.567878
_cell_angle_beta                  87.425158
_cell_angle_gamma                 94.465987
_cell_volume                      1659.72595647

loop_
_atom_site_label
_atom_site_type_symbol
_atom_type_description
_atom_site_fract_x
_atom_site_fract_y
_atom_site_fract_z
_atom_type_partial_charge
C1    C     C_R   0.512476 0.262850 0.501316 0.867302
C2    C     C_R   0.491670 0.041442 0.868902 -0.139564
C3    C     C_R   0.435735 0.934804 0.855809 -0.149193
C4    C     C_R   0.338200 0.495610 0.502666 0.909235
C5    C     C_R   0.422313 0.885595 0.729540 0.457178
C6    C     C_R   0.472299 0.938542 0.616863 -0.015407
C7    C     C_R   0.511559 0.060259 0.626892 -0.003438
C8    C     C_R   0.532066 0.131343 0.507275 -0.190520
C9    C     C_R   0.549661 0.069299 0.388285 0.362216
C10   C     C_R   0.527254 0.941221 0.384104 -0.279447
C11   C     C_R   0.489176 0.875072 0.497040 -0.117517
C12   C     C_3   0.082896 0.487122 0.503644 -0.329041
C13   C     C_R   0.381559 0.336196 0.149801 -0.140587
C14   C     C_R   0.323844 0.254809 0.085438 -0.219779
C15   C     C_R   0.324333 0.255260 0.947094 0.678439
C16   C     C_R   0.492943 0.739512 0.499147 1.026507
C17   C     C_R   0.382769 0.336936 0.872219 -0.202993
C18   C     C_R   0.441560 0.420935 0.933961 0.000974
C19   C     C_R   0.440785 0.421737 0.077421 0.122905
C20   C     C_R   0.562903 0.571216 0.064999 0.326695
C21   C     C_R   0.559328 0.576899 0.920419 0.315718
C22   C     C_R   0.661678 0.499549 0.497413 0.938582
C23   C     C_3   0.981802 0.593849 0.432398 0.609460
C24   C     C_3   0.964981 0.487805 0.621757 0.578577
C25   C     C_3   0.017559 0.383846 0.563960 0.584096
C26   C     C_1   0.248988 0.489674 0.508046 -0.048524
C27   C     C_1   0.750503 0.497565 0.491902 -0.016024
C28   C     C_3   0.031215 0.592496 0.562603 -0.386603
C29   C     C_3   0.916198 0.490938 0.492639 -0.360682
C30   C     C_3   0.034471 0.490190 0.373951 0.272414
C31   C     C_3   0.968481 0.387081 0.434518 0.165007
C32   C     C_1   0.173527 0.486740 0.508391 0.216357
C33   C     C_1   0.825691 0.494946 0.490342 0.262506
C34   C     C_R   0.527286 0.106844 0.755098 -0.074761
F1    F     F_    0.037626 0.276229 0.632661 -0.527265
F2    F     F_    0.268939 0.174379 0.884838 -0.585567
F3    F     F_    0.927261 0.485308 0.749233 -0.541058
F4    F     F_    0.961408 0.701193 0.363508 -0.559636
H1    H     H_    0.399881 0.893942 0.943363 0.188973
H2    H     H_    0.781581 0.749153 0.120197 0.404397
H3    H     H_    0.692974 0.787528 0.653085 0.386628
H4    H     H_    0.975261 0.088645 0.261573 0.407957
H5    H     H_    0.038009 0.500692 0.009124 0.416828
H6    H     H_    0.705669 0.003520 0.234462 0.384823
H7    H     H_    0.543484 0.892395 0.294085 0.234167
H8    H     H_    0.380055 0.326433 0.256075 0.212311
H9    H     H_    0.279309 0.189659 0.143532 0.214885
H10   H     H_    0.381814 0.331026 0.766018 0.216558
H11   H     H_    0.058126 0.676363 0.615258 0.250291
H12   H     H_    0.568192 0.192217 0.768162 0.194650
H13   H     H_    0.502528 0.078214 0.966560 0.220395
H14   H     H_    0.243840 0.765530 0.545992 0.391989
N1    N     N_R   0.499210 0.498800 0.142780 -0.167021
N2    N     N_R   0.499180 0.498720 0.857170 -0.172697
O1    O     O_R   0.500000 0.316780 0.614690 -0.675743
O2    O     O_2   0.254112 0.860300 0.774768 -0.214950
O3    O     O_3   0.306846 0.767859 0.551487 -0.611452
O4    O     O_2   0.639083 0.703508 0.266704 -0.325846
O5    O     O_2   0.710424 0.524177 0.172873 -0.210966
O6    O     O_3   0.731728 0.741590 0.062759 -0.395545
O7    O     O_2   0.634230 0.810638 0.896247 -0.241055
O8    O     O_2   0.723773 0.632412 0.849422 -0.180206
O9    O     O_3   0.642958 0.724794 0.667323 -0.543690
O10   O     O_2   0.860823 0.177061 0.446572 -0.238173
O11   O     O_2   0.880686 0.292518 0.230705 -0.161052
O12   O     O_R   0.499990 0.316750 0.385360 -0.589299
O13   O     O_3   0.003760 0.160506 0.308071 -0.441345
O14   O     O_2   0.144913 0.610696 0.192173 -0.239288
O15   O     O_2   0.130390 0.378586 0.189424 -0.250493
O16   O     O_3   0.006960 0.501401 0.097338 -0.407150
O17   O     O_2   0.556467 0.205105 0.158186 -0.302268
O18   O     O_2   0.676237 0.242452 0.303762 -0.234416
O19   O     O_3   0.666163 0.035768 0.169616 -0.458242
O20   O     O_R   0.376780 0.500000 0.614650 -0.581994
O21   O     O_R   0.376770 0.499980 0.385310 -0.640640
O22   O     O_R   0.500010 0.683250 0.614640 -0.549689
O23   O     O_R   0.500000 0.683220 0.385310 -0.590084
O24   O     O_R   0.623230 0.500020 0.614690 -0.566817
O25   O     O_R   0.623220 0.500000 0.385350 -0.509768
O26   O     O_2   0.329130 0.668027 0.788251 -0.275320
S1    S     S_3+6 0.325746 0.791627 0.713085 0.040230
S2    S     S_3+6 0.660370 0.635883 0.142281 0.140579
S3    S     S_3+6 0.638816 0.685399 0.830131 0.124446
S4    S     S_3+6 0.924563 0.251185 0.352726 0.170992
S5    S     S_3+6 0.083166 0.495152 0.209465 0.150980
S6    S     S_3+6 0.612928 0.143371 0.252970 0.081880
Zn1   Zn    Zn3+2 0.500010 0.500020 0.653130 1.049852
Zn2   Zn    Zn3+2 0.499990 0.499980 0.346870 1.084836

loop_
_geom_bond_atom_site_label_1
_geom_bond_atom_site_label_2
_ccdc_geom_bond_type
O24   Zn1   S    
C25   C31   S    
O8    S3    D    
C26   C32   T    
H2    O6    S    
C20   S2    S    
C1    C8    S    
O5    S2    D    
C7    C8    A    
N2    Zn1   S    
C27   C33   T    
C12   C28   S    
C23   C29   S    
C22   O25   A    
C16   O23   A    
O4    S2    D    
O12   Zn2   S    
C21   N2    A    
C29   C33   S    
C18   C19   A    
C11   C16   S    
C24   C29   S    
O10   S4    D    
C4    O21   A    
O6    S2    S    
C21   S3    S    
O23   Zn2   S    
C8    C9    A    
C17   H10   S    
O20   Zn1   S    
C9    C10   A    
C4    O20   A    
C19   N1    A    
C3    H1    S    
O13   S4    S    
C13   C14   A    
C12   C32   S    
O14   S5    D    
O25   Zn2   S    
C24   F3    S    
C34   H12   S    
C13   C19   A    
C23   C30   S    
O2    S1    D    
C24   C25   S    
C22   O24   A    
O7    S3    D    
C6    C11   A    
O26   S1    D    
O11   S4    D    
C31   S4    S    
O9    S3    S    
C1    O12   A    
C9    S6    S    
O17   S6    D    
C5    S1    S    
C28   H11   S    
C4    C26   S    
C30   C31   S    
C10   H7    S    
C17   C18   A    
C23   C28   S    
C30   S5    S    
O22   Zn1   S    
C6    C7    A    
C25   F1    S    
H5    O16   S    
C22   C27   S    
H4    O13   S    
C7    C34   A    
O3    S1    S    
H3    O9    S    
H14   O3    S    
C15   F2    S    
O15   S5    D    
C13   H8    S    
C15   C17   A    
C12   C30   S    
C16   O22   A    
C24   C28   S    
C20   N1    A    
C3    C5    A    
O18   S6    D    
C14   H9    S    
C23   F4    S    
C12   C25   S    
C10   C11   A    
C2    C3    A    
C1    O1    A    
C29   C31   S    
C2    C34   A    
C5    C6    A    
N1    Zn2   S    
O1    Zn1   S    
H6    O19   S    
O19   S6    S    
C2    H13   S    
C18   N2    A    
O21   Zn2   S    
C20   C21   A    
C14   C15   A    
O16   S5    S    
