data_mof_unit_24542.cif
_audit_creation_date              2012-12-11T15:50:46-0500
_audit_creation_method            fapswitch 2.2
_symmetry_space_group_name_H-M    P1
_symmetry_Int_Tables_number       1
_space_group_crystal_system       triclinic
_cell_length_a                    18.977667
_cell_length_b                    11.077012
_cell_length_c                    18.792589
_cell_angle_alpha                 90.186724
_cell_angle_beta                  91.562823
_cell_angle_gamma                 90.045389
_cell_volume                      3949.00797377

loop_
_atom_site_label
_atom_site_type_symbol
_atom_type_description
_atom_site_fract_x
_atom_site_fract_y
_atom_site_fract_z
_atom_type_partial_charge
Br1   Br    Br    0.087106 0.673342 0.063101 -0.496908
Br2   Br    Br    0.906517 0.690653 0.934222 -0.522926
Br3   Br    Br    0.587114 0.173373 0.063107 -0.496928
Br4   Br    Br    0.406510 0.190662 0.934225 -0.522939
C1    C     C_R   0.275135 0.038757 0.855649 0.553929
C2    C     C_R   0.763625 0.576406 0.929418 0.006649
C3    C     C_R   0.229363 0.548392 0.352652 0.544486
C4    C     C_R   0.466365 0.823103 0.645117 0.547918
C5    C     C_R   0.529562 0.823214 0.352421 0.546680
C6    C     C_R   0.966365 0.323103 0.645117 0.547920
C7    C     C_R   0.029562 0.323214 0.352421 0.546679
C8    C     C_R   0.261565 0.643334 0.641223 0.555259
C9    C     C_R   0.740103 0.638926 0.356917 0.552448
C10   C     C_R   0.761565 0.143334 0.641223 0.555254
C11   C     C_R   0.240103 0.138926 0.356917 0.552447
C12   C     C_3   0.452460 0.879121 0.029914 -0.118627
C13   C     C_R   0.735483 0.077516 0.071074 0.000755
C14   C     C_3   0.502719 0.937063 0.976640 -0.055898
C15   C     C_3   0.952463 0.379140 0.029915 -0.118605
C16   C     C_3   0.002728 0.437057 0.976639 -0.055892
C17   C     C_3   0.445116 0.767706 0.981608 -0.142620
C18   C     C_3   0.566575 0.875610 0.014324 -0.092369
C19   C     C_3   0.945102 0.267724 0.981613 -0.142591
C20   C     C_3   0.066576 0.375584 0.014323 -0.092385
C21   C     C_3   0.495278 0.826130 0.928976 0.060813
C22   C     C_3   0.515478 0.819701 0.066768 0.047469
C23   C     C_3   0.995271 0.326124 0.928978 0.060791
C24   C     C_R   0.263623 0.076403 0.929418 0.006649
C25   C     C_3   0.015473 0.319699 0.066770 0.047459
C26   C     C_2   0.116476 0.616483 0.906516 0.256064
C27   C     C_2   0.885384 0.626505 0.091759 0.268286
C28   C     C_2   0.616478 0.116493 0.906528 0.256079
C29   C     C_2   0.385385 0.126473 0.091762 0.268308
C30   C     C_2   0.410869 0.471551 0.087926 0.240809
C31   C     C_2   0.589741 0.457210 0.916422 0.233447
C32   C     C_2   0.910868 0.971486 0.087930 0.240755
C33   C     C_2   0.089756 0.957168 0.916411 0.233457
C34   C     C_R   0.298857 0.554631 0.038762 -0.086217
C35   C     C_R   0.701166 0.547918 0.962737 -0.086661
C36   C     C_R   0.798874 0.054666 0.038769 -0.086179
C37   C     C_R   0.201166 0.047904 0.962738 -0.086630
C38   C     C_R   0.305524 0.565535 0.966055 -0.085909
C39   C     C_R   0.695326 0.557520 0.035822 -0.056698
C40   C     C_R   0.805532 0.065541 0.966058 -0.085888
C41   C     C_R   0.724555 0.038504 0.144398 0.544864
C42   C     C_R   0.195326 0.057507 0.035824 -0.056697
C43   C     C_R   0.181416 0.607622 0.952302 -0.015902
C44   C     C_R   0.819051 0.610480 0.047503 -0.033238
C45   C     C_R   0.681423 0.107653 0.952309 -0.015913
C46   C     C_R   0.319051 0.110467 0.047506 -0.033234
C47   C     C_R   0.177220 0.618165 0.026815 0.064383
C48   C     C_R   0.821503 0.620331 0.972894 0.075068
C49   C     C_R   0.677233 0.118213 0.026822 0.064366
C50   C     C_R   0.321500 0.120328 0.972896 0.075057
C51   C     C_3   0.345577 0.447188 0.043405 -0.078637
C52   C     C_R   0.775135 0.538760 0.855648 0.553925
C53   C     C_3   0.657441 0.436475 0.957876 -0.089711
C54   C     C_3   0.845565 0.947173 0.043410 -0.078652
C55   C     C_3   0.157451 0.936451 0.957876 -0.089714
C56   C     C_3   0.354211 0.461371 0.963621 -0.189908
C57   C     C_3   0.651565 0.446145 0.038231 -0.185556
C58   C     C_3   0.854196 0.961343 0.963624 -0.189866
C59   C     C_3   0.151569 0.946126 0.038231 -0.185531
C60   C     C_R   0.247345 0.586233 0.921356 0.009048
C61   C     C_R   0.753780 0.584026 0.079411 0.002045
C62   C     C_R   0.747348 0.086247 0.921359 0.009038
C63   C     C_R   0.224554 0.538497 0.144401 0.544891
C64   C     C_R   0.253780 0.084016 0.079413 0.002044
C65   C     C_R   0.494784 0.829519 0.420726 0.021350
C66   C     C_R   0.481994 0.829487 0.569732 0.020701
C67   C     C_R   0.994784 0.329519 0.420726 0.021349
C68   C     C_R   0.981994 0.329487 0.569732 0.020701
C69   C     C_R   0.471316 0.821388 0.854667 0.573644
C70   C     C_R   0.532999 0.819651 0.142854 0.568439
C71   C     C_R   0.971313 0.321387 0.854668 0.573652
C72   C     C_R   0.032997 0.319651 0.142855 0.568446
C73   C     C_R   0.481836 0.722409 0.457735 0.028209
C74   C     C_3   0.558294 0.764039 0.965488 -0.124583
C75   C     C_R   0.476189 0.723094 0.530335 0.038693
C76   C     C_R   0.981836 0.222409 0.457735 0.028208
C77   C     C_R   0.976189 0.223094 0.530335 0.038693
C78   C     C_R   0.482669 0.939378 0.532196 -0.164553
C79   C     C_R   0.487925 0.939352 0.457662 -0.167849
C80   C     C_R   0.982669 0.439379 0.532196 -0.164553
C81   C     C_R   0.987925 0.439352 0.457662 -0.167849
C82   C     C_3   0.520538 0.604402 0.459902 -0.268187
C83   C     C_3   0.514795 0.606924 0.539939 -0.277291
C84   C     C_3   0.020538 0.104402 0.459902 -0.268188
C85   C     C_3   0.508389 0.706664 0.019311 -0.119601
C86   C     C_3   0.014795 0.106924 0.539939 -0.277291
C87   C     C_R   0.251907 0.605571 0.418397 0.022051
C88   C     C_R   0.747237 0.591320 0.578497 0.018560
C89   C     C_R   0.751907 0.105571 0.418397 0.022050
C90   C     C_R   0.247237 0.091320 0.578497 0.018560
C91   C     C_R   0.203916 0.678690 0.454283 0.024132
C92   C     C_R   0.783203 0.685892 0.546616 0.019096
C93   C     C_R   0.703916 0.178690 0.454283 0.024132
C94   C     C_R   0.283203 0.185892 0.546616 0.019096
C95   C     C_R   0.207090 0.685136 0.526783 0.032982
C96   C     C_3   0.058280 0.264011 0.965490 -0.124564
C97   C     C_R   0.783246 0.693525 0.474072 0.043201
C98   C     C_R   0.707090 0.185136 0.526783 0.032981
C99   C     C_R   0.283246 0.193525 0.474072 0.043199
C100  C     C_R   0.314980 0.571467 0.529614 -0.153706
C101  C     C_R   0.702388 0.526668 0.462406 -0.174230
C102  C     C_R   0.814980 0.071467 0.529614 -0.153704
C103  C     C_R   0.202388 0.026669 0.462406 -0.174229
C104  C     C_R   0.312432 0.565159 0.455355 -0.155593
C105  C     C_R   0.701288 0.519122 0.536251 -0.167387
C106  C     C_R   0.812432 0.065159 0.455355 -0.155593
C107  C     C_3   0.008368 0.206661 0.019317 -0.119550
C108  C     C_R   0.201288 0.019122 0.536251 -0.167387
C109  C     C_3   0.124555 0.678958 0.454495 -0.267485
C110  C     C_3   0.858421 0.727957 0.552914 -0.268118
C111  C     C_3   0.624555 0.178958 0.454495 -0.267483
C112  C     C_3   0.358421 0.227957 0.552914 -0.268118
C113  C     C_3   0.129225 0.685519 0.534545 -0.277302
C114  C     C_3   0.858382 0.732528 0.472639 -0.266216
C115  C     C_3   0.629225 0.185519 0.534545 -0.277302
C116  C     C_3   0.358382 0.232528 0.472639 -0.266215
C117  C     C_R   0.260022 0.634657 0.850589 0.578735
C118  C     C_R   0.235466 0.577464 0.071066 0.000774
C119  C     C_R   0.740294 0.633872 0.149734 0.577587
C120  C     C_R   0.760022 0.134658 0.850589 0.578736
C121  C     C_R   0.240294 0.133871 0.149734 0.577589
C122  C     C_R   0.258039 0.621923 0.565801 0.022120
C123  C     C_R   0.747256 0.609815 0.430939 0.025891
C124  C     C_R   0.758039 0.121923 0.565801 0.022120
C125  C     C_R   0.247256 0.109815 0.430939 0.025891
C126  C     C_R   0.270759 0.045881 0.646519 0.550542
C127  C     C_R   0.729364 0.048392 0.352652 0.544488
C128  C     C_R   0.770759 0.545881 0.646519 0.550540
Cr1   Cr    Cr6+3 0.229640 0.835880 0.747370 1.027799
Cr2   Cr    Cr6+3 0.614230 0.677220 0.250660 1.031127
Cr3   Cr    Cr6+3 0.885770 0.177220 0.749340 1.031896
Cr4   Cr    Cr6+3 0.114230 0.177220 0.250660 1.031091
Cr5   Cr    Cr6+3 0.770360 0.835880 0.252630 1.044624
Cr6   Cr    Cr6+3 0.729640 0.335880 0.747370 1.027831
Cr7   Cr    Cr6+3 0.270360 0.335880 0.252630 1.044688
Cr8   Cr    Cr6+3 0.387390 0.989720 0.750850 1.079997
Cr9   Cr    Cr6+3 0.612610 0.989720 0.249150 1.086345
Cr10  Cr    Cr6+3 0.887390 0.489720 0.750850 1.079990
Cr11  Cr    Cr6+3 0.112610 0.489720 0.249150 1.086332
Cr12  Cr    Cr6+3 0.385770 0.677220 0.749340 1.031899
H1    H     H_    0.393971 0.728941 0.965156 0.134422
H2    H     H_    0.981337 0.033384 0.560528 0.133303
H3    H     H_    0.575521 0.613126 0.442676 0.173833
H4    H     H_    0.481337 0.533384 0.560528 0.133304
H5    H     H_    0.489762 0.530103 0.434050 0.128285
H6    H     H_    0.566290 0.618933 0.568705 0.144644
H7    H     H_    0.989762 0.030103 0.434050 0.128279
H8    H     H_    0.066290 0.118933 0.568705 0.144643
H9    H     H_    0.359623 0.533594 0.558479 0.127803
H10   H     H_    0.669413 0.466861 0.430179 0.125990
H11   H     H_    0.859623 0.033594 0.558479 0.127803
H12   H     H_    0.618571 0.911836 0.030977 0.138508
H13   H     H_    0.169413 0.966861 0.430179 0.125989
H14   H     H_    0.353851 0.519283 0.427737 0.119757
H15   H     H_    0.670099 0.448807 0.559568 0.139931
H16   H     H_    0.853851 0.019283 0.427737 0.119754
H17   H     H_    0.170099 0.948807 0.559568 0.139930
H18   H     H_    0.101254 0.592583 0.435971 0.170886
H19   H     H_    0.896032 0.660188 0.574244 0.164114
H20   H     H_    0.601254 0.092583 0.435971 0.170886
H21   H     H_    0.396032 0.160188 0.574244 0.164114
H22   H     H_    0.101506 0.761335 0.429543 0.130972
H23   H     H_    0.893950 0.228985 0.965163 0.134426
H24   H     H_    0.863023 0.818296 0.578396 0.130785
H25   H     H_    0.601506 0.261335 0.429543 0.130976
H26   H     H_    0.363023 0.318296 0.578396 0.130787
H27   H     H_    0.108793 0.771491 0.556251 0.136028
H28   H     H_    0.864758 0.824546 0.451392 0.140971
H29   H     H_    0.608793 0.271491 0.556251 0.136029
H30   H     H_    0.364758 0.324546 0.451392 0.140972
H31   H     H_    0.109840 0.602688 0.560994 0.144457
H32   H     H_    0.892823 0.663353 0.448519 0.139517
H33   H     H_    0.609840 0.102688 0.560994 0.144456
H34   H     H_    0.118579 0.411786 0.030972 0.138492
H35   H     H_    0.392823 0.163353 0.448519 0.139519
H36   H     H_    0.404895 0.910926 0.056172 0.157531
H37   H     H_    0.503514 0.030219 0.958522 0.205555
H38   H     H_    0.904903 0.410962 0.056175 0.157556
H39   H     H_    0.003525 0.530211 0.958516 0.205566
H40   H     H_    0.601751 0.720756 0.936738 0.124308
H41   H     H_    0.511148 0.612021 0.037176 0.174165
H42   H     H_    0.101728 0.220704 0.936740 0.124341
H43   H     H_    0.011119 0.112022 0.037190 0.174263
H44   H     H_    0.817136 0.863700 0.058152 0.153888
H45   H     H_    0.481930 0.024362 0.560409 0.120788
H46   H     H_    0.187593 0.856614 0.940180 0.143627
H47   H     H_    0.317171 0.363695 0.058147 0.153954
H48   H     H_    0.687572 0.356628 0.940176 0.143670
H49   H     H_    0.407598 0.489324 0.947303 0.221987
H50   H     H_    0.597939 0.465080 0.057483 0.223895
H51   H     H_    0.907584 0.989268 0.947302 0.222077
H52   H     H_    0.097943 0.965059 0.057479 0.223953
H53   H     H_    0.328960 0.389029 0.931041 0.180041
H54   H     H_    0.680024 0.373343 0.067619 0.162450
H55   H     H_    0.828934 0.889008 0.931050 0.179989
H56   H     H_    0.491710 0.024255 0.429922 0.119280
H57   H     H_    0.180027 0.873325 0.067622 0.162428
H58   H     H_    0.076178 0.682411 0.917586 0.204921
H59   H     H_    0.928102 0.682176 0.074165 0.235347
H60   H     H_    0.576176 0.182415 0.917596 0.204968
H61   H     H_    0.428117 0.182122 0.074164 0.235330
H62   H     H_    0.413420 0.548716 0.123712 0.117716
H63   H     H_    0.589542 0.511651 0.868504 0.119824
H64   H     H_    0.913397 0.048530 0.123808 0.117742
H65   H     H_    0.089579 0.011502 0.868444 0.119809
H66   H     H_    0.981929 0.524362 0.560409 0.120788
H67   H     H_    0.991710 0.524255 0.429922 0.119278
H68   H     H_    0.075521 0.113126 0.442676 0.173834
O1    O     O_R   0.214300 0.709080 0.827500 -0.498933
O2    O     O_R   0.543340 0.717710 0.330180 -0.524684
O3    O     O_R   0.956660 0.217710 0.669820 -0.522037
O4    O     O_R   0.043340 0.217710 0.330180 -0.524693
O5    O     O_R   0.320590 0.625770 0.672930 -0.510479
O6    O     O_R   0.679410 0.625770 0.327070 -0.513316
O7    O     O_R   0.820590 0.125770 0.672930 -0.510483
O8    O     O_R   0.179410 0.125770 0.327070 -0.513319
O9    O     O_3   0.334270 0.834280 0.749190 -0.276473
O10   O     O_3   0.665730 0.834280 0.250810 -0.278894
O11   O     O_3   0.834270 0.334280 0.749190 -0.276479
O12   O     O_R   0.785700 0.709080 0.172500 -0.481954
O13   O     O_3   0.165730 0.334280 0.250810 -0.278900
O14   O     O_R   0.236190 0.958390 0.823150 -0.532386
O15   O     O_R   0.763810 0.958390 0.176850 -0.525819
O16   O     O_R   0.736190 0.458390 0.823150 -0.532356
O17   O     O_R   0.263810 0.458390 0.176850 -0.525785
O18   O     O_R   0.332090 0.075280 0.831290 -0.452150
O19   O     O_R   0.667910 0.075280 0.168710 -0.455926
O20   O     O_R   0.832090 0.575280 0.831290 -0.452159
O21   O     O_R   0.167910 0.575280 0.168710 -0.455945
O22   O     O_R   0.446280 0.918040 0.826620 -0.461400
O23   O     O_R   0.714300 0.209080 0.827500 -0.498917
O24   O     O_R   0.553720 0.918040 0.173380 -0.449685
O25   O     O_R   0.946280 0.418040 0.826620 -0.461402
O26   O     O_R   0.053720 0.418040 0.173380 -0.449675
O27   O     O_R   0.457080 0.716270 0.831760 -0.524969
O28   O     O_R   0.542920 0.716270 0.168240 -0.532019
O29   O     O_R   0.957080 0.216270 0.831760 -0.524947
O30   O     O_R   0.042920 0.216270 0.168240 -0.532037
O31   O     O_R   0.320980 0.624440 0.823040 -0.501894
O32   O     O_R   0.679020 0.624440 0.176960 -0.503413
O33   O     O_R   0.820980 0.124440 0.823040 -0.501900
O34   O     O_R   0.285700 0.209080 0.172500 -0.481925
O35   O     O_R   0.179020 0.124440 0.176960 -0.503424
O36   O     O_R   0.213880 0.710510 0.665560 -0.510319
O37   O     O_R   0.786120 0.710510 0.334440 -0.507736
O38   O     O_R   0.713880 0.210510 0.665560 -0.510320
O39   O     O_R   0.286120 0.210510 0.334440 -0.507731
O40   O     O_R   0.235800 0.959720 0.673040 -0.515731
O41   O     O_R   0.764200 0.959720 0.326960 -0.509969
O42   O     O_R   0.735800 0.459720 0.673040 -0.515728
O43   O     O_R   0.264200 0.459720 0.326960 -0.509964
O44   O     O_R   0.331670 0.076720 0.669350 -0.522861
O45   O     O_R   0.445900 0.919370 0.676500 -0.502958
O46   O     O_R   0.668330 0.076720 0.330650 -0.524041
O47   O     O_R   0.831670 0.576720 0.669350 -0.522864
O48   O     O_R   0.168330 0.576720 0.330650 -0.524048
O49   O     O_2   0.107630 0.549078 0.855458 -0.503182
O50   O     O_2   0.893948 0.573019 0.148126 -0.493412
O51   O     O_2   0.607632 0.049075 0.855474 -0.503189
O52   O     O_2   0.393939 0.072990 0.148133 -0.493405
O53   O     O_2   0.461200 0.403497 0.085341 -0.470154
O54   O     O_2   0.535157 0.409638 0.934585 -0.467978
O55   O     O_2   0.961222 0.903500 0.085258 -0.470158
O56   O     O_R   0.554100 0.919370 0.323500 -0.503366
O57   O     O_2   0.035152 0.909701 0.934620 -0.467926
O58   O     O_R   0.945900 0.419370 0.676500 -0.502956
O59   O     O_R   0.054100 0.419370 0.323500 -0.503367
O60   O     O_R   0.456660 0.717710 0.669820 -0.522034

loop_
_geom_bond_atom_site_label_1
_geom_bond_atom_site_label_2
_ccdc_geom_bond_type
C43   C60   A    
C54   C58   S    
Cr10  O25   S    
Cr4   O13   S    
Cr8   O18   S    
C12   C17   S    
C66   C78   A    
C13   C49   A    
C84   H7    S    
C103  C108  A    
Cr3   O33   S    
C30   O53   D    
C65   C73   A    
C15   C16   S    
C111  H25   S    
C82   H3    S    
C75   C83   S    
C3    O48   A    
C25   C72   S    
C18   H12   S    
Cr3   O7    S    
C30   H62   S    
C22   C85   S    
Cr6   O23   S    
C108  H17   S    
Cr5   O12   S    
C29   H61   S    
C46   C50   A    
C53   C57   S    
C33   O57   D    
C27   O50   D    
Cr11  O59   S    
C97   C114  S    
C126  O40   A    
C88   C128  S    
C116  H35   S    
C13   C41   S    
C58   H55   S    
C69   O27   A    
C98   C124  A    
C32   H64   S    
C80   H66   S    
C88   C105  A    
C8    C122  S    
Cr8   O45   S    
C90   C94   A    
C91   C95   A    
C12   H36   S    
C94   C99   A    
C35   C53   S    
Cr12  O31   S    
C102  C124  A    
C24   C37   A    
C88   C92   A    
C10   C124  S    
C1    O14   A    
C52   O20   A    
C72   O26   A    
C41   O15   A    
C110  H19   S    
C111  H20   S    
C20   C25   S    
C119  O32   A    
C17   C21   S    
C34   C118  A    
C22   C70   S    
C109  H18   S    
C67   C81   A    
C120  O23   A    
C40   C62   A    
Cr3   O3    S    
C34   C51   S    
C16   C20   S    
Cr2   O10   S    
C83   H6    S    
C11   C125  S    
C127  O46   A    
Cr1   O9    S    
C37   C42   A    
Cr8   O44   S    
C51   H47   S    
C19   C23   S    
C100  H9    S    
C93   C111  S    
C36   C40   A    
C27   H59   S    
C68   C77   A    
C103  C125  A    
C89   C106  A    
C7    O4    A    
C3    O43   A    
C113  H31   S    
Cr4   O4    S    
C101  H10   S    
C114  H32   S    
C30   C51   S    
C20   C96   S    
C92   C97   A    
Cr8   O22   S    
Cr11  O26   S    
C92   C110  S    
C121  O34   A    
C14   C21   S    
C85   H41   S    
C58   H51   S    
Cr11  O13   S    
Cr7   O43   S    
C23   C71   S    
C81   H67   S    
C15   H38   S    
C46   C64   A    
C67   C76   A    
C103  H13   S    
C6    C68   S    
C56   H49   S    
C21   C69   S    
C95   C122  A    
C73   C75   A    
C74   C85   S    
C12   C22   S    
C26   H58   S    
C5    O56   A    
C89   C127  S    
C23   C96   S    
C55   C59   S    
C36   C54   S    
C83   H4    S    
C101  C123  A    
C32   C54   S    
C54   H44   S    
C21   C74   S    
Cr9   O56   S    
C26   C43   S    
Cr1   O14   S    
C18   C74   S    
C53   H48   S    
C86   H8    S    
C45   C62   A    
C82   H5    S    
C38   C56   S    
C109  H22   S    
C52   O16   A    
C82   C83   S    
C35   C39   A    
C14   H37   S    
C40   C58   S    
C29   C46   S    
Cr2   O6    S    
C44   C61   A    
Cr5   O10   S    
C112  C116  S    
Cr12  O27   S    
C13   C36   A    
C117  O1    A    
C28   H60   S    
C28   O51   D    
C72   O30   A    
Cr10  O58   S    
C42   C64   A    
C65   C79   A    
C95   C113  S    
C1    C24   S    
Br1   C47   S    
C113  H27   S    
C89   C93   A    
C94   C112  S    
C29   O52   D    
C114  H28   S    
C39   C61   A    
Cr9   O46   S    
C33   H65   S    
C41   O19   A    
C7    O59   A    
Cr12  O9    S    
C112  H26   S    
Cr7   O17   S    
C12   C14   S    
C90   C126  S    
C80   C81   A    
C59   H52   S    
Cr6   O16   S    
C99   C125  A    
Cr1   O40   S    
Cr2   O32   S    
C69   O22   A    
C33   C55   S    
C18   C22   S    
Br2   C48   S    
C56   H53   S    
C16   H39   S    
C19   H23   S    
C128  O47   A    
C116  H30   S    
Cr10  O11   S    
C84   C86   S    
C73   C82   S    
C102  H11   S    
C111  C115  S    
C27   C44   S    
C79   H56   S    
C78   H45   S    
C84   H68   S    
C4    C66   S    
C9    O6    A    
C32   O55   D    
C62   C120  S    
C112  H21   S    
C121  O35   A    
C2    C35   A    
C63   O21   A    
C77   C86   S    
Cr5   O37   S    
C70   O24   A    
C105  H15   S    
C63   C118  S    
C38   C60   A    
C8    O5    A    
C100  C104  A    
C68   C80   A    
C106  H16   S    
C39   C57   S    
C102  C106  A    
C109  C113  S    
C31   H63   S    
C117  O31   A    
C101  C105  A    
C110  C114  S    
C24   C50   A    
C59   H57   S    
C74   H40   S    
Br4   C50   S    
C66   C75   A    
C4    O45   A    
Cr2   O28   S    
C87   C104  A    
C25   C107  S    
Cr7   O39   S    
Cr11  O48   S    
C17   C85   S    
C99   C116  S    
C5    C65   S    
C76   C77   A    
Cr6   O38   S    
C57   H54   S    
C43   C47   A    
C127  O41   A    
C110  H24   S    
Cr4   O8    S    
C16   C23   S    
C128  O42   A    
C5    O2    A    
Cr9   O19   S    
Cr3   O11   S    
C119  O12   A    
Cr9   O10   S    
C107  H43   S    
C9    O37   A    
Cr2   O2    S    
Cr4   O30   S    
C96   H42   S    
C31   C53   S    
C26   O49   D    
Cr1   O1    S    
Cr3   O29   S    
C14   C18   S    
Cr7   O13   S    
C19   C107  S    
Cr12  O5    S    
C76   C84   S    
C15   C25   S    
C8    O36   A    
C2    C52   S    
C3    C87   S    
C20   H34   S    
Br3   C49   S    
Cr11  O21   S    
C6    O3    A    
C120  O33   A    
C42   C59   S    
C11   O39   A    
Cr6   O11   S    
C91   C109  S    
Cr9   O24   S    
C45   C49   A    
C57   H50   S    
C90   C108  A    
C97   C123  A    
Cr5   O15   S    
C10   O38   A    
C64   C121  S    
C7    C67   S    
Cr10  O47   S    
C61   C119  S    
C31   O54   D    
C70   O28   A    
Cr10  O20   S    
Cr8   O9    S    
Cr5   O41   S    
C28   C45   S    
C100  C122  A    
C71   O25   A    
C51   C56   S    
Cr1   O36   S    
C87   C91   A    
C15   C19   S    
C9    C123  S    
C34   C38   A    
C71   O29   A    
C10   O7    A    
C44   C48   A    
C104  H14   S    
C63   O17   A    
C96   C107  S    
C86   H2    S    
C78   C79   A    
C6    O58   A    
C37   C55   S    
Cr4   O35   S    
C47   C118  A    
C1    O18   A    
C55   H46   S    
C115  H33   S    
C2    C48   A    
C11   O8    A    
Cr6   O42   S    
Cr7   O34   S    
C4    O60   A    
C93   C98   A    
C115  H29   S    
C98   C115  S    
C60   C117  S    
C17   H1    S    
Cr12  O60   S    
C126  O44   A    
