data_mof_unit_68026.cif
_audit_creation_date              2012-12-11T14:03:34-0500
_audit_creation_method            fapswitch 2.2
_symmetry_space_group_name_H-M    P1
_symmetry_Int_Tables_number       1
_space_group_crystal_system       triclinic
_cell_length_a                    7.023711
_cell_length_b                    11.812306
_cell_length_c                    19.003029
_cell_angle_alpha                 90.165997
_cell_angle_beta                  92.739824
_cell_angle_gamma                 89.257918
_cell_volume                      1574.67113762

loop_
_atom_site_label
_atom_site_type_symbol
_atom_type_description
_atom_site_fract_x
_atom_site_fract_y
_atom_site_fract_z
_atom_type_partial_charge
O1    O     O_R   0.330540 0.606360 0.598870 -0.543771
O2    O     O_R   0.669460 0.106360 0.401130 -0.550705
O3    O     O_R   0.026770 0.620470 0.750430 -0.549902
O4    O     O_R   0.973230 0.120470 0.249570 -0.566697
O5    O     O_R   0.856460 0.393640 0.750930 -0.534489
O6    O     O_R   0.143540 0.893640 0.249070 -0.541672
C1    C     C_R   0.198304 0.646541 0.774238 0.845687
C2    C     C_R   0.800558 0.141667 0.223164 0.820088
O7    O     O_R   0.000920 0.620350 0.599420 -0.556934
O8    O     O_R   0.999080 0.120350 0.400580 -0.555501
O9    O     O_R   0.830430 0.393520 0.598850 -0.549174
O10   O     O_R   0.169570 0.893520 0.401150 -0.554825
C3    C     C_R   0.165320 0.642483 0.572059 0.721911
C4    C     C_R   0.835502 0.134937 0.430993 0.719248
O11   O     O_R   0.356570 0.606480 0.750960 -0.553526
O12   O     O_R   0.643430 0.106480 0.249040 -0.537732
O13   O     O_3   0.176990 0.425580 0.674890 -0.376870
O14   O     O_3   0.823010 0.925580 0.325110 -0.383418
V1    V     V_3+5 0.902170 0.513810 0.674910 1.373215
V2    V     V_3+5 0.097830 0.013810 0.325090 1.356281
O15   O     O_R   0.500800 0.379530 0.599380 -0.550733
O16   O     O_R   0.499200 0.879530 0.400620 -0.552165
C5    C     C_R   0.669188 0.351189 0.575348 0.749117
C6    C     C_R   0.332020 0.851329 0.424651 0.752720
O17   O     O_R   0.526650 0.379650 0.750390 -0.545307
O18   O     O_R   0.473350 0.879650 0.249610 -0.543386
C7    C     C_R   0.699125 0.363100 0.778060 0.695245
C8    C     C_R   0.303234 0.854650 0.224947 0.702451
V3    V     V_3+5 0.402160 0.486190 0.674900 1.387337
V4    V     V_3+5 0.597840 0.986190 0.325100 1.389388
O19   O     O_3   0.677210 0.574420 0.674910 -0.397623
O20   O     O_3   0.322790 0.074420 0.325090 -0.389604
C9    C     C_R   0.761895 0.095599 0.879063 -0.096401
C10   C     C_R   0.301414 0.591885 0.114905 -0.101939
H1    H     H_    0.773653 0.960460 0.985993 0.117541
H2    H     H_    0.259532 0.461960 0.006965 0.116168
H3    H     H_    0.764481 0.005627 0.867256 0.127068
H4    H     H_    0.313793 0.501240 0.123989 0.127268
C11   C     C_R   0.722859 0.287936 0.838556 -0.040497
C12   C     C_R   0.294574 0.782104 0.161748 -0.038416
C13   C     C_R   0.799037 0.342598 0.184516 -0.007154
C14   C     C_R   0.263691 0.842674 0.813136 -0.046711
C15   C     C_R   0.850821 0.418878 0.132963 0.358573
C16   C     C_R   0.316992 0.920145 0.865988 0.357774
C17   C     C_R   0.872853 0.381276 0.065128 -0.236183
C18   C     C_R   0.341406 0.883444 0.934404 -0.215697
C19   C     C_R   0.804834 0.276330 0.040631 -0.047626
C20   C     C_R   0.273836 0.779330 0.957854 -0.050311
C21   C     C_R   0.781374 0.192240 0.093487 0.007400
C22   C     C_R   0.227847 0.696939 0.904127 0.015761
C23   C     C_R   0.778142 0.248824 0.966428 0.042552
C24   C     C_R   0.274578 0.749326 0.031869 0.036707
C25   C     C_R   0.772640 0.131881 0.948980 0.070414
C26   C     C_R   0.271927 0.631806 0.046798 0.068782
C27   C     C_R   0.775365 0.049082 0.001171 -0.279615
C28   C     C_R   0.251146 0.551185 0.993636 -0.285895
C29   C     C_R   0.768508 0.077118 0.072422 0.290767
C30   C     C_R   0.216394 0.581520 0.923626 0.292591
C31   C     C_R   0.746576 0.330154 0.909305 0.002829
C32   C     C_R   0.277239 0.827975 0.091547 0.010860
C33   C     C_R   0.739864 0.171861 0.823695 0.060392
C34   C     C_R   0.325576 0.664947 0.171545 0.049511
C35   C     C_R   0.783910 0.226110 0.166160 -0.145099
C36   C     C_R   0.218908 0.730492 0.831680 -0.154086
H5    H     H_    0.951991 0.435769 0.034205 0.151342
H6    H     H_    0.431450 0.936296 0.965890 0.151419
C37   C     C_2   0.839079 0.208316 0.496614 -0.088140
C38   C     C_2   0.162262 0.716388 0.506691 -0.103955
C39   C     C_2   0.679096 0.268318 0.514870 -0.389381
C40   C     C_2   0.323972 0.767529 0.484355 -0.400800
H7    H     H_    0.548825 0.259017 0.482492 0.148576
H8    H     H_    0.457895 0.748994 0.511902 0.152289
C41   C     C_3   0.729878 0.125824 0.748693 -0.343780
C42   C     C_3   0.919008 0.069392 0.730402 -0.331584
C43   C     C_3   0.899438 0.000660 0.662496 -0.816554
H9    H     H_    0.036808 0.988796 0.638405 0.220980
H10   H     H_    0.855104 0.914208 0.674878 0.240194
H11   H     H_    0.800974 0.042349 0.622959 0.236763
H12   H     H_    0.027524 0.136019 0.724683 0.200094
H13   H     H_    0.969544 0.011383 0.773261 0.189661
H14   H     H_    0.608856 0.067893 0.743439 0.199910
H15   H     H_    0.695966 0.190679 0.707883 0.159216
C44   C     C_3   0.412902 0.614585 0.238810 -0.400746
C45   C     C_3   0.268577 0.589017 0.294038 -0.260087
C46   C     C_3   0.337171 0.488399 0.339961 -0.809117
H16   H     H_    0.295426 0.407991 0.314587 0.232958
H17   H     H_    0.492638 0.482515 0.346325 0.234734
H18   H     H_    0.283471 0.495253 0.393711 0.221273
H19   H     H_    0.251462 0.665120 0.327506 0.171466
H20   H     H_    0.127490 0.568859 0.268439 0.231635
H21   H     H_    0.484830 0.534524 0.224775 0.172859
H22   H     H_    0.527957 0.669000 0.261409 0.173540
C47   C     C_3   0.741232 0.458107 0.925705 -0.417461
C48   C     C_3   0.675088 0.549290 0.872664 -0.300407
C49   C     C_3   0.690394 0.667013 0.906139 -0.771773
H23   H     H_    0.615071 0.670793 0.955982 0.241476
H24   H     H_    0.841529 0.688055 0.918468 0.231162
H25   H     H_    0.629946 0.731636 0.868931 0.218987
H26   H     H_    0.768023 0.551964 0.827598 0.231463
H27   H     H_    0.527416 0.532714 0.854499 0.239050
H28   H     H_    0.652608 0.471081 0.971984 0.206924
H29   H     H_    0.889181 0.481816 0.936244 0.215700
C50   C     C_3   0.281136 0.956589 0.078217 -0.432719
C51   C     C_3   0.234817 0.046363 0.132857 -0.272286
C52   C     C_3   0.244572 0.165411 0.101631 -0.769957
H30   H     H_    0.393182 0.185569 0.089852 0.232737
H31   H     H_    0.156486 0.172313 0.051846 0.237764
H32   H     H_    0.194638 0.228911 0.140011 0.224548
H33   H     H_    0.091070 0.030527 0.149982 0.246541
H34   H     H_    0.339897 0.045804 0.177879 0.232224
H35   H     H_    0.429207 0.975839 0.067629 0.214258
H36   H     H_    0.179470 0.975006 0.033085 0.210230
C53   C     C_3   0.765352 0.386157 0.258184 -0.438307
C54   C     C_3   0.902169 0.334667 0.313699 -0.244153
C55   C     C_3   0.925103 0.402806 0.380678 -0.845867
H37   H     H_    0.032869 0.361453 0.416855 0.230321
H38   H     H_    0.976306 0.487697 0.368630 0.252713
H39   H     H_    0.787155 0.408157 0.406583 0.241612
H40   H     H_    0.835914 0.257040 0.329112 0.212894
H41   H     H_    0.042264 0.316139 0.291925 0.209955
H42   H     H_    0.778198 0.479158 0.261888 0.199867
H43   H     H_    0.617619 0.363578 0.270002 0.169797
C56   C     C_3   0.296779 0.871761 0.737681 -0.377593
C57   C     C_3   0.500340 0.839390 0.718768 -0.270737
C58   C     C_3   0.518013 0.846850 0.639750 -0.768463
H44   H     H_    0.383153 0.821366 0.613289 0.233061
H45   H     H_    0.542330 0.934494 0.623820 0.224088
H46   H     H_    0.635922 0.791599 0.622355 0.221867
H47   H     H_    0.605361 0.892432 0.747626 0.187782
H48   H     H_    0.544142 0.754255 0.735963 0.226205
H49   H     H_    0.189001 0.828785 0.702669 0.159129
H50   H     H_    0.276518 0.962727 0.727398 0.176617
O21   O     O_3   0.893992 0.529704 0.148202 -0.652614
H51   H     H_    0.772887 0.566979 0.160579 0.273630
O22   O     O_3   0.368694 0.029595 0.852205 -0.655831
H52   H     H_    0.271110 0.063198 0.819152 0.274347
O23   O     O_3   0.753265 0.992009 0.121678 -0.663149
H53   H     H_    0.756853 0.916855 0.098309 0.284706
O24   O     O_3   0.183959 0.497580 0.873588 -0.660242
H54   H     H_    0.193886 0.421691 0.895795 0.284944
C59   C     C_3   0.023311 0.216358 0.543415 -0.325029
C60   C     C_3   0.184508 0.130338 0.530297 -0.292826
C61   C     C_3   0.335302 0.129121 0.591057 -0.823364
H55   H     H_    0.342008 0.211052 0.618836 0.264081
H56   H     H_    0.303316 0.066409 0.630952 0.218276
H57   H     H_    0.476459 0.106606 0.571157 0.217893
H58   H     H_    0.127196 0.043609 0.523048 0.193130
H59   H     H_    0.257152 0.155069 0.482181 0.216042
H60   H     H_    0.083734 0.302107 0.537612 0.192050
H61   H     H_    0.985207 0.206005 0.598996 0.211094
C62   C     C_3   0.979449 0.729845 0.461233 -0.304048
C63   C     C_3   0.821101 0.645658 0.471452 -0.322377
C64   C     C_3   0.684499 0.647015 0.406967 -0.823943
H62   H     H_    0.680779 0.729317 0.380753 0.271245
H63   H     H_    0.733004 0.591912 0.365025 0.218288
H64   H     H_    0.541878 0.622452 0.422482 0.245313
H65   H     H_    0.879300 0.558993 0.479894 0.210160
H66   H     H_    0.742368 0.670412 0.518290 0.209766
H67   H     H_    0.919642 0.816468 0.468828 0.190432
H68   H     H_    0.018401 0.718249 0.405640 0.198031

loop_
_geom_bond_atom_site_label_1
_geom_bond_atom_site_label_2
_ccdc_geom_bond_type
C30   O24   S    
C61   H57   S    
C51   H34   S    
C34   C44   S    
C47   C48   S    
C21   C35   A    
C56   H50   S    
C22   C36   A    
C41   C42   S    
C5    C39   S    
C49   H23   S    
O4    C2    A    
V1    O19   S    
C15   O21   S    
C54   C55   S    
C49   H25   S    
C6    C40   S    
C56   C57   S    
C19   C21   A    
C46   H16   S    
C44   H22   S    
C52   H31   S    
O9    V1    S    
C14   C16   A    
C12   C32   A    
C18   H6    S    
O3    C1    A    
C51   H33   S    
C8    C12   S    
O12   V4    S    
C55   H37   S    
C10   C34   A    
C12   C34   A    
C50   H35   S    
C17   C19   A    
C39   H7    S    
O7    C3    A    
C24   C32   A    
O5    C7    A    
O7    V1    S    
O6    C8    A    
C53   H43   S    
O8    V2    S    
C55   H38   S    
C14   C56   S    
C58   H46   S    
C4    C37   S    
O3    V1    S    
O14   V4    S    
C64   H63   S    
C32   C50   S    
C54   H40   S    
C24   C26   A    
C16   O22   S    
C25   C27   A    
O23   H53   S    
C2    O12   A    
C42   H13   S    
C9    C25   A    
C13   C15   A    
C45   H20   S    
C41   H14   S    
C51   C52   S    
C16   C18   A    
C59   H61   S    
O11   V3    S    
C23   C31   A    
C18   C20   A    
C46   H17   S    
O17   V3    S    
C11   C33   A    
C52   H32   S    
C63   H66   S    
C42   C43   S    
H1    C27   S    
C22   C30   A    
C60   H59   S    
O22   H52   S    
C45   C46   S    
O8    C4    A    
C47   H28   S    
C19   C23   A    
C1    O11   A    
C33   C41   S    
O15   V3    S    
C9    H3    S    
C50   H36   S    
C23   C25   A    
C62   H67   S    
C43   H9    S    
H2    C28   S    
C15   C17   A    
C44   C45   S    
C48   H27   S    
C62   C63   S    
C55   H39   S    
C11   C31   A    
O10   V2    S    
O1    V3    S    
C29   O23   S    
C64   H64   S    
C20   C22   A    
C43   H10   S    
C9    C33   A    
C10   C26   A    
C42   H12   S    
O15   C5    A    
C17   H5    S    
O21   H51   S    
O16   C6    A    
O1    C3    A    
C45   H19   S    
C13   C35   A    
C37   C59   S    
C14   C36   A    
C41   H15   S    
C44   H21   S    
C53   C54   S    
V2    O20   S    
C46   H18   S    
C61   H56   S    
C63   H65   S    
O16   V4    S    
C56   H49   S    
C10   H4    S    
C60   H58   S    
C13   C53   S    
C47   H29   S    
C21   C29   A    
O24   H54   S    
C49   H24   S    
C26   C28   A    
O18   V4    S    
O5    V1    S    
O17   C7    A    
O6    V2    S    
C52   H30   S    
O10   C6    A    
O18   C8    A    
O2    V4    S    
C62   H68   S    
C27   C29   A    
C59   H60   S    
V3    O19   S    
C38   C62   S    
C59   C60   S    
C57   H48   S    
V4    O20   S    
C58   H44   S    
C7    C11   S    
C48   H26   S    
O9    C5    A    
O13   V1    S    
C28   C30   A    
C57   H47   S    
O14   V2    S    
C48   C49   S    
O2    C4    A    
C43   H11   S    
C1    C36   S    
C2    C35   S    
O4    V2    S    
O13   V3    S    
C20   C24   A    
C53   H42   S    
C63   C64   S    
C38   C40   D    
C50   C51   S    
C58   H45   S    
C60   C61   S    
C40   H8    S    
C31   C47   S    
C37   C39   D    
C64   H62   S    
C54   H41   S    
C61   H55   S    
C57   C58   S    
C3    C38   S    
