data_mof_unit_28939.cif
_audit_creation_date              2013-03-05T16:30:55-0500
_audit_creation_method            fapswitch 2.2
_symmetry_space_group_name_H-M    P1
_symmetry_Int_Tables_number       1
_space_group_crystal_system       triclinic
_cell_length_a                    12.844034
_cell_length_b                    14.97101
_cell_length_c                    14.269738
_cell_angle_alpha                 91.312732
_cell_angle_beta                  98.456871
_cell_angle_gamma                 90.585648
_cell_volume                      2713.09822639

loop_
_atom_site_label
_atom_site_type_symbol
_atom_site_description
_atom_site_fract_x
_atom_site_fract_y
_atom_site_fract_z
_atom_type_partial_charge
O1    O     O_R   0.500010 0.369070 0.579480 -0.622978
O2    O     O_R   0.499990 0.630930 0.420520 -0.612620
O3    O     O_R   0.500010 0.369060 0.420520 -0.615483
O4    O     O_R   0.499990 0.630940 0.579480 -0.650414
C1    C     C_R   0.499517 0.328353 0.498860 0.869995
C2    C     C_R   0.497279 0.672326 0.500706 0.864553
O5    O     O_R   0.346360 0.499990 0.566340 -0.598817
O6    O     O_R   0.653640 0.500010 0.433660 -0.616909
O7    O     O_R   0.346360 0.499980 0.407390 -0.624971
O8    O     O_R   0.653640 0.500020 0.592610 -0.637163
C3    C     C_R   0.298132 0.497320 0.480502 0.854291
C4    C     C_R   0.701433 0.504594 0.519636 0.893031
Zn1   Zn    Zn3+2 0.500000 0.500010 0.606140 0.921922
Zn2   Zn    Zn3+2 0.500000 0.499990 0.393860 0.930907
C5    C     C_R   0.813626 0.503371 0.533552 -0.072460
C6    C     C_R   0.185275 0.498937 0.467367 -0.088212
C7    C     C_R   0.033758 0.588015 0.418097 -0.214088
C8    C     C_R   0.961781 0.410369 0.576354 -0.231357
C9    C     C_R   0.137311 0.567838 0.413849 -0.272241
C10   C     C_R   0.860344 0.432779 0.584124 -0.262706
C11   C     C_R   0.128107 0.442727 0.519902 0.102800
C12   C     C_R   0.870795 0.560683 0.482858 0.094526
C13   C     C_R   0.021784 0.462467 0.523041 0.134602
C14   C     C_R   0.975264 0.537970 0.474519 0.112100
H1    H     H_    0.815983 0.390944 0.625167 0.163432
H2    H     H_    0.182430 0.610459 0.373798 0.160594
H3    H     H_    0.001434 0.644188 0.377959 0.173618
H4    H     H_    0.990029 0.350136 0.610844 0.166274
C15   C     C_R   0.390565 0.098791 0.464233 0.048634
C16   C     C_R   0.530734 0.903406 0.421473 0.030014
C17   C     C_R   0.397987 0.191212 0.468961 -0.298185
C18   C     C_R   0.536666 0.811902 0.429848 -0.285561
H5    H     H_    0.327746 0.230764 0.451996 0.123916
H6    H     H_    0.577526 0.774004 0.381014 0.172435
C19   C     C_R   0.495989 0.232966 0.495352 -0.044828
C20   C     C_R   0.491085 0.768845 0.500443 -0.078260
C21   C     C_R   0.588577 0.183453 0.516186 0.166909
C22   C     C_R   0.437585 0.818539 0.564275 0.161232
C23   C     C_R   0.580512 0.091066 0.512256 -0.198162
C24   C     C_R   0.433949 0.910914 0.555894 -0.207943
H7    H     H_    0.650654 0.051265 0.528800 0.142697
H8    H     H_    0.395589 0.951179 0.604602 0.141019
C25   C     C_R   0.482661 0.049120 0.486196 0.027019
C26   C     C_R   0.479830 0.952685 0.485463 0.036730
C27   C     C_R   0.408515 0.512719 0.090414 0.062572
C28   C     C_R   0.563978 0.563567 0.906786 0.090864
C29   C     C_R   0.407153 0.495739 0.188485 0.233771
C30   C     C_R   0.565018 0.559690 0.806195 0.243276
N1    N     N_R   0.500000 0.499980 0.252470 -0.105773
N2    N     N_R   0.500000 0.500020 0.747530 -0.121864
C31   C     C_R   0.592035 0.486674 0.217393 -0.117612
C32   C     C_R   0.451274 0.432988 0.787631 -0.104353
H9    H     H_    0.663509 0.475933 0.265731 0.171219
H10   H     H_    0.414088 0.379560 0.742332 0.163291
C33   C     C_R   0.594199 0.477700 0.119057 -0.106035
C34   C     C_R   0.454464 0.429053 0.886649 -0.096503
C35   C     C_R   0.503541 0.496902 0.053517 0.074861
C36   C     C_R   0.506969 0.496700 0.947581 0.049123
C37   C     C_3   0.823620 0.649238 0.447593 -0.415032
C38   C     C_3   0.783255 0.647312 0.341134 -0.845247
H11   H     H_    0.789157 0.715444 0.312912 0.242327
H12   H     H_    0.828786 0.600827 0.301460 0.255452
H13   H     H_    0.699099 0.626926 0.328196 0.275991
H14   H     H_    0.757930 0.668868 0.486218 0.186667
H15   H     H_    0.883287 0.703620 0.465207 0.198453
C39   C     C_3   0.180841 0.363699 0.573045 -0.412968
C40   C     C_3   0.201033 0.381836 0.680393 -0.821003
H16   H     H_    0.243849 0.324761 0.715458 0.238233
H17   H     H_    0.247744 0.444290 0.697008 0.276847
H18   H     H_    0.127789 0.389762 0.711699 0.246208
H19   H     H_    0.132399 0.301991 0.556194 0.192135
H20   H     H_    0.256964 0.347407 0.549265 0.196762
C41   C     C_1   0.689474 0.446318 0.087378 0.144057
N3    N     N_1   0.765761 0.421216 0.061925 -0.207746
C42   C     C_1   0.406249 0.352946 0.924426 0.146806
N4    N     N_1   0.367577 0.292004 0.954800 -0.205861
C43   C     C_1   0.288938 0.056409 0.435803 0.153291
N5    N     N_1   0.207549 0.022397 0.413064 -0.208206
C44   C     C_1   0.577353 0.945406 0.347078 0.154963
N6    N     N_1   0.614675 0.979080 0.287578 -0.202455
C45   C     C_3   0.696072 0.226819 0.539822 -0.454942
C46   C     C_3   0.739994 0.250575 0.449615 -0.822760
H21   H     H_    0.739714 0.190605 0.402242 0.267055
H22   H     H_    0.692595 0.303561 0.411264 0.273103
H23   H     H_    0.822371 0.275167 0.467907 0.251997
H24   H     H_    0.691351 0.287165 0.585180 0.204519
H25   H     H_    0.751695 0.180991 0.581367 0.207142
C47   C     C_3   0.380968 0.777171 0.639267 -0.415945
C48   C     C_3   0.279187 0.729698 0.594954 -0.789289
H26   H     H_    0.223339 0.778723 0.559185 0.249453
H27   H     H_    0.294645 0.678131 0.542151 0.256934
H28   H     H_    0.242065 0.696930 0.651001 0.244724
H29   H     H_    0.432935 0.731567 0.684288 0.223805
H30   H     H_    0.359416 0.829520 0.689266 0.193116
C49   C     C_3   0.306381 0.537479 0.026192 -0.420991
C50   C     C_3   0.311433 0.624918 0.974085 -0.865708
H31   H     H_    0.335228 0.680945 0.025197 0.262366
H32   H     H_    0.364260 0.620455 0.919745 0.272145
H33   H     H_    0.231829 0.639785 0.936262 0.246512
H34   H     H_    0.280881 0.482562 0.974277 0.220717
H35   H     H_    0.241410 0.548472 0.068216 0.201399
C51   C     C_3   0.626020 0.636586 0.970702 -0.404718
C52   C     C_3   0.556158 0.707441 0.006413 -0.883896
H36   H     H_    0.499894 0.733183 0.946883 0.259902
H37   H     H_    0.514221 0.680140 0.062067 0.276938
H38   H     H_    0.605760 0.764362 0.039206 0.254613
H39   H     H_    0.675220 0.607561 0.032043 0.214934
H40   H     H_    0.684281 0.673233 0.936498 0.217506
C53   C     C_3   0.309023 0.448541 0.213286 -0.385472
C54   C     C_3   0.331455 0.355596 0.254658 -0.705724
H41   H     H_    0.413109 0.334185 0.250065 0.262913
H42   H     H_    0.316110 0.353761 0.328863 0.247984
H43   H     H_    0.277920 0.304510 0.214714 0.213901
H44   H     H_    0.264459 0.492363 0.255738 0.214983
H45   H     H_    0.251453 0.433462 0.149111 0.172186
C55   C     C_3   0.648025 0.614739 0.767019 -0.399331
C56   C     C_3   0.758038 0.575516 0.793104 -0.867132
H46   H     H_    0.759460 0.506030 0.764458 0.278825
H47   H     H_    0.816393 0.616312 0.761950 0.246810
H48   H     H_    0.782715 0.573902 0.870769 0.251997
H49   H     H_    0.635191 0.617858 0.690974 0.270763
H50   H     H_    0.645640 0.686118 0.788948 0.170269

loop_
_geom_bond_atom_site_label_1
_geom_bond_atom_site_label_2
_geom_bond_distance
_ccdc_geom_bond_type
C16   C18   1.379744 A    
C6    C11   1.409764 A    
C11   C39   1.529713 S    
C41   N3    1.157226 T    
C49   C50   1.525696 S    
C42   N4    1.157215 T    
C21   C45   1.508702 S    
C45   C46   1.527147 S    
C29   N1    1.391172 A    
C43   N5    1.157209 T    
O5    C3    1.288301 A    
C28   C51   1.544224 S    
C27   C35   1.418499 A    
C37   H14   1.111965 S    
C55   H50   1.108578 S    
C38   H13   1.107959 S    
O1    C1    1.288702 A    
C18   C20   1.403065 A    
C19   C21   1.405772 A    
C56   H47   1.110630 S    
Zn2   N1    2.017596 S    
C10   H1    1.080552 S    
C50   H33   1.110878 S    
C55   C56   1.533705 S    
C38   H12   1.111072 S    
O4    Zn1   2.005266 S    
C9    H2    1.084521 S    
C54   H41   1.110441 S    
C5    C12   1.403732 A    
C39   H20   1.108719 S    
C2    C20   1.448039 S    
N1    C31   1.364507 A    
C50   H32   1.104272 S    
N2    C32   1.358307 A    
C13   C14   1.429021 A    
C17   H5    1.084624 S    
C51   H40   1.100222 S    
C48   H27   1.106182 S    
C31   C33   1.410946 A    
C45   H24   1.106658 S    
C30   C55   1.518824 S    
C30   N2    1.393224 A    
C39   C40   1.533020 S    
C37   C38   1.530829 S    
C34   C42   1.443690 S    
C28   C36   1.419245 A    
C16   C26   1.400052 A    
O2    C2    1.293920 A    
C32   H10   1.078631 S    
C28   C30   1.437288 A    
C27   C29   1.430655 A    
C5    C10   1.385014 A    
C47   H30   1.112109 S    
C7    C14   1.402883 A    
C55   H49   1.075534 S    
C8    C13   1.402987 A    
C7    H3    1.080234 S    
C8    H4    1.077742 S    
C23   H7    1.085016 S    
C56   H48   1.107852 S    
C12   C37   1.528171 S    
C49   H34   1.107810 S    
C23   C25   1.395665 A    
C29   C53   1.528903 S    
C40   H16   1.109580 S    
C22   C47   1.519063 S    
C38   H11   1.111097 S    
C40   H17   1.107661 S    
C18   H6    1.085575 S    
O7    Zn2   2.010838 S    
C3    C6    1.434541 S    
C39   H19   1.110167 S    
C4    C5    1.425760 S    
C24   C26   1.394241 A    
O6    C4    1.288590 A    
C50   H31   1.109094 S    
C51   H39   1.102123 S    
C52   H37   1.106378 S    
C48   H28   1.110404 S    
O7    C3    1.290445 A    
C54   H43   1.112038 S    
C45   H25   1.112048 S    
O3    Zn2   2.005266 S    
O8    C4    1.286969 A    
C53   H44   1.102934 S    
C16   C44   1.445929 S    
O4    C2    1.292097 A    
C46   H22   1.109569 S    
C33   C35   1.418455 A    
C25   C26   1.443569 S    
C12   C14   1.408778 A    
O1    Zn1   1.988310 S    
C20   C22   1.420857 A    
C27   C49   1.539488 S    
C47   H29   1.108002 S    
O6    Zn2   1.971553 S    
O3    C1    1.286211 A    
O8    Zn1   2.010839 S    
C46   H23   1.108859 S    
C40   H18   1.105504 S    
C11   C13   1.407091 A    
C21   C23   1.385184 A    
C56   H46   1.110276 S    
C37   H15   1.111108 S    
C22   C24   1.391498 A    
C35   C36   1.518720 S    
C6    C9    1.391932 A    
C1    C19   1.427782 S    
C17   C19   1.396673 A    
C24   H8    1.084807 S    
Zn1   N2    2.017593 S    
C7    C9    1.376584 A    
C34   C36   1.417619 A    
C52   H38   1.110852 S    
C8    C10   1.368224 A    
C51   C52   1.522913 S    
O2    Zn2   1.988307 S    
C54   H42   1.106087 S    
C53   H45   1.106478 S    
C44   N6    1.157242 T    
C33   C41   1.444749 S    
C49   H35   1.108389 S    
O5    Zn1   1.971556 S    
C15   C43   1.444472 S    
C47   C48   1.526839 S    
C15   C17   1.385365 A    
C46   H21   1.111076 S    
C52   H36   1.110168 S    
C31   H9    1.079928 S    
C48   H26   1.110854 S    
C53   C54   1.537396 S    
C15   C25   1.403584 A    
C32   C34   1.410129 A    
