data_mof_unit_19274.cif
_audit_creation_date              2012-12-10T18:04:43-0500
_audit_creation_method            fapswitch 2.2
_symmetry_space_group_name_H-M    P1
_symmetry_Int_Tables_number       1
_space_group_crystal_system       triclinic
_cell_length_a                    19.119243
_cell_length_b                    18.087111
_cell_length_c                    12.700255
_cell_angle_alpha                 89.740252
_cell_angle_beta                  99.880632
_cell_angle_gamma                 90.764305
_cell_volume                      4326.35941418

loop_
_atom_site_label
_atom_site_type_symbol
_atom_type_description
_atom_site_fract_x
_atom_site_fract_y
_atom_site_fract_z
_atom_type_partial_charge
C1    C     C_R   0.411895 0.102974 0.444360 0.860578
C2    C     C_R   0.758621 0.751977 0.646998 0.110764
C3    C     C_R   0.279705 0.723508 0.655573 0.160402
C4    C     C_R   0.260788 0.254258 0.644757 0.118812
C5    C     C_R   0.346216 0.757811 0.685530 0.047465
C6    C     C_R   0.330645 0.229025 0.671334 0.042954
C7    C     C_R   0.846963 0.257361 0.685642 0.041525
C8    C     C_R   0.827798 0.725000 0.673920 0.054659
C9    C     C_R   0.380949 0.786785 0.606330 -0.229591
C10   C     C_R   0.366591 0.209484 0.589640 -0.189662
C11   C     C_R   0.882489 0.285471 0.606710 -0.255543
C12   C     C_R   0.413477 0.895206 0.446087 0.869826
C13   C     C_R   0.863929 0.705712 0.592501 -0.162967
C14   C     C_R   0.687708 0.178452 0.515396 -0.213443
C15   C     C_R   0.673882 0.810035 0.511379 -0.206459
C16   C     C_R   0.184956 0.682092 0.516522 -0.209653
C17   C     C_R   0.175626 0.312151 0.509980 -0.207984
C18   C     C_R   0.670402 0.173225 0.698667 -0.230343
C19   C     C_R   0.660400 0.819197 0.696378 -0.203966
C20   C     C_R   0.172183 0.668845 0.701121 -0.231840
C21   C     C_R   0.159653 0.316275 0.694098 -0.203994
C22   C     C_R   0.372295 0.827318 0.417934 -0.130905
C23   C     C_R   0.911793 0.602943 0.444504 0.859811
C24   C     C_R   0.359453 0.159593 0.408453 -0.121278
C25   C     C_R   0.873580 0.325898 0.418291 -0.130029
C26   C     C_R   0.858743 0.659193 0.409559 -0.124488
C27   C     C_R   0.641909 0.960321 0.144877 -0.315520
C28   C     C_R   0.144995 0.529277 0.143564 -0.323533
C29   C     C_R   0.376484 0.004727 0.765735 0.190394
C30   C     C_R   0.876509 0.495385 0.765882 0.184846
C31   C     C_R   0.351356 0.995520 0.861818 0.071873
C32   C     C_R   0.851571 0.508069 0.861129 0.076369
C33   C     C_R   0.589214 0.898164 0.556269 0.848908
C34   C     C_R   0.913664 0.394878 0.446161 0.869087
C35   C     C_R   0.590012 0.102137 0.556074 0.856973
C36   C     C_R   0.089121 0.397918 0.556044 0.855814
C37   C     C_R   0.089978 0.602002 0.556317 0.850403
C38   C     C_R   0.398777 0.985091 0.954882 -0.226624
C39   C     C_R   0.899347 0.519937 0.953899 -0.222360
C40   C     C_R   0.472009 0.984066 0.954319 -0.072863
C41   C     C_R   0.972688 0.518431 0.953918 -0.069972
C42   C     C_R   0.496759 0.987440 0.855162 0.136993
C43   C     C_R   0.997284 0.512893 0.854902 0.144695
C44   C     C_R   0.521324 0.981596 0.050546 -0.011761
C45   C     C_R   0.755730 0.207807 0.545141 0.055690
C46   C     C_R   0.022201 0.519358 0.050392 -0.015404
C47   C     C_R   0.592902 0.963120 0.049178 0.123544
C48   C     C_R   0.095246 0.532180 0.048704 0.126056
C49   C     C_R   0.615424 0.953650 0.951813 -0.022742
C50   C     C_R   0.118071 0.541689 0.951550 -0.023950
C51   C     C_R   0.571424 0.976976 0.858227 0.094363
C52   C     C_R   0.072485 0.520979 0.857922 0.097067
C53   C     C_R   0.502603 0.000201 0.148756 -0.038042
C54   C     C_R   0.002275 0.503740 0.149191 -0.036681
C55   C     C_R   0.620349 0.980220 0.238529 0.014502
C56   C     C_R   0.728766 0.760678 0.537235 0.073044
C57   C     C_R   0.122110 0.511811 0.237546 0.011982
C58   C     C_R   0.736661 0.206714 0.730798 -0.182548
C59   C     C_R   0.720991 0.776973 0.725805 -0.201642
C60   C     C_R   0.238016 0.703302 0.732552 -0.169535
C61   C     C_R   0.221769 0.276273 0.723492 -0.211398
C62   C     C_R   0.648127 0.154531 0.591316 -0.070471
C63   C     C_R   0.640453 0.840435 0.589438 -0.073475
C64   C     C_R   0.147646 0.654434 0.592745 -0.079133
C65   C     C_R   0.140707 0.340128 0.588187 -0.065756
C66   C     C_R   0.351723 0.809123 0.309664 -0.256951
C67   C     C_R   0.253352 0.710626 0.545411 0.056672
C68   C     C_R   0.328245 0.160646 0.300428 -0.267938
C69   C     C_R   0.853840 0.306702 0.310170 -0.257769
C70   C     C_R   0.827989 0.661428 0.301422 -0.268423
C71   C     C_R   0.308240 0.747611 0.279655 0.126484
C72   C     C_R   0.261412 0.190768 0.268986 0.111928
C73   C     C_R   0.812223 0.243646 0.280521 0.125015
C74   C     C_R   0.760698 0.690603 0.270296 0.110188
C75   C     C_R   0.278844 0.708735 0.358047 0.087003
C76   C     C_R   0.225266 0.220113 0.346239 0.101109
C77   C     C_R   0.783351 0.204065 0.358876 0.083327
C78   C     C_R   0.230915 0.263283 0.535235 0.073697
C79   C     C_R   0.723778 0.718100 0.347927 0.099410
C80   C     C_R   0.293244 0.732788 0.466410 0.039374
C81   C     C_R   0.261555 0.229651 0.453977 0.029731
C82   C     C_R   0.796472 0.229226 0.466790 0.042501
C83   C     C_R   0.759563 0.726947 0.456070 0.027488
C84   C     C_R   0.349740 0.782621 0.497237 0.021405
C85   C     C_R   0.330158 0.200655 0.483611 -0.005612
C86   C     C_R   0.851825 0.280539 0.497570 0.025364
C87   C     C_R   0.828284 0.698247 0.485730 -0.005473
C88   C     C_R   0.780394 0.223256 0.655041 0.168110
H1    H     H_    0.449750 0.015857 0.157777 0.116386
H2    H     H_    0.204981 0.609089 0.987898 0.196616
H3    H     H_    0.696718 0.944912 0.148355 0.144438
H4    H     H_    0.201223 0.538423 0.146012 0.146000
H5    H     H_    0.327909 0.073975 0.650423 0.224505
H6    H     H_    0.328041 0.982500 0.611638 0.239398
H7    H     H_    0.828232 0.511270 0.610475 0.244188
H8    H     H_    0.829920 0.421104 0.655760 0.214243
H9    H     H_    0.376760 0.976159 0.026790 0.154549
H10   H     H_    0.877603 0.530952 0.025201 0.151019
H11   H     H_    0.257480 0.048640 0.836988 0.192696
H12   H     H_    0.948186 0.493069 0.159057 0.116881
H13   H     H_    0.251329 0.956120 0.816005 0.202200
H14   H     H_    0.753118 0.548099 0.812019 0.197749
H15   H     H_    0.755761 0.456269 0.839269 0.199004
H16   H     H_    0.639582 0.049430 0.813624 0.164800
H17   H     H_    0.643802 0.967143 0.759552 0.204064
H18   H     H_    0.145220 0.528606 0.758553 0.205433
H19   H     H_    0.135806 0.445999 0.811450 0.161794
H20   H     H_    0.384678 0.823388 0.811115 0.196011
H21   H     H_    0.426915 0.742135 0.808431 0.190664
H22   H     H_    0.367498 0.278034 0.813602 0.187259
H23   H     H_    0.637027 0.162093 0.757461 0.158050
H24   H     H_    0.340186 0.188621 0.821983 0.179747
H25   H     H_    0.884269 0.324247 0.810274 0.187180
H26   H     H_    0.926576 0.242830 0.810413 0.192300
H27   H     H_    0.866008 0.773675 0.816074 0.184626
H28   H     H_    0.836094 0.685198 0.824809 0.186841
H29   H     H_    0.753186 0.219910 0.814542 0.162859
H30   H     H_    0.739677 0.767293 0.810015 0.135463
H31   H     H_    0.256240 0.713357 0.816862 0.166143
H32   H     H_    0.239961 0.265170 0.807448 0.133052
H33   H     H_    0.663656 0.175078 0.432365 0.179323
H34   H     H_    0.632831 0.839459 0.757815 0.168598
H35   H     H_    0.661499 0.830675 0.430774 0.182526
H36   H     H_    0.159158 0.681368 0.434100 0.177035
H37   H     H_    0.163869 0.333832 0.429856 0.185280
H38   H     H_    0.370170 0.842160 0.248264 0.165358
H39   H     H_    0.352058 0.131367 0.241490 0.164503
H40   H     H_    0.871710 0.340055 0.248607 0.164030
H41   H     H_    0.852580 0.633662 0.241964 0.165169
H42   H     H_    0.783139 0.099600 0.301833 0.203373
H43   H     H_    0.704708 0.143477 0.270041 0.183763
H44   H     H_    0.624893 0.678576 0.290640 0.204965
H45   H     H_    0.141478 0.652474 0.761512 0.175878
H46   H     H_    0.639800 0.767327 0.256294 0.200072
H47   H     H_    0.274940 0.605029 0.298475 0.197614
H48   H     H_    0.197952 0.652292 0.269611 0.186651
H49   H     H_    0.125704 0.181766 0.290549 0.204464
H50   H     H_    0.141805 0.269777 0.254036 0.198739
H51   H     H_    0.322884 0.755380 0.123543 0.186242
H52   H     H_    0.239508 0.736780 0.141068 0.173866
H53   H     H_    0.259082 0.212400 0.112396 0.182220
H54   H     H_    0.223846 0.129487 0.138309 0.185834
H55   H     H_    0.827700 0.251333 0.124847 0.184676
H56   H     H_    0.129633 0.332134 0.754790 0.150135
H57   H     H_    0.744550 0.230618 0.141438 0.174961
H58   H     H_    0.758602 0.714922 0.114538 0.180308
H59   H     H_    0.724683 0.630786 0.137540 0.187343
H60   H     H_    0.432531 0.812322 0.631556 0.181954
H61   H     H_    0.422400 0.196766 0.611261 0.183356
H62   H     H_    0.933610 0.311940 0.632137 0.184807
H63   H     H_    0.919885 0.693882 0.614674 0.181244
H64   H     H_    0.657008 0.977507 0.313420 0.145464
H65   H     H_    0.159276 0.510162 0.312010 0.150652
H66   H     H_    0.697151 0.881583 0.985110 0.189644
H67   H     H_    0.722406 0.972632 0.984404 0.190546
H68   H     H_    0.223596 0.517170 0.980642 0.189337
N1    N     N_R   0.552340 1.000000 0.237260 -0.109060
N2    N     N_3   0.777128 0.507890 0.865188 -0.470113
N3    N     N_3   0.607895 0.005760 0.778581 -0.350590
N4    N     N_3   0.107182 0.491575 0.777953 -0.353555
N5    N     N_3   0.377018 0.766806 0.795935 -0.477303
N6    N     N_3   0.367463 0.225535 0.779486 -0.462967
N7    N     N_3   0.876702 0.267537 0.796224 -0.478553
N8    N     N_3   0.864406 0.720980 0.782182 -0.460563
N9    N     N_3   0.747889 0.134565 0.331218 -0.472284
N10   N     N_3   0.648652 0.728769 0.318652 -0.471535
N11   N     N_3   0.241149 0.640811 0.329556 -0.479025
N12   N     N_R   0.052340 0.500000 0.237260 -0.107827
N13   N     N_3   0.150294 0.231861 0.317228 -0.472203
N14   N     N_3   0.292675 0.724614 0.169824 -0.476278
N15   N     N_3   0.227009 0.185341 0.159758 -0.479806
N16   N     N_3   0.797921 0.219909 0.171002 -0.469018
N17   N     N_3   0.726789 0.686290 0.160718 -0.480056
N18   N     N_R   0.448170 1.000000 0.762060 -0.131646
N19   N     N_R   0.948170 0.500000 0.762060 -0.134312
N20   N     N_3   0.687054 0.932507 0.946575 -0.493949
N21   N     N_3   0.190942 0.559860 0.946268 -0.491569
N22   N     N_3   0.324421 0.018981 0.673129 -0.481468
N23   N     N_3   0.824672 0.476492 0.674582 -0.480371
N24   N     N_3   0.277001 0.997434 0.866249 -0.467269
O1    O     O_R   0.448200 0.076800 0.373930 -0.614635
O2    O     O_R   0.585240 0.076800 0.457600 -0.612111
O3    O     O_R   0.085240 0.423200 0.457600 -0.620849
O4    O     O_R   0.085240 0.576800 0.457600 -0.610787
O5    O     O_R   0.551780 0.923190 0.626070 -0.615429
O6    O     O_R   0.551780 0.076810 0.626070 -0.592621
O7    O     O_R   0.051780 0.423190 0.626070 -0.604739
O8    O     O_R   0.051780 0.576810 0.626070 -0.604608
O9    O     O_R   0.448200 0.923200 0.373930 -0.608002
O10   O     O_R   0.948200 0.576800 0.373930 -0.610996
O11   O     O_R   0.948200 0.423200 0.373930 -0.611338
O12   O     O_R   0.414750 0.076790 0.542400 -0.629593
O13   O     O_R   0.414750 0.923210 0.542400 -0.634548
O14   O     O_R   0.914750 0.576790 0.542400 -0.626707
O15   O     O_R   0.914750 0.423210 0.542400 -0.636483
O16   O     O_R   0.585240 0.923200 0.457600 -0.622363
Zn1   Zn    Zn3+2 0.522330 1.000000 0.387520 0.937398
Zn2   Zn    Zn3+2 0.022330 0.500000 0.387520 0.937877
Zn3   Zn    Zn3+2 0.477660 1.000000 0.612480 0.928119
Zn4   Zn    Zn3+2 0.977660 0.500000 0.612480 0.927163

loop_
_geom_bond_atom_site_label_1
_geom_bond_atom_site_label_2
_ccdc_geom_bond_type
C34   O15   A    
C52   N4    S    
C83   C87   A    
C13   C87   A    
C10   C85   A    
C8    C13   A    
C12   O13   A    
C45   C82   A    
C78   C81   A    
O11   Zn2   S    
C29   N18   A    
C80   C84   A    
O1    Zn1   S    
H14   N2    S    
H19   N4    S    
H22   N6    S    
C53   H1    S    
C55   H64   S    
C39   C41   A    
C57   N12   A    
C28   C57   A    
C35   O2    A    
C7    C11   A    
C12   O9    A    
N18   Zn3   S    
C15   H35   S    
C60   H31   S    
C34   O11   A    
H44   N10   S    
H55   N16   S    
C10   H61   S    
C27   C55   A    
C43   C52   A    
C32   C39   A    
C37   O8    A    
O8    Zn4   S    
C11   C86   A    
O9    Zn1   S    
C14   C62   A    
H58   N17   S    
C12   C22   S    
H53   N15   S    
C23   O14   A    
H51   N14   S    
H6    N22   S    
C23   C26   S    
C51   N3    S    
H27   N8    S    
C7    C88   A    
C73   C77   A    
C22   C66   A    
C43   N19   A    
C44   C53   A    
C18   C58   A    
O14   Zn4   S    
C6    N6    S    
C69   H40   S    
C19   C63   A    
C26   C87   A    
C49   C51   A    
C70   C74   A    
C50   C52   A    
C41   C46   A    
H46   N10   S    
C69   C73   A    
C49   N20   S    
C20   H45   S    
C20   C60   A    
C24   C85   A    
H49   N13   S    
H21   N5    S    
C44   C47   A    
C33   C63   S    
C42   C51   A    
C3    C60   A    
C40   C42   A    
H57   N16   S    
H8    N23   S    
C14   H33   S    
H50   N13   S    
C41   C43   A    
C54   H12   S    
O2    Zn1   S    
C38   H9    S    
H47   N11   S    
C14   C45   A    
C32   N2    S    
C46   C48   A    
C71   C75   A    
O3    Zn2   S    
C30   C32   A    
C72   N15   S    
C50   N21   S    
C18   H23   S    
C33   O16   A    
C74   N17   S    
C47   C49   A    
C42   N18   A    
C36   O3    A    
C1    O1    A    
C2    C59   A    
C18   C62   A    
C39   H10   S    
C19   C59   A    
C82   C86   A    
C37   O4    A    
C7    N7    S    
C4    C61   A    
C58   H29   S    
C66   H38   S    
C22   C84   A    
C20   C64   A    
C4    C78   A    
H67   N20   S    
H25   N7    S    
H68   N21   S    
C11   H62   S    
C66   C71   A    
C55   N1    A    
C68   C72   A    
C46   C54   A    
C71   N14   S    
C72   C76   A    
C28   H4    S    
C16   C67   A    
O5    Zn3   S    
C73   N16   S    
C27   H3    S    
C68   H39   S    
C13   H63   S    
N12   Zn2   S    
C2    C56   A    
C45   C88   A    
H7    N23   S    
C17   C65   A    
C31   N24   S    
C59   H30   S    
O4    Zn2   S    
C74   C79   A    
C8    N8    S    
C26   C70   A    
O6    Zn3   S    
C4    C6    A    
C25   C69   A    
H16   N3    S    
C30   N19   A    
O12   Zn3   S    
C37   C64   S    
O10   Zn2   S    
C56   C83   A    
O15   Zn4   S    
C75   C80   A    
C27   C47   A    
C28   C48   A    
H52   N14   S    
C21   C65   A    
C36   C65   S    
C21   C61   A    
H28   N8    S    
C3    C67   A    
C67   C80   A    
C21   H56   S    
C54   N12   A    
O16   Zn1   S    
C3    C5    A    
C58   C88   A    
C76   C81   A    
C6    C10   A    
C75   N11   S    
H5    N22   S    
H59   N17   S    
H15   N2    S    
H48   N11   S    
H24   N6    S    
H20   N5    S    
C25   C34   S    
C9    H60   S    
C53   N1    A    
C31   C38   A    
H66   N20   S    
O7    Zn4   S    
C29   N22   S    
C36   O7    A    
C17   C78   A    
C15   C56   A    
C16   H36   S    
H11   N24   S    
C29   C31   A    
H13   N24   S    
O13   Zn3   S    
C38   C40   A    
H42   N9    S    
C17   H37   S    
H26   N7    S    
H17   N3    S    
C30   N23   S    
C57   H65   S    
C77   C82   A    
C35   O6    A    
H18   N4    S    
C19   H34   S    
C48   C50   A    
C25   C86   A    
C35   C62   S    
N1    Zn1   S    
C70   H41   S    
C79   N10   S    
C76   N13   S    
N19   Zn4   S    
H2    N21   S    
C24   C68   A    
C9    C84   A    
C79   C83   A    
C1    O12   A    
C40   C44   A    
H43   N9    S    
C1    C24   S    
C2    C8    A    
C15   C63   A    
C33   O5    A    
C5    C9    A    
C16   C64   A    
C77   N9    S    
C23   O10   A    
C81   C85   A    
C5    N5    S    
H54   N15   S    
C61   H32   S    
