data_mof_unit_44680.cif
_audit_creation_date              2012-12-11T15:57:03-0500
_audit_creation_method            fapswitch 2.2
_symmetry_space_group_name_H-M    P1
_symmetry_Int_Tables_number       1
_space_group_crystal_system       triclinic
_cell_length_a                    17.439071
_cell_length_b                    24.450077
_cell_length_c                    14.965166
_cell_angle_alpha                 90.098452
_cell_angle_beta                  126.203596
_cell_angle_gamma                 89.852478
_cell_volume                      5148.91696648

loop_
_atom_site_label
_atom_site_type_symbol
_atom_type_description
_atom_site_fract_x
_atom_site_fract_y
_atom_site_fract_z
_atom_type_partial_charge
C1    C     C_R   0.308682 0.124332 0.906227 -0.155230
C2    C     C_R   0.556756 0.152263 0.909100 -0.239263
C3    C     C_R   0.811483 0.363135 0.997973 0.018504
C4    C     C_R   0.565193 0.999989 0.368095 -0.023957
C5    C     C_R   0.065189 0.499989 0.368093 -0.023997
C6    C     C_R   0.190389 0.000372 0.637103 0.087714
C7    C     C_R   0.690397 0.500378 0.637094 0.087755
C8    C     C_R   0.521150 0.045730 0.753710 -0.137010
C9    C     C_R   0.521299 0.954007 0.753885 -0.138104
C10   C     C_R   0.021154 0.545731 0.753715 -0.137005
C11   C     C_R   0.021301 0.454008 0.753888 -0.138104
C12   C     C_R   0.768162 0.953707 0.243290 -0.139292
C13   C     C_R   0.051521 0.346461 0.908769 -0.241545
C14   C     C_R   0.768504 0.045467 0.242973 -0.110267
C15   C     C_R   0.268162 0.453703 0.243301 -0.139267
C16   C     C_R   0.268504 0.545464 0.242966 -0.110203
C17   C     C_R   0.056736 0.652274 0.909115 -0.239129
C18   C     C_R   0.551773 0.999800 0.728038 -0.013437
C19   C     C_R   0.051777 0.499801 0.728042 -0.013438
C20   C     C_R   0.822740 0.999339 0.264634 0.041706
C21   C     C_R   0.322741 0.499333 0.264641 0.041575
C22   C     C_R   0.619942 0.183390 0.001336 -0.122890
C23   C     C_R   0.609002 0.813667 0.000101 -0.122684
C24   C     C_R   0.119911 0.683407 0.001356 -0.123419
C25   C     C_R   0.307736 0.877511 0.905901 -0.146887
C26   C     C_R   0.109012 0.313671 0.000102 -0.122692
C27   C     C_3   0.022477 0.959204 0.504990 0.474910
C28   C     C_3   0.026869 0.047088 0.491089 0.493144
C29   C     C_3   0.522448 0.459274 0.505093 0.474948
C30   C     C_3   0.526924 0.547135 0.490957 0.493131
C31   C     C_3   0.952807 0.005803 0.467956 -0.131403
C32   C     C_3   0.452824 0.505907 0.467939 -0.131449
C33   C     C_3   0.923727 0.999178 0.349781 0.059880
C34   C     C_3   0.423730 0.499169 0.349778 0.059883
C35   C     C_3   0.994377 0.951209 0.387109 -0.251281
C36   C     C_R   0.808680 0.624331 0.906233 -0.155235
C37   C     C_3   0.998834 0.041545 0.372711 -0.254557
C38   C     C_3   0.494335 0.451165 0.387232 -0.251270
C39   C     C_3   0.498876 0.541476 0.372589 -0.254486
C40   C     C_3   0.072103 0.993576 0.412865 -0.239333
C41   C     C_3   0.572100 0.493470 0.412869 -0.239358
C42   C     C_R   0.400941 0.877010 0.091688 -0.116700
C43   C     C_R   0.402705 0.125327 0.092269 -0.101517
C44   C     C_R   0.900949 0.377009 0.091698 -0.116715
C45   C     C_R   0.902711 0.625331 0.092272 -0.101543
C46   C     C_3   0.098744 0.000492 0.530741 0.018460
C47   C     C_R   0.807733 0.377518 0.905912 -0.146859
C48   C     C_3   0.598754 0.500504 0.530730 0.018428
C49   C     C_3   0.209436 0.834300 0.059411 -0.154585
C50   C     C_3   0.213410 0.165835 0.065364 -0.164719
C51   C     C_3   0.709565 0.334256 0.059597 -0.154761
C52   C     C_3   0.713489 0.665851 0.065479 -0.164723
C53   C     C_3   0.661040 0.282630 0.067147 -0.155836
C54   C     C_3   0.665090 0.717105 0.075316 -0.190787
C55   C     C_3   0.160842 0.782699 0.066926 -0.155987
C56   C     C_3   0.164988 0.217081 0.075195 -0.190755
C57   C     C_3   0.821333 0.268563 0.052022 -0.389442
C58   C     C_R   0.649477 0.151516 0.093250 0.476470
C59   C     C_3   0.815966 0.734238 0.047709 -0.403459
C60   C     C_3   0.321356 0.768581 0.052171 -0.389446
C61   C     C_3   0.315997 0.234228 0.047799 -0.403456
C62   C     C_3   0.170522 0.802660 0.877127 -0.443352
C63   C     C_3   0.166014 0.195371 0.878664 -0.444811
C64   C     C_3   0.670433 0.302725 0.877155 -0.443248
C65   C     C_3   0.665949 0.695326 0.878677 -0.444795
C66   C     C_3   0.253970 0.818839 0.997629 0.336437
C67   C     C_3   0.253251 0.182051 0.998783 0.346274
C68   C     C_3   0.753975 0.318844 0.997652 0.336400
C69   C     C_R   0.642014 0.846511 0.091754 0.481837
C70   C     C_3   0.753247 0.682045 0.998794 0.346274
C71   C     C_3   0.663624 0.234449 0.999181 0.354234
C72   C     C_3   0.657179 0.763985 0.999315 0.390112
C73   C     C_3   0.163603 0.734461 0.999186 0.354257
C74   C     C_3   0.157190 0.263990 0.999315 0.390116
C75   C     C_3   0.768027 0.219112 0.049327 -0.456244
C76   C     C_3   0.758810 0.782443 0.043351 -0.447744
C77   C     C_3   0.268055 0.719143 0.049531 -0.456273
C78   C     C_3   0.258861 0.282431 0.043491 -0.447785
C79   C     C_3   0.616998 0.253731 0.878035 -0.395095
C80   C     C_R   0.149439 0.651524 0.093265 0.476884
C81   C     C_3   0.607816 0.741849 0.879379 -0.401311
C82   C     C_3   0.117103 0.753662 0.878019 -0.394882
C83   C     C_3   0.107900 0.241904 0.879363 -0.401296
C84   C     C_3   0.619019 0.050835 0.643195 -0.405741
C85   C     C_3   0.617813 0.948247 0.641930 -0.404459
C86   C     C_3   0.119017 0.550837 0.643193 -0.405743
C87   C     C_3   0.117818 0.448249 0.641934 -0.404455
C88   C     C_R   0.548609 0.045503 0.304752 -0.128594
C89   C     C_R   0.548957 0.954507 0.304776 -0.134472
C90   C     C_R   0.048607 0.545503 0.304751 -0.128565
C91   C     C_R   0.142015 0.346512 0.091754 0.481838
C92   C     C_R   0.048955 0.454507 0.304776 -0.134462
C93   C     C_3   0.622278 0.050958 0.542650 -0.398031
C94   C     C_3   0.620703 0.948144 0.541147 -0.399753
C95   C     C_3   0.122273 0.550960 0.542646 -0.398026
C96   C     C_3   0.120704 0.448146 0.541148 -0.399757
C97   C     C_3   0.461967 0.000293 0.528858 -0.394766
C98   C     C_3   0.961968 0.500292 0.528862 -0.394760
C99   C     C_3   0.563882 0.999780 0.638696 0.402092
C100  C     C_3   0.063884 0.499781 0.638698 0.402087
C101  C     C_3   0.569774 0.999907 0.469219 0.399013
C102  C     C_R   0.551520 0.846460 0.908769 -0.241550
C103  C     C_3   0.069772 0.499908 0.469218 0.399018
C104  C     C_3   0.465522 0.000516 0.429812 -0.397354
C105  C     C_3   0.965520 0.500515 0.429814 -0.397350
C106  C     C_R   0.239989 0.954474 0.695781 -0.091717
C107  C     C_R   0.239808 0.045982 0.696616 -0.114007
C108  C     C_R   0.739992 0.454478 0.695772 -0.091549
C109  C     C_R   0.739814 0.545985 0.696618 -0.114202
C110  C     C_R   0.313229 0.139334 0.998787 0.011413
C111  C     C_R   0.311485 0.863125 0.997955 0.018475
C112  C     C_R   0.813228 0.639331 0.998795 0.011412
H1    H     H_    0.251261 0.130491 0.820156 0.121542
H2    H     H_    0.623950 0.488430 0.393250 0.142624
H3    H     H_    0.983817 0.117999 0.498646 0.312375
H4    H     H_    0.474565 0.396490 0.534017 0.308602
H5    H     H_    0.483931 0.618103 0.498312 0.312409
H6    H     H_    0.327292 0.827839 0.223305 0.097227
H7    H     H_    0.243317 0.871670 0.201568 0.112323
H8    H     H_    0.334530 0.173416 0.226943 0.103497
H9    H     H_    0.253466 0.129079 0.210470 0.103303
H10   H     H_    0.827528 0.327764 0.223420 0.097190
H11   H     H_    0.743581 0.371564 0.201864 0.112360
H12   H     H_    0.834669 0.673461 0.227026 0.103474
H13   H     H_    0.154835 0.866461 0.009242 0.135798
H14   H     H_    0.753645 0.629129 0.210661 0.103311
H15   H     H_    0.033352 0.761085 0.038092 0.127588
H16   H     H_    0.021790 0.808602 0.948854 0.106044
H17   H     H_    0.082815 0.176719 0.110559 0.100463
H18   H     H_    0.029884 0.183569 0.974166 0.112046
H19   H     H_    0.533694 0.260998 0.038667 0.127844
H20   H     H_    0.521939 0.308546 0.949369 0.105955
H21   H     H_    0.583053 0.676771 0.110917 0.100475
H22   H     H_    0.529989 0.683563 0.974480 0.112032
H23   H     H_    0.743922 0.191684 0.223312 0.284642
H24   H     H_    0.159584 0.133119 0.017534 0.131299
H25   H     H_    0.643154 0.796004 0.189915 0.304963
H26   H     H_    0.243598 0.691925 0.223178 0.284826
H27   H     H_    0.143169 0.295998 0.189915 0.304926
H28   H     H_    0.930119 0.016176 0.585397 0.135810
H29   H     H_    0.848885 0.977002 0.478354 0.115851
H30   H     H_    0.430166 0.516410 0.585375 0.135825
H31   H     H_    0.348842 0.477252 0.478360 0.115839
H32   H     H_    0.654936 0.366418 0.009517 0.135848
H33   H     H_    0.659657 0.633130 0.017703 0.131310
H34   H     H_    0.702022 0.270783 0.155157 0.139449
H35   H     H_    0.711909 0.731622 0.162266 0.148711
H36   H     H_    0.201682 0.770921 0.154954 0.139054
H37   H     H_    0.211746 0.231566 0.162169 0.148593
H38   H     H_    0.881558 0.276826 0.139571 0.149340
H39   H     H_    0.250236 0.871741 0.819741 0.122354
H40   H     H_    0.878148 0.727738 0.135088 0.156537
H41   H     H_    0.381536 0.776886 0.139719 0.149330
H42   H     H_    0.378152 0.227697 0.135175 0.156528
H43   H     H_    0.806439 0.202795 0.134694 0.136460
H44   H     H_    0.796810 0.800196 0.128015 0.170807
H45   H     H_    0.306413 0.702890 0.134937 0.136595
H46   H     H_    0.296822 0.300131 0.128190 0.170888
H47   H     H_    0.197756 0.790609 0.828815 0.168189
H48   H     H_    0.189674 0.208801 0.827482 0.170348
H49   H     H_    0.697575 0.290689 0.828739 0.168187
H50   H     H_    0.751253 0.630486 0.820163 0.121522
H51   H     H_    0.689544 0.708751 0.827429 0.170379
H52   H     H_    0.430184 0.869069 0.177126 0.098439
H53   H     H_    0.433096 0.134022 0.177773 0.098198
H54   H     H_    0.930213 0.369055 0.177136 0.098467
H55   H     H_    0.933114 0.634033 0.177777 0.098228
H56   H     H_    0.120772 0.837681 0.833875 0.173594
H57   H     H_    0.120362 0.158598 0.838632 0.170068
H58   H     H_    0.620717 0.337770 0.834013 0.173603
H59   H     H_    0.620326 0.658539 0.838702 0.170010
H60   H     H_    0.040829 0.763993 0.834538 0.149824
H61   H     H_    0.750226 0.371753 0.819753 0.122343
H62   H     H_    0.034378 0.228009 0.843252 0.156026
H63   H     H_    0.540757 0.264093 0.834717 0.149872
H64   H     H_    0.534327 0.727929 0.843376 0.156037
H65   H     H_    0.620166 0.220472 0.829306 0.159800
H66   H     H_    0.602621 0.774396 0.824143 0.158197
H67   H     H_    0.120407 0.720369 0.829449 0.159806
H68   H     H_    0.102808 0.274474 0.824226 0.158212
H69   H     H_    0.853041 0.258674 0.007479 0.166168
H70   H     H_    0.844762 0.744636 0.000302 0.163959
H71   H     H_    0.353129 0.758653 0.007716 0.166168
H72   H     H_    0.979183 0.911710 0.342938 0.132708
H73   H     H_    0.344827 0.244646 0.000436 0.163964
H74   H     H_    0.770171 0.186287 0.999032 0.171525
H75   H     H_    0.755518 0.814859 0.988900 0.168707
H76   H     H_    0.270307 0.686274 0.999390 0.171506
H77   H     H_    0.255653 0.314880 0.989151 0.168689
H78   H     H_    0.584182 0.089335 0.641216 0.146035
H79   H     H_    0.582213 0.910070 0.639283 0.145707
H80   H     H_    0.084177 0.589336 0.641212 0.146039
H81   H     H_    0.082222 0.410071 0.639291 0.145701
H82   H     H_    0.692482 0.050747 0.721268 0.154089
H83   H     H_    0.987073 0.075499 0.316713 0.128002
H84   H     H_    0.691360 0.947654 0.719848 0.154615
H85   H     H_    0.192479 0.550752 0.721265 0.154088
H86   H     H_    0.191366 0.447659 0.719850 0.154614
H87   H     H_    0.697362 0.051153 0.570995 0.157116
H88   H     H_    0.695676 0.946916 0.569169 0.154870
H89   H     H_    0.197357 0.551157 0.570990 0.157108
H90   H     H_    0.195677 0.446918 0.569167 0.154867
H91   H     H_    0.588187 0.089324 0.495592 0.147525
H92   H     H_    0.585165 0.910252 0.493049 0.147065
H93   H     H_    0.088181 0.589325 0.495588 0.147529
H94   H     H_    0.479109 0.411627 0.343172 0.132710
H95   H     H_    0.085167 0.410254 0.493052 0.147063
H96   H     H_    0.422191 0.037087 0.524758 0.154515
H97   H     H_    0.421573 0.963720 0.523741 0.154392
H98   H     H_    0.922190 0.537084 0.524761 0.154526
H99   H     H_    0.921578 0.463718 0.523747 0.154389
H100  H     H_    0.561574 0.087738 0.330836 0.096540
H101  H     H_    0.562453 0.912271 0.330823 0.094182
H102  H     H_    0.061571 0.587739 0.330833 0.096547
H103  H     H_    0.062451 0.412271 0.330823 0.094178
H104  H     H_    0.428024 0.037545 0.378595 0.157217
H105  H     H_    0.487143 0.575373 0.316495 0.128040
H106  H     H_    0.426795 0.964116 0.377079 0.157586
H107  H     H_    0.928021 0.537544 0.378596 0.157220
H108  H     H_    0.926795 0.464115 0.377082 0.157591
H109  H     H_    0.226057 0.912883 0.665317 0.121410
H110  H     H_    0.226640 0.087649 0.666872 0.140726
H111  H     H_    0.726053 0.412886 0.665307 0.121232
H112  H     H_    0.726656 0.587654 0.666883 0.140889
H113  H     H_    0.526863 0.088082 0.738502 0.093170
H114  H     H_    0.527582 0.911533 0.739499 0.093766
H115  H     H_    0.026872 0.588083 0.738515 0.093170
H116  H     H_    0.123962 0.988623 0.393238 0.142613
H117  H     H_    0.027584 0.411534 0.739500 0.093760
H118  H     H_    0.791330 0.911571 0.258401 0.150425
H119  H     H_    0.792957 0.087245 0.259032 0.130881
H120  H     H_    0.291327 0.411567 0.258414 0.150452
H121  H     H_    0.292960 0.587241 0.259013 0.131233
H122  H     H_    0.505299 0.833908 0.823051 0.122644
H123  H     H_    0.511424 0.165341 0.823669 0.121308
H124  H     H_    0.005306 0.333909 0.823050 0.122642
H125  H     H_    0.011410 0.665351 0.823683 0.121313
H126  H     H_    0.974646 0.896324 0.533728 0.308618
N1    N     N_R   0.392450 0.103580 0.942190 -0.041129
N2    N     N_R   0.525490 0.971610 0.207550 -0.034980
N3    N     N_R   0.025490 0.528390 0.207550 -0.035798
N4    N     N_R   0.025490 0.471610 0.207550 -0.034982
N5    N     N_R   0.317450 0.971190 0.792000 -0.050846
N6    N     N_R   0.317450 0.028810 0.792000 -0.050908
N7    N     N_R   0.817450 0.471190 0.792000 -0.050840
N8    N     N_R   0.817450 0.528810 0.792000 -0.050904
N9    N     N_R   0.473900 0.028390 0.792280 -0.037608
N10   N     N_R   0.473900 0.971610 0.792280 -0.037749
N11   N     N_R   0.973900 0.528390 0.792280 -0.037606
N12   N     N_R   0.392450 0.896420 0.942190 -0.041575
N13   N     N_R   0.973900 0.471610 0.792280 -0.037752
N14   N     N_R   0.682310 0.971180 0.208170 -0.037976
N15   N     N_R   0.682310 0.028820 0.208170 -0.037281
N16   N     N_R   0.182310 0.471180 0.208170 -0.037997
N17   N     N_R   0.182310 0.528820 0.208170 -0.037269
N18   N     N_R   0.606470 0.103570 0.057210 -0.063979
N19   N     N_R   0.606470 0.896430 0.057210 -0.066559
N20   N     N_R   0.106470 0.603570 0.057210 -0.063978
N21   N     N_R   0.106470 0.396430 0.057210 -0.066555
N22   N     N_R   0.549740 0.896000 0.943240 -0.058163
N23   N     N_R   0.892450 0.603580 0.942190 -0.041131
N24   N     N_R   0.549740 0.104000 0.943240 -0.057831
N25   N     N_R   0.049740 0.396000 0.943240 -0.058162
N26   N     N_R   0.049740 0.604000 0.943240 -0.057859
N27   N     N_3   0.279263 0.857884 0.169361 -0.226373
N28   N     N_3   0.286483 0.142974 0.174898 -0.226285
N29   N     N_3   0.779460 0.357814 0.169549 -0.226387
N30   N     N_3   0.786611 0.643013 0.175021 -0.226295
N31   N     N_3   0.064351 0.795872 0.031349 -0.220076
N32   N     N_3   0.072093 0.203843 0.050149 -0.230080
N33   N     N_3   0.564628 0.295795 0.031849 -0.220055
N34   N     N_R   0.892450 0.396420 0.942190 -0.041587
N35   N     N_3   0.572250 0.703866 0.050424 -0.230112
N36   N     N_3   0.888398 0.012926 0.499161 -0.204715
N37   N     N_3   0.388433 0.513142 0.499142 -0.204700
N38   N     N_R   0.450490 0.896000 0.057360 -0.039913
N39   N     N_R   0.450490 0.104000 0.057360 -0.035461
N40   N     N_R   0.950490 0.396000 0.057360 -0.039918
N41   N     N_R   0.950490 0.604000 0.057360 -0.035483
N42   N     N_R   0.525490 0.028390 0.207550 -0.035801
Ni1   Ni    Ni4+2 0.433780 0.065390 0.868430 0.197852
Ni2   Ni    Ni4+2 0.433780 0.934610 0.868430 0.196406
Ni3   Ni    Ni4+2 0.933780 0.565390 0.868430 0.197855
Ni4   Ni    Ni4+2 0.933780 0.434610 0.868430 0.196400
Ni5   Ni    Ni4+2 0.565800 0.934190 0.131570 0.245048
Ni6   Ni    Ni4+2 0.565800 0.065810 0.131570 0.261349
Ni7   Ni    Ni4+2 0.065800 0.434190 0.131570 0.245042
Ni8   Ni    Ni4+2 0.065800 0.565810 0.131570 0.261383
O1    O     O_3   0.035053 0.917104 0.575737 -0.781053
O2    O     O_3   0.043200 0.096577 0.546674 -0.785506
O3    O     O_3   0.534994 0.417249 0.575959 -0.781001
O4    O     O_3   0.543296 0.596675 0.546403 -0.785520
O5    O     O_3   0.687841 0.169294 0.198962 -0.792735
O6    O     O_3   0.678559 0.829302 0.197196 -0.805980
O7    O     O_3   0.187864 0.669253 0.199029 -0.792872
O8    O     O_3   0.178563 0.329301 0.197195 -0.805982

loop_
_geom_bond_atom_site_label_1
_geom_bond_atom_site_label_2
_ccdc_geom_bond_type
N18   N24   A    
C15   H120  S    
C74   C83   S    
C56   N32   S    
N10   Ni2   S    
C39   C41   S    
C40   C46   S    
N1    Ni1   S    
C83   H68   S    
C63   H48   S    
C81   H66   S    
N21   N25   A    
C6    C46   S    
H18   N32   S    
H7    N27   S    
C60   H41   S    
C47   N34   A    
C53   N33   S    
C51   N29   S    
C2    C22   A    
C58   N18   A    
C9    H114  S    
C43   C110  A    
N12   N38   A    
C106  N5    A    
C42   N38   A    
N7    N8    A    
C61   H42   S    
C1    H1    S    
H126  O1    S    
N38   Ni5   S    
N40   Ni7   S    
C27   C31   S    
C81   H64   S    
H21   N35   S    
C104  H104  S    
C93   C101  S    
C27   C35   S    
N16   Ni7   S    
N17   Ni8   S    
H12   N30   S    
C32   C34   S    
C59   H70   S    
C1    C110  A    
C19   C100  S    
C12   C20   A    
N7    Ni4   S    
C6    C106  A    
N8    Ni3   S    
C13   N25   A    
C70   C112  S    
C13   H124  S    
C20   C33   S    
C27   C46   S    
C102  H122  S    
H5    O4    S    
C64   C79   S    
C53   C71   S    
C90   H102  S    
C4    C89   A    
N34   N40   A    
C23   C72   S    
N20   N26   A    
C22   C58   A    
C96   H90   S    
C85   H79   S    
C98   H99   S    
C86   H80   S    
C36   N23   A    
C35   C40   S    
C7    C48   S    
C2    N24   A    
C16   H121  S    
C53   H34   S    
C102  N22   A    
C84   C93   S    
C93   H91   S    
C86   C95   S    
C75   H43   S    
C88   H100  S    
N26   Ni3   S    
C73   C77   S    
C69   O6    S    
C87   H86   S    
C31   N36   S    
H30   N37   S    
N14   N15   A    
N34   Ni4   S    
C62   H56   S    
C5    C103  S    
C16   C21   A    
C71   C79   S    
C28   C46   S    
C97   H97   S    
C64   C68   S    
C30   C48   S    
C37   C40   S    
H27   O8    S    
C16   N17   A    
C42   H52   S    
N24   Ni1   S    
C65   C70   S    
C91   O8    S    
C92   H103  S    
N3    N4    A    
C9    N10   A    
C78   H46   S    
C44   N40   A    
C8    N9    A    
C84   H82   S    
C45   N41   A    
C29   C38   S    
C79   H65   S    
C55   N31   S    
C50   C67   S    
C11   H117  S    
C87   C96   S    
C89   N2    A    
H14   N30   S    
C78   H77   S    
C95   C103  S    
C3    C44   A    
H8    N28   S    
C49   C66   S    
C62   C66   S    
C34   C39   S    
C87   H81   S    
C38   C41   S    
N15   Ni6   S    
C86   H85   S    
C49   C55   S    
C50   C56   S    
N25   Ni4   S    
C51   C53   S    
C40   H116  S    
C85   C99   S    
H6    N27   S    
C61   C67   S    
C67   C110  S    
C43   N39   A    
C65   H51   S    
H3    O2    S    
C61   H73   S    
N18   Ni6   S    
C103  C105  S    
C10   H115  S    
C13   C26   A    
C75   H74   S    
C94   H92   S    
C18   C99   S    
C57   C68   S    
C69   N19   A    
C87   C100  S    
C39   H105  S    
H26   O7    S    
C4    C88   A    
C95   H89   S    
C25   H39   S    
N19   N22   A    
C57   C75   S    
C17   N26   A    
H23   O5    S    
C55   H36   S    
C28   C37   S    
C3    C47   A    
C33   C35   S    
C30   C39   S    
C97   H96   S    
C64   H58   S    
N42   Ni6   S    
C91   N21   A    
C25   C111  A    
C55   C73   S    
C9    C18   A    
H15   N31   S    
C83   H62   S    
H22   N35   S    
C59   C76   S    
C36   H50   S    
C3    C68   S    
N14   Ni5   S    
C59   H40   S    
C1    N1    A    
C11   C19   A    
N6    Ni1   S    
H25   O6    S    
C93   H87   S    
C29   C32   S    
N5    Ni2   S    
C24   C73   S    
C106  H109  S    
N5    N6    A    
H17   N32   S    
N23   Ni3   S    
C82   H67   S    
C36   C112  A    
C6    C107  A    
N2    N42   A    
C66   C111  S    
C86   C100  S    
C72   C81   S    
C107  H110  S    
C60   H71   S    
C62   C82   S    
C60   C66   S    
H31   N37   S    
C43   H53   S    
C82   H60   S    
C56   C74   S    
N2    Ni5   S    
C14   C20   A    
C108  H111  S    
C64   H49   S    
C96   H95   S    
C21   C34   S    
C26   C91   A    
C108  N7    A    
C76   H44   S    
C8    C18   A    
C63   C83   S    
N16   N17   A    
C25   N12   A    
C80   O7    S    
C65   C81   S    
N23   N41   A    
C10   C19   A    
C4    C101  S    
N19   Ni5   S    
C27   O1    S    
N21   Ni7   S    
C88   N42   A    
C104  H106  S    
C14   H119  S    
C47   H61   S    
C76   H75   S    
C7    C108  A    
C101  C104  S    
C98   C100  S    
C107  N6    A    
C80   N20   A    
C37   H83   S    
C73   C82   S    
C89   H101  S    
C58   O5    S    
N11   Ni3   S    
C84   C99   S    
C28   C31   S    
H9    N28   S    
C8    H113  S    
C85   H84   S    
C12   H118  S    
C49   N27   S    
C49   H13   S    
C12   N14   A    
C35   H72   S    
N9    Ni1   S    
C32   N37   S    
N1    N39   A    
C94   H88   S    
C33   C37   S    
C97   C104  S    
C59   C70   S    
H11   N29   S    
H19   N33   S    
C74   C78   S    
C96   C103  S    
C95   H93   S    
C71   C75   S    
C50   N28   S    
C52   H33   S    
H16   N31   S    
C23   C69   A    
C41   H2    S    
C72   C76   S    
H20   N33   S    
C57   H69   S    
C45   C112  A    
C51   H32   S    
C98   H98   S    
C98   C105  S    
C65   H59   S    
C63   H57   S    
C23   C102  A    
N20   Ni8   S    
H28   N36   S    
C92   N4    A    
C24   C80   A    
C94   C101  S    
C31   C33   S    
C84   H78   S    
C29   O3    S    
C5    C90   A    
C30   O4    S    
C51   C68   S    
N12   Ni2   S    
H29   N36   S    
C97   C99   S    
C52   C54   S    
H10   N29   S    
C63   C67   S    
C60   C77   S    
N11   N13   A    
C17   C24   A    
C29   C48   S    
C79   H63   S    
C105  H107  S    
C11   N13   A    
C7    C109  A    
C42   C111  A    
C85   C94   S    
C61   C78   S    
C105  H108  S    
C57   H38   S    
C44   H54   S    
C45   H55   S    
C109  H112  S    
C52   N30   S    
C109  N8    A    
C22   C71   S    
C77   H76   S    
C38   H94   S    
C34   C38   S    
N22   Ni2   S    
N9    N10   A    
N39   Ni6   S    
H4    O3    S    
C10   N11   A    
N41   Ni8   S    
C28   O2    S    
C50   H24   S    
C30   C32   S    
C14   N15   A    
C54   N35   S    
C26   C74   S    
C41   C48   S    
N13   Ni4   S    
N3    Ni8   S    
N4    Ni7   S    
C5    C92   A    
C52   C70   S    
C2    H123  S    
C15   C21   A    
C54   C72   S    
C90   N3    A    
C62   H47   S    
C56   H37   S    
C77   H45   S    
C54   H35   S    
C15   N16   A    
C17   H125  S    
