data_mof_unit_6208.cif
_audit_creation_date              2012-10-26T21:25:55-0400
_audit_creation_method            fapswitch 2.2
_symmetry_space_group_name_H-M    P1
_symmetry_Int_Tables_number       1
_space_group_crystal_system       triclinic
_cell_length_a                    10.952731
_cell_length_b                    10.881555
_cell_length_c                    12.679877
_cell_angle_alpha                 91.751158
_cell_angle_beta                  92.33269
_cell_angle_gamma                 90.866522
_cell_volume                      1509.06236599

loop_
_atom_site_label
_atom_site_type_symbol
_atom_type_description
_atom_site_fract_x
_atom_site_fract_y
_atom_site_fract_z
_atom_type_partial_charge
C1    C     C_R   0.261802 0.498928 0.501138 0.584071
C2    C     C_R   0.878752 0.703402 0.288837 0.022536
C3    C     C_R   0.129002 0.422294 0.689768 -0.015208
C4    C     C_R   0.870998 0.577705 0.310232 -0.015210
C5    C     C_R   0.173323 0.506015 0.769175 -0.083944
C6    C     C_R   0.826677 0.493984 0.230825 -0.083944
C7    C     C_R   0.209333 0.464436 0.868597 -0.154797
C8    C     C_R   0.790667 0.535562 0.131403 -0.154797
C9    C     C_R   0.199768 0.339549 0.890055 -0.104981
C10   C     C_R   0.800232 0.660449 0.109944 -0.104982
C11   C     C_R   0.937825 0.470297 0.591107 0.223337
C12   C     C_R   0.738197 0.501072 0.498862 0.584071
C13   C     C_R   0.062175 0.529703 0.408893 0.223338
C14   C     C_R   0.871832 0.500118 0.497676 0.000432
C15   C     C_R   0.128168 0.499883 0.502324 0.000432
C16   C     C_R   0.500642 0.261838 0.501756 0.540786
C17   C     C_R   0.499358 0.738161 0.498244 0.540785
C18   C     C_R   0.934172 0.531953 0.406709 -0.085411
C19   C     C_R   0.065828 0.468048 0.593291 -0.085411
C20   C     C_2   0.476786 0.457440 0.031567 -0.141223
C21   C     C_2   0.523214 0.542560 0.968433 -0.141222
C22   C     C_1   0.521251 0.528076 0.852757 0.166992
C23   C     C_R   0.499428 0.871648 0.495866 -0.015964
C24   C     C_1   0.478749 0.471924 0.147243 0.166992
C25   C     C_R   0.730151 0.210555 0.822858 0.315439
C26   C     C_R   0.269849 0.789445 0.177141 0.315438
C27   C     C_R   0.692612 0.172556 0.719652 0.272065
C28   C     C_R   0.307388 0.827445 0.280348 0.272066
C29   C     C_R   0.572681 0.123203 0.699090 -0.091168
C30   C     C_R   0.427319 0.876798 0.300910 -0.091168
C31   C     C_R   0.492025 0.113394 0.783545 0.224207
C32   C     C_R   0.507976 0.886606 0.216455 0.224207
C33   C     C_R   0.531516 0.148604 0.886567 0.293348
C34   C     C_R   0.500572 0.128352 0.504134 -0.015963
C35   C     C_R   0.468485 0.851396 0.113433 0.293348
C36   C     C_R   0.649937 0.198231 0.906108 0.277368
C37   C     C_R   0.350063 0.801769 0.093891 0.277369
C38   C     C_R   0.536163 0.936510 0.589146 -0.121231
C39   C     C_R   0.463837 0.063490 0.410854 -0.121231
C40   C     C_R   0.463027 0.936072 0.405115 -0.050516
C41   C     C_R   0.536973 0.063928 0.594885 -0.050516
C42   C     C_R   0.155070 0.254656 0.811266 0.317448
C43   C     C_R   0.844929 0.745342 0.188732 0.317448
C44   C     C_R   0.121247 0.296598 0.711162 0.022538
Cu1   Cu    Cu3+1 0.492140 0.492110 0.395880 1.040721
Cu2   Cu    Cu3+1 0.507860 0.507890 0.604120 1.040721
F1    F     F_    0.687662 0.232822 0.006207 -0.663667
F2    F     F_    0.312339 0.767178 0.993793 -0.663666
H1    H     H_    0.175654 0.603691 0.755109 0.165633
H2    H     H_    0.775323 0.690620 0.031524 0.122845
H3    H     H_    0.082591 0.232087 0.651637 0.168395
H4    H     H_    0.917408 0.767913 0.348361 0.168395
H5    H     H_    0.921076 0.468706 0.743837 0.341364
H6    H     H_    0.078924 0.531297 0.256162 0.341365
H7    H     H_    0.861938 0.280376 0.915466 0.358752
H8    H     H_    0.138062 0.719625 0.084534 0.358753
H9    H     H_    0.741330 0.156029 0.572774 0.320846
H10   H     H_    0.258671 0.843971 0.427226 0.320846
H11   H     H_    0.348258 0.066211 0.694201 0.334985
H12   H     H_    0.824346 0.396309 0.244891 0.165634
H13   H     H_    0.651742 0.933788 0.305799 0.334984
H14   H     H_    0.492863 0.154958 0.035557 0.375510
H15   H     H_    0.507138 0.845042 0.964444 0.375509
H16   H     H_    0.165610 0.117220 0.904997 0.366358
H17   H     H_    0.834389 0.882778 0.095000 0.366357
H18   H     H_    0.241385 0.529601 0.930078 0.181721
H19   H     H_    0.758616 0.470397 0.069922 0.181723
H20   H     H_    0.563021 0.626381 0.003759 0.151225
H21   H     H_    0.436979 0.373619 0.996241 0.151224
H22   H     H_    0.564862 0.887872 0.659119 0.164754
H23   H     H_    0.435137 0.112128 0.340881 0.164754
H24   H     H_    0.224677 0.309377 0.968475 0.122847
N1    N     N_1   0.480320 0.480250 0.239400 -0.182960
N2    N     N_1   0.519680 0.519750 0.760600 -0.182960
O1    O     O_R   0.313000 0.493330 0.412070 -0.430362
O2    O     O_3   0.125236 0.560939 0.320883 -0.601938
O3    O     O_3   0.847974 0.256044 0.839987 -0.610077
O4    O     O_3   0.152026 0.743957 0.160012 -0.610078
O5    O     O_3   0.777895 0.181818 0.642584 -0.603978
O6    O     O_3   0.222104 0.818182 0.357416 -0.603977
O7    O     O_3   0.375018 0.064689 0.769603 -0.600307
O8    O     O_3   0.624982 0.935311 0.230397 -0.600306
O9    O     O_3   0.451703 0.131527 0.966717 -0.637708
O10   O     O_3   0.548298 0.868472 0.033284 -0.637708
O11   O     O_3   0.138505 0.131715 0.830886 -0.612594
O12   O     O_R   0.687000 0.506670 0.587930 -0.430362
O13   O     O_3   0.861494 0.868283 0.169112 -0.612592
O14   O     O_R   0.326280 0.506660 0.587930 -0.516207
O15   O     O_R   0.673720 0.493340 0.412070 -0.516207
O16   O     O_R   0.493370 0.312980 0.412070 -0.507552
O17   O     O_R   0.506630 0.687020 0.587930 -0.507552
O18   O     O_R   0.506650 0.326310 0.587930 -0.499349
O19   O     O_R   0.493350 0.673690 0.412070 -0.499350
O20   O     O_3   0.874764 0.439062 0.679117 -0.601938

loop_
_geom_bond_atom_site_label_1
_geom_bond_atom_site_label_2
_ccdc_geom_bond_type
H14   O9    S    
C38   H22   S    
C16   O16   A    
C27   C29   A    
H9    O5    S    
C17   O17   A    
C9    H24   S    
Cu1   O19   S    
Cu1   Cu2   S    
C15   C19   A    
C11   C19   A    
C9    C42   A    
C26   O4    S    
C13   C18   A    
C25   O3    S    
C35   C37   A    
C27   O5    S    
H13   O8    S    
H7    O3    S    
C11   C14   A    
C24   N1    T    
Cu2   O18   S    
C23   C40   A    
C33   C36   A    
H8    O4    S    
C36   F1    S    
Cu1   N1    S    
C14   C18   A    
C16   C34   S    
C20   C24   S    
C31   C33   A    
C3    C19   S    
C1    C15   S    
Cu1   O15   S    
H10   O6    S    
C4    C18   S    
C1    O14   A    
H5    O20   S    
C21   C22   S    
C5    H1    S    
C34   C41   A    
C42   C44   A    
H17   O13   S    
Cu2   O14   S    
C3    C44   A    
C34   C39   A    
C1    O1    A    
C32   C35   A    
C6    H12   S    
C12   O15   A    
C38   C41   A    
C4    C6    A    
C39   C40   A    
C5    C7    A    
C6    C8    A    
Cu2   O17   S    
C2    C4    A    
C13   O2    S    
C2    C43   A    
C30   C40   S    
C42   O11   S    
C17   C23   S    
C37   F2    S    
Cu1   O16   S    
C33   O9    S    
C2    H4    S    
H6    O2    S    
C11   O20   S    
C12   C14   S    
C16   O18   A    
C13   C15   A    
C21   H20   S    
C20   H21   S    
C17   O19   A    
C22   N2    T    
C10   H2    S    
H16   O11   S    
Cu2   N2    S    
C44   H3    S    
C7    C9    A    
C29   C41   S    
C10   C43   A    
H11   O7    S    
C3    C5    A    
C35   O10   S    
C26   C37   A    
C25   C27   A    
C23   C38   A    
C32   O8    S    
C26   C28   A    
C31   O7    S    
C12   O12   A    
H15   O10   S    
Cu1   O1    S    
C43   O13   S    
C28   C30   A    
C29   C31   A    
C7    H18   S    
C30   C32   A    
C28   O6    S    
C25   C36   A    
C20   C21   D    
C8    H19   S    
C8    C10   A    
C39   H23   S    
Cu2   O12   S    
