data_mof_unit_61436.cif
_audit_creation_date              2012-12-10T17:11:59-0500
_audit_creation_method            fapswitch 2.2
_symmetry_space_group_name_H-M    P1
_symmetry_Int_Tables_number       1
_space_group_crystal_system       triclinic
_cell_length_a                    21.669377
_cell_length_b                    21.677775
_cell_length_c                    21.876575
_cell_angle_alpha                 61.161429
_cell_angle_beta                  119.084572
_cell_angle_gamma                 89.635291
_cell_volume                      7467.37782983

loop_
_atom_site_label
_atom_site_type_symbol
_atom_type_description
_atom_site_fract_x
_atom_site_fract_y
_atom_site_fract_z
_atom_type_partial_charge
C1    C     C_R   0.620408 0.499323 0.501072 0.955117
C2    C     C_3   0.289395 0.708494 0.082323 0.145000
C3    C     C_3   0.203506 0.812051 0.974134 0.209654
C4    C     C_3   0.206880 0.791404 0.917802 0.130658
C5    C     C_3   0.289376 0.787312 0.029100 -0.179745
C6    C     C_3   0.292217 0.767009 0.971431 -0.190359
C7    C     C_1   0.335617 0.662503 0.173282 -0.021881
C8    C     C_1   0.161853 0.836900 0.826765 -0.017721
C9    C     C_R   0.760781 0.387616 0.656020 0.518794
C10   C     C_R   0.826062 0.330041 0.725923 -0.233258
C11   C     C_R   0.887548 0.321526 0.722855 0.597256
C12   C     C_R   0.419416 0.580900 0.337467 0.965670
C13   C     C_R   0.884713 0.371740 0.650557 -0.312405
C14   C     C_R   0.819518 0.432640 0.578520 -0.028882
C15   C     C_R   0.755690 0.438424 0.580549 -0.035764
C16   C     C_R   0.689109 0.495524 0.507281 -0.039497
C17   C     C_R   0.685649 0.547445 0.435328 -0.243150
C18   C     C_R   0.748105 0.543991 0.433924 -0.169068
C19   C     C_R   0.815150 0.488127 0.504476 -0.027909
C20   C     C_3   0.707787 0.250636 0.030238 -0.216065
C21   C     C_3   0.718097 0.322215 0.973448 -0.299053
C22   C     C_1   0.623303 0.375600 0.751474 -0.087864
C23   C     C_R   0.378239 0.501862 0.496492 0.946089
C24   C     C_1   0.875336 0.128802 0.248633 -0.130652
C25   C     C_3   0.697660 0.223665 0.973309 0.606491
C26   C     C_3   0.707655 0.294198 0.917451 -0.090871
C27   C     C_3   0.781781 0.183940 0.026884 0.055652
C28   C     C_3   0.792124 0.212016 0.082670 -0.049903
C29   C     C_3   0.791396 0.255355 0.970685 0.618924
C30   C     C_3   0.803275 0.282894 0.027623 -0.217830
C31   C     C_1   0.661336 0.338803 0.826549 0.098913
C32   C     C_1   0.837972 0.166828 0.173574 0.073020
C33   C     C_R   0.243200 0.631709 0.358115 0.530669
C34   C     C_R   0.578741 0.419203 0.662432 0.984233
C35   C     C_R   0.184561 0.698107 0.302290 0.036166
C36   C     C_R   0.129104 0.705656 0.316028 0.039662
C37   C     C_R   0.129908 0.645096 0.382019 0.554682
C38   C     C_R   0.186448 0.575553 0.435812 -0.139775
C39   C     C_R   0.247061 0.571185 0.428127 -0.136002
C40   C     C_R   0.309028 0.505582 0.490169 -0.013809
C41   C     C_R   0.308129 0.443618 0.552845 -0.206867
C42   C     C_R   0.246502 0.445515 0.556063 -0.167274
C43   C     C_R   0.185618 0.510140 0.498019 -0.024245
C44   C     C_R   0.995701 0.884328 0.490952 0.912269
C45   C     C_3   0.206965 0.712588 0.971200 -0.188642
C46   C     C_R   0.081002 0.918780 0.662529 0.895179
C47   C     C_R   0.001789 0.118083 0.503893 0.890794
C48   C     C_R   0.919125 0.082924 0.337618 0.914068
C49   C     C_R   0.998229 0.619698 0.501408 0.981973
C50   C     C_R   0.880116 0.493989 0.500881 0.847776
C51   C     C_R   0.998495 0.380036 0.499355 0.924818
C52   C     C_R   0.120066 0.504468 0.499590 0.979297
C53   C     C_R   0.852590 0.853318 0.399532 0.182639
C54   C     C_R   0.792860 0.826577 0.394221 -0.181596
C55   C     C_R   0.805272 0.750785 0.442459 -0.176678
C56   C     C_3   0.293076 0.687425 0.026270 -0.153854
C57   C     C_R   0.875393 0.701003 0.487147 0.125694
C58   C     C_R   0.933072 0.728079 0.481933 -0.020778
C59   C     C_R   0.925588 0.802931 0.453235 0.046738
C60   C     C_R   0.991737 0.822374 0.481047 -0.134971
C61   C     C_R   0.059273 0.773883 0.515314 -0.206693
C62   C     C_R   0.062442 0.705996 0.524787 0.193166
C63   C     C_R   0.998615 0.683732 0.506030 -0.133000
C64   C     C_R   0.968610 0.133941 0.611843 -0.134387
C65   C     C_R   0.940058 0.147682 0.650640 -0.109206
C66   C     C_R   0.923719 0.218377 0.633865 -0.091434
C67   C     C_1   0.374027 0.624834 0.248388 -0.106926
C68   C     C_R   0.939682 0.274376 0.581842 -0.131847
C69   C     C_R   0.972085 0.260483 0.545512 0.022781
C70   C     C_R   0.981281 0.191398 0.555238 0.096797
C71   C     C_R   0.003452 0.182148 0.508365 -0.201374
C72   C     C_R   0.022569 0.237468 0.459506 -0.275736
C73   C     C_R   0.019053 0.302932 0.455364 0.623811
C74   C     C_R   0.994451 0.314378 0.498430 -0.248805
C75   C     C_1   0.124886 0.874382 0.751624 -0.152587
C76   C     C_3   0.204062 0.732811 0.028937 -0.155998
H1    H     H_    0.330701 0.635374 0.049293 0.152131
H2    H     H_    0.934631 0.359673 0.653763 0.209438
H3    H     H_    0.744049 0.586522 0.377586 0.171841
H4    H     H_    0.691291 0.379497 0.950195 0.196626
H5    H     H_    0.673784 0.247585 0.055974 0.185188
H6    H     H_    0.847829 0.306372 0.051174 0.186690
H7    H     H_    0.355744 0.393607 0.599990 0.156412
H8    H     H_    0.172497 0.682706 0.945974 0.163922
H9    H     H_    0.245996 0.395681 0.603572 0.167779
H10   H     H_    0.110390 0.787790 0.536802 0.189651
H11   H     H_    0.736954 0.864628 0.353754 0.176030
H12   H     H_    0.760538 0.730790 0.445489 0.174891
H13   H     H_    0.327610 0.781714 0.946409 0.160397
H14   H     H_    0.039623 0.230211 0.423683 0.195435
H15   H     H_    0.981445 0.077911 0.627746 0.156439
H16   H     H_    0.929652 0.103612 0.692912 0.164015
H17   H     H_    0.899203 0.229580 0.661745 0.165447
H18   H     H_    0.925007 0.329085 0.568181 0.111177
H19   H     H_    0.323684 0.817307 0.054277 0.166482
H20   H     H_    0.168708 0.718282 0.054031 0.176992
H21   H     H_    0.633963 0.590728 0.379602 0.139301
H22   H     H_    0.828816 0.291735 0.782829 0.240761
O1    O     O_R   0.591660 0.448290 0.500000 -0.605135
O2    O     O_R   0.948250 0.908380 0.499990 -0.604771
O3    O     O_R   0.113330 0.938270 0.623230 -0.611423
O4    O     O_R   0.009880 0.938380 0.623210 -0.617601
O5    O     O_R   0.051750 0.091470 0.500010 -0.616488
O6    O     O_R   0.948300 0.091580 0.500000 -0.630293
O7    O     O_R   0.990120 0.061470 0.376790 -0.609371
O8    O     O_R   0.886670 0.061580 0.376770 -0.597858
O9    O     O_R   0.965170 0.626380 0.430470 -0.563079
O10   O     O_R   0.034730 0.556800 0.569600 -0.598651
O11   O     O_R   0.873600 0.534810 0.430420 -0.639867
O12   O     O_R   0.591590 0.551700 0.500020 -0.618120
O13   O     O_R   0.943150 0.465220 0.569550 -0.616433
O14   O     O_R   0.965270 0.443220 0.430400 -0.587857
O15   O     O_R   0.034830 0.373630 0.569530 -0.632869
O16   O     O_R   0.056850 0.534790 0.430450 -0.559336
O17   O     O_R   0.126400 0.465210 0.569580 -0.632505
O18   O     O_R   0.438430 0.509910 0.376770 -0.632164
O19   O     O_R   0.438360 0.613320 0.376790 -0.576461
O20   O     O_R   0.408410 0.448300 0.499980 -0.632027
O21   O     O_R   0.408340 0.551710 0.500000 -0.591997
O22   O     O_R   0.561640 0.386680 0.623210 -0.579838
O23   O     O_R   0.561570 0.490090 0.623230 -0.619591
O24   O     O_R   0.051700 0.908270 0.500000 -0.618200
Zn1   Zn    Zn3+2 0.500040 0.430950 0.499990 1.028584
Zn2   Zn    Zn3+2 0.499960 0.569050 0.500010 1.044815
Zn3   Zn    Zn3+2 0.069070 0.999850 0.500010 1.011291
Zn4   Zn    Zn3+2 0.930930 1.000000 0.499990 1.003912
Zn5   Zn    Zn3+2 0.953560 0.546470 0.407100 1.075442
Zn6   Zn    Zn3+2 0.046440 0.453550 0.592900 1.042448
F1    F     F_    0.950737 0.264403 0.790605 -0.617355
F2    F     F_    0.833487 0.258660 0.938447 -0.617670
I1    I     I_    0.832345 0.074272 0.069305 -0.110003
F3    F     F_    0.642574 0.194078 0.943887 -0.620684
F4    F     F_    0.293766 0.625762 0.340306 -0.658113
I2    I     I_    0.183394 0.785310 0.198578 -0.165186
I3    I     I_    0.041944 0.807268 0.238567 -0.116647
F5    F     F_    0.077436 0.656871 0.395398 -0.633547
I4    I     I_    0.823147 0.964119 0.302167 -0.301327
I5    I     I_    0.898031 0.594563 0.588375 -0.309716
I6    I     I_    0.167513 0.637156 0.576403 -0.283585
F6    F     F_    0.040663 0.354875 0.410214 -0.648559
I7    I     I_    0.131718 0.911671 0.931596 -0.286419
F7    F     F_    0.704101 0.394221 0.664620 -0.672878

loop_
_geom_bond_atom_site_label_1
_geom_bond_atom_site_label_2
_ccdc_geom_bond_type
C65   H16   S    
C66   C68   A    
C21   C26   S    
C51   O14   A    
C49   C63   S    
O18   Zn1   S    
C27   C29   S    
C27   I1    S    
C41   C42   A    
C35   C36   A    
C3    I7    S    
C51   C74   S    
C4    C8    S    
C1    O1    A    
C23   O20   A    
C53   C59   A    
C49   O9    A    
O15   Zn6   S    
O21   Zn2   S    
C46   O4    A    
C51   O15   A    
C45   C76   S    
O2    Zn4   S    
C36   C37   A    
C37   C38   A    
C23   O21   A    
C5    C6    S    
C43   C52   S    
C20   C25   S    
C15   C16   A    
C41   H7    S    
C11   C13   A    
C18   C19   A    
C73   C74   A    
C55   H12   S    
C10   H22   S    
O23   Zn2   S    
O12   Zn2   S    
C13   H2    S    
O11   Zn5   S    
C48   O8    A    
C2    C7    S    
C45   C56   S    
C16   C17   A    
O14   Zn5   S    
O3    Zn3   S    
C70   C71   A    
C64   C70   A    
C62   I6    S    
C9    C10   A    
O22   Zn1   S    
C26   C31   S    
C20   H5    S    
C61   C62   A    
O5    Zn3   S    
C11   F1    S    
C35   I2    S    
C46   C75   S    
C5    H19   S    
C49   O10   A    
C4    C45   S    
C34   O22   A    
C38   C39   A    
C22   C34   S    
C46   O3    A    
C47   O5    A    
C22   C31   T    
C24   C48   S    
C28   C32   S    
C4    C6    S    
C61   H10   S    
C39   C40   A    
C42   H9    S    
C18   H3    S    
C12   C67   S    
C20   C28   S    
C3    C5    S    
C58   C59   A    
C53   C54   A    
C8    C75   T    
C68   H18   S    
O17   Zn6   S    
C60   C61   A    
C30   H6    S    
C24   C32   T    
C29   C30   S    
C1    O12   A    
C72   H14   S    
C48   O7    A    
C62   C63   A    
C17   C18   A    
C37   F5    S    
C69   C74   A    
C1    C16   S    
C33   C39   A    
O10   Zn6   S    
C3    C76   S    
C47   C71   S    
C66   H17   S    
C40   C41   A    
C34   O23   A    
C55   C57   A    
C53   I4    S    
C45   H8    S    
C42   C43   A    
C3    C4    S    
C36   I3    S    
O13   Zn6   S    
C2    C76   S    
O1    Zn1   S    
C52   O17   A    
C58   C63   A    
C54   C55   A    
C47   O6    A    
C14   C19   A    
O19   Zn2   S    
C6    C56   S    
C72   C73   A    
O4    Zn4   S    
C9    F7    S    
C73   F6    S    
C52   O16   A    
C25   C27   S    
C6    H13   S    
C21   C30   S    
O8    Zn4   S    
O7    Zn3   S    
C64   C65   A    
O24   Zn3   S    
C28   C30   S    
C25   C26   S    
O9    Zn5   S    
C38   C43   A    
C2    C56   S    
C76   H20   S    
O16   Zn5   S    
C44   O2    A    
C19   C50   S    
C57   C58   A    
C54   H11   S    
C44   C60   S    
C21   H4    S    
C44   O24   A    
C50   O13   A    
C33   C35   A    
C57   I5    S    
O20   Zn1   S    
C50   O11   A    
C9    C15   A    
C69   C70   A    
C68   C69   A    
C10   C11   A    
C56   H1    S    
C7    C67   T    
C12   O19   A    
C2    C5    S    
C29   F2    S    
C33   F4    S    
C59   C60   A    
O6    Zn4   S    
C20   C21   S    
C26   C29   S    
C65   C66   A    
C27   C28   S    
C14   C15   A    
C64   H15   S    
C71   C72   A    
C13   C14   A    
C25   F3    S    
C17   H21   S    
C23   C40   S    
C12   O18   A    
