data_mof_unit_52827.cif
_audit_creation_date              2012-12-10T19:09:07-0500
_audit_creation_method            fapswitch 2.2
_symmetry_space_group_name_H-M    P1
_symmetry_Int_Tables_number       1
_space_group_crystal_system       triclinic
_cell_length_a                    17.783328
_cell_length_b                    10.948307
_cell_length_c                    9.57874
_cell_angle_alpha                 91.249127
_cell_angle_beta                  90.0607
_cell_angle_gamma                 90.721717
_cell_volume                      1864.36237909

loop_
_atom_site_label
_atom_site_type_symbol
_atom_type_description
_atom_site_fract_x
_atom_site_fract_y
_atom_site_fract_z
_atom_type_partial_charge
C1    C     C_R   0.497864 0.262662 0.498964 0.800625
C2    C     C_R   0.887474 0.511096 0.511593 -0.072458
C3    C     C_1   0.968267 0.510336 0.511937 -0.034566
C4    C     C_1   0.035639 0.508800 0.510137 -0.019120
C5    C     C_R   0.154398 0.434792 0.601079 -0.205814
C6    C     C_R   0.232925 0.431354 0.598722 0.110515
C7    C     C_R   0.273204 0.500992 0.500600 -0.038257
C8    C     C_R   0.233780 0.572874 0.404468 0.108500
C9    C     C_R   0.154972 0.574325 0.408417 -0.179696
C10   C     C_R   0.115852 0.506188 0.506718 0.080600
C11   C     C_R   0.485352 0.066862 0.622994 0.014453
C12   C     C_R   0.355892 0.499856 0.500046 0.846706
C13   C     C_R   0.490387 0.130027 0.497878 -0.103473
C14   C     C_R   0.486139 0.061879 0.371691 -0.174576
C15   C     C_R   0.487148 0.933741 0.372704 -0.194472
C16   C     C_R   0.494019 0.871543 0.499601 -0.076413
C17   C     C_R   0.490162 0.941062 0.623000 0.041836
C18   C     C_3   0.535806 0.942287 0.754267 -0.087651
C19   C     C_3   0.525419 0.080260 0.761197 0.150494
C20   C     C_R   0.558455 0.550514 0.075203 0.210171
C21   C     C_R   0.445769 0.438928 0.071351 0.039656
C22   C     C_R   0.445059 0.441740 0.923039 -0.086569
C23   C     C_R   0.499496 0.737918 0.500682 0.771449
C24   C     C_R   0.561355 0.542035 0.927773 0.186044
C25   C     C_3   0.592970 0.667321 0.920294 -0.111997
C26   C     C_3   0.580261 0.682615 0.075443 -0.472213
C27   C     C_R   0.644728 0.500398 0.500468 0.786592
C28   C     C_R   0.847495 0.442590 0.609705 0.197632
C29   C     C_R   0.768821 0.438807 0.606366 0.127689
C30   C     C_R   0.728676 0.503377 0.503455 -0.202525
C31   C     C_R   0.770122 0.572862 0.405836 0.079201
C32   C     C_R   0.848926 0.576814 0.410594 -0.008696
Cu1   Cu    Cu3+1 0.500000 0.499980 0.640670 0.933244
Cu2   Cu    Cu3+1 0.500000 0.500020 0.359330 0.964129
H1    H     H_    0.485663 0.884276 0.273770 0.160043
H2    H     H_    0.508107 0.893905 0.841267 0.117239
H3    H     H_    0.400361 0.395884 0.865000 0.171191
H4    H     H_    0.557898 0.723487 0.855031 0.192625
H5    H     H_    0.631652 0.707472 0.133984 0.214269
H6    H     H_    0.531838 0.742549 0.099836 0.178933
H7    H     H_    0.123552 0.381213 0.676324 0.143276
H8    H     H_    0.124076 0.629407 0.335794 0.147414
H9    H     H_    0.485171 0.107048 0.272245 0.182978
N1    N     N_R   0.500470 0.500930 0.147930 -0.209686
N2    N     N_R   0.500480 0.500890 0.852020 -0.208739
O1    O     O_R   0.500000 0.319640 0.618810 -0.590956
O2    O     O_R   0.500010 0.319680 0.381230 -0.579329
O3    O     O_R   0.391250 0.499990 0.618840 -0.564446
O4    O     O_R   0.391260 0.500020 0.381250 -0.558725
O5    O     O_R   0.499990 0.680320 0.618770 -0.594571
O6    O     O_R   0.500000 0.680360 0.381190 -0.582850
O7    O     O_R   0.608740 0.499980 0.618750 -0.601767
O8    O     O_R   0.608750 0.500010 0.381160 -0.574568
N3    N     N_3   0.886109 0.374441 0.713554 -0.539050
H10   H     H_    0.919710 0.435017 0.772943 0.220997
H11   H     H_    0.921115 0.311587 0.662909 0.222576
N4    N     N_3   0.614330 0.909778 0.727414 -0.548135
H12   H     H_    0.642165 0.907224 0.823426 0.270491
H13   H     H_    0.616806 0.823098 0.680364 0.225423
C33   C     C_1   0.474998 0.117838 0.875772 0.217708
N5    N     N_1   0.435095 0.145171 0.966027 -0.322848
N6    N     N_3   0.596769 0.149075 0.760744 -0.550814
H14   H     H_    0.620838 0.142757 0.661380 0.234284
H15   H     H_    0.587689 0.241093 0.785576 0.235159
C34   C     C_1   0.388030 0.368308 0.138436 0.351521
N7    N     N_1   0.341414 0.310665 0.190996 -0.281676
N8    N     N_3   0.673078 0.669767 0.883807 -0.578080
H16   H     H_    0.678389 0.649653 0.777330 0.238174
H17   H     H_    0.701818 0.602236 0.937348 0.235362
N9    N     N_3   0.731396 0.361811 0.703799 -0.535893
H18   H     H_    0.700357 0.415418 0.773682 0.231375
H19   H     H_    0.695649 0.303405 0.646992 0.212049
N10   N     N_3   0.733447 0.640427 0.300229 -0.581945
H20   H     H_    0.708805 0.577238 0.230361 0.239091
H21   H     H_    0.692690 0.695663 0.347228 0.222616
C35   C     C_1   0.890071 0.647808 0.309196 0.316934
N11   N     N_1   0.922929 0.704426 0.228274 -0.281278
N12   N     N_3   0.271549 0.354722 0.693888 -0.588546
H22   H     H_    0.252480 0.264882 0.677078 0.224720
H23   H     H_    0.256690 0.381503 0.795497 0.221546
N13   N     N_3   0.273933 0.646149 0.305708 -0.563787
H24   H     H_    0.236526 0.688524 0.238369 0.219322
H25   H     H_    0.301794 0.716059 0.361978 0.209332

loop_
_geom_bond_atom_site_label_1
_geom_bond_atom_site_label_2
_ccdc_geom_bond_type
C8    C9    A    
Cu1   N2    S    
N10   H20   S    
C25   N8    S    
C12   O3    A    
C12   O4    A    
C7    C8    A    
Cu1   O7    S    
C11   C19   S    
C9    H8    S    
N6    H14   S    
C24   N2    A    
C28   C29   A    
C5    C6    A    
N12   H23   S    
C26   H5    S    
C31   N10   S    
C19   N6    S    
C15   C16   A    
C2    C32   A    
C18   C19   S    
N6    H15   S    
N13   H25   S    
C20   C24   A    
C16   C17   A    
N9    H18   S    
C9    C10   A    
C21   C22   A    
C27   C30   S    
Cu1   O1    S    
N10   H21   S    
C15   H1    S    
C20   N1    A    
Cu1   Cu2   S    
C7    C12   S    
N3    H11   S    
N8    H16   S    
Cu2   N1    S    
C35   N11   T    
C28   N3    S    
N12   H22   S    
C1    O2    A    
C23   O5    A    
C25   C26   S    
C22   H3    S    
N13   H24   S    
C8    N13   S    
C33   N5    T    
N8    H17   S    
C29   C30   A    
C25   H4    S    
C21   N1    A    
C18   N4    S    
C23   O6    A    
C31   C32   A    
C17   C18   S    
Cu2   O6    S    
C24   C25   S    
C16   C23   S    
N4    H13   S    
C1    C13   S    
C4    C10   S    
C3    C4    T    
C27   O7    A    
C29   N9    S    
C5    H7    S    
N3    H10   S    
C11   C17   A    
Cu2   O4    S    
C21   C34   S    
C32   C35   S    
N9    H19   S    
C27   O8    A    
C6    C7    A    
C19   C33   S    
C2    C3    S    
Cu1   O5    S    
C5    C10   A    
C11   C13   A    
C26   H6    S    
N4    H12   S    
C30   C31   A    
C20   C26   S    
C1    O1    A    
C6    N12   S    
C22   N2    A    
Cu2   O8    S    
C34   N7    T    
Cu1   O3    S    
C14   C15   A    
C2    C28   A    
Cu2   O2    S    
C13   C14   A    
C18   H2    S    
C14   H9    S    
