data_mof_unit_61444.cif
_audit_creation_date              2013-03-05T16:06:32-0500
_audit_creation_method            fapswitch 2.2
_symmetry_space_group_name_H-M    P1
_symmetry_Int_Tables_number       1
_space_group_crystal_system       triclinic
_cell_length_a                    45.305336
_cell_length_b                    32.048742
_cell_length_c                    32.047551
_cell_angle_alpha                 89.999167
_cell_angle_beta                  135.034769
_cell_angle_gamma                 89.997646
_cell_volume                      32883.3826692

loop_
_atom_site_label
_atom_site_type_symbol
_atom_site_description
_atom_site_fract_x
_atom_site_fract_y
_atom_site_fract_z
_atom_type_partial_charge
O1    O     O_R   0.560480 0.000000 0.595480 -0.570271
O2    O     O_R   0.060480 0.500000 0.595480 -0.570146
O3    O     O_R   0.560430 0.000000 0.525440 -0.580707
O4    O     O_R   0.060430 0.500000 0.525440 -0.580722
C1    C     C_R   0.580262 0.999995 0.580255 0.809633
C2    C     C_R   0.080262 0.499988 0.580255 0.809841
O5    O     O_R   0.500020 0.060460 0.535020 -0.557565
O6    O     O_R   0.500020 0.939540 0.535020 -0.557416
O7    O     O_R   0.000020 0.560460 0.535020 -0.557494
O8    O     O_R   0.000020 0.439540 0.535020 -0.557369
O9    O     O_R   0.499970 0.060450 0.464980 -0.575413
O10   O     O_R   0.499970 0.939550 0.464980 -0.575722
O11   O     O_R   0.999970 0.560450 0.464980 -0.575934
O12   O     O_R   0.999970 0.439550 0.464980 -0.575666
C3    C     C_R   0.500005 0.080186 0.500008 0.807686
C4    C     C_R   0.500005 0.919813 0.500008 0.807740
C5    C     C_R   0.000005 0.580186 0.500008 0.807862
C6    C     C_R   0.000005 0.419814 0.500008 0.807831
Cu1   Cu    Cu3+1 0.500020 0.000000 0.541470 1.071464
Cu2   Cu    Cu3+1 0.000020 0.500000 0.541470 1.071458
Cu3   Cu    Cu3+1 0.499960 0.000000 0.458530 1.037837
Cu4   Cu    Cu3+1 0.999960 0.500000 0.458530 1.037351
O13   O     O_R   0.439560 0.000000 0.474560 -0.566528
O14   O     O_R   0.939560 0.500000 0.474560 -0.566609
O15   O     O_R   0.439510 0.000000 0.404520 -0.565930
O16   O     O_R   0.939510 0.500000 0.404520 -0.566060
C7    C     C_R   0.419790 1.000000 0.419803 0.825054
C8    C     C_R   0.919790 0.500000 0.419803 0.825101
C9    C     C_3   0.534043 0.263587 0.553278 0.300996
C10   C     C_3   0.534279 0.736405 0.553048 0.301066
C11   C     C_3   0.034655 0.763588 0.552743 0.300993
C12   C     C_3   0.034304 0.236406 0.553036 0.301051
C13   C     C_3   0.534224 0.235717 0.514011 -0.310256
C14   C     C_3   0.533945 0.764277 0.513268 -0.311202
C15   C     C_3   0.033532 0.735718 0.512189 -0.310796
C16   C     C_3   0.033917 0.264277 0.513204 -0.310647
H1    H     H_    0.562447 0.224446 0.525566 0.197444
H2    H     H_    0.561943 0.775545 0.524228 0.196936
H3    H     H_    0.061184 0.724447 0.522248 0.197242
H4    H     H_    0.061892 0.275545 0.524103 0.197247
C17   C     C_1   0.499995 0.124902 0.500009 -0.087888
C18   C     C_1   0.499992 0.875097 0.500004 -0.087991
C19   C     C_1   0.999995 0.624903 0.500007 -0.088078
C20   C     C_1   0.999992 0.375097 0.500005 -0.087876
C21   C     C_1   0.499981 0.375073 0.500171 -0.116667
C22   C     C_1   0.499974 0.624927 0.500157 -0.117879
C23   C     C_1   0.999983 0.875073 0.500170 -0.117460
C24   C     C_1   0.999974 0.124927 0.500162 -0.117092
C25   C     C_3   0.500452 0.236228 0.539719 0.258205
C26   C     C_3   0.500958 0.763769 0.540200 0.258279
C27   C     C_3   0.001748 0.736228 0.540970 0.258429
C28   C     C_3   0.001010 0.263770 0.540259 0.258081
C29   C     C_3   0.499878 0.208211 0.500185 -0.094339
C30   C     C_3   0.499874 0.791788 0.500168 -0.094247
C31   C     C_3   0.999887 0.708211 0.500189 -0.094314
C32   C     C_3   0.999874 0.291789 0.500177 -0.094320
C33   C     C_3   0.465571 0.264434 0.486725 -0.330651
C34   C     C_3   0.465841 0.735571 0.487432 -0.330647
C35   C     C_3   0.966287 0.764432 0.488561 -0.330795
C36   C     C_3   0.965870 0.235572 0.487515 -0.330539
C37   C     C_3   0.499986 0.291778 0.500574 -0.023682
C38   C     C_3   0.499980 0.708221 0.500554 -0.023580
C39   C     C_3   0.000000 0.791779 0.500580 -0.023618
C40   C     C_3   0.999981 0.208221 0.500563 -0.023661
C41   C     C_3   0.465846 0.236553 0.447522 0.353665
C42   C     C_3   0.465600 0.763454 0.447714 0.353765
C43   C     C_3   0.965257 0.736552 0.448066 0.353774
C44   C     C_3   0.965576 0.263454 0.447745 0.353715
C45   C     C_3   0.499378 0.264076 0.460533 0.075901
C46   C     C_3   0.498856 0.735925 0.460009 0.077744
C47   C     C_3   0.998089 0.764077 0.459278 0.077243
C48   C     C_3   0.998804 0.235925 0.459968 0.076732
C49   C     C_1   0.499952 0.162482 0.500056 0.142842
C50   C     C_1   0.499948 0.837517 0.500044 0.142759
C51   C     C_1   0.999955 0.662482 0.500054 0.142804
C52   C     C_1   0.999948 0.337517 0.500048 0.142855
C53   C     C_1   0.499981 0.337497 0.500347 0.098099
C54   C     C_1   0.499973 0.662502 0.500328 0.097616
C55   C     C_1   0.999987 0.837498 0.500349 0.097723
C56   C     C_1   0.999973 0.162502 0.500336 0.097998
H5    H     H_    0.437442 0.275615 0.475477 0.209997
H6    H     H_    0.437941 0.724392 0.476781 0.209969
H7    H     H_    0.938737 0.775614 0.478813 0.209868
H8    H     H_    0.937992 0.224394 0.476925 0.210022
C57   C     C_3   0.764015 0.968475 0.788192 -0.183017
C58   C     C_3   0.763996 0.036700 0.779169 -0.181888
C59   C     C_3   0.264027 0.470604 0.790756 -0.183384
C60   C     C_3   0.263981 0.537835 0.776021 -0.181436
C61   C     C_3   0.736007 0.963278 0.720843 -0.180468
C62   C     C_3   0.735987 0.031504 0.711820 -0.181178
C63   C     C_3   0.236021 0.462117 0.723983 -0.180152
C64   C     C_3   0.235974 0.529349 0.709249 -0.181226
H9    H     H_    0.724309 0.933293 0.696331 0.160657
H10   H     H_    0.724273 0.057136 0.679953 0.160672
H11   H     H_    0.224337 0.431159 0.702044 0.160971
H12   H     H_    0.224246 0.553199 0.675294 0.160862
H13   H     H_    0.775728 0.942845 0.820060 0.159524
H14   H     H_    0.775693 0.066684 0.803682 0.160899
H15   H     H_    0.275755 0.446756 0.824713 0.159177
H16   H     H_    0.275664 0.568793 0.797962 0.161308
C65   C     C_1   0.625133 0.999978 0.625078 -0.139618
C66   C     C_1   0.125133 0.499950 0.625080 -0.139452
C67   C     C_1   0.874861 0.000009 0.874974 -0.138703
C68   C     C_1   0.374861 0.500017 0.874968 -0.138594
C69   C     C_3   0.736196 0.005087 0.774852 0.192888
C70   C     C_3   0.236193 0.508291 0.774284 0.192603
C71   C     C_3   0.708669 0.999961 0.708514 0.127226
C72   C     C_3   0.208668 0.499918 0.708515 0.126995
C73   C     C_3   0.791332 0.000019 0.791500 0.125634
C74   C     C_3   0.291332 0.500035 0.791491 0.125596
C75   C     C_3   0.763811 0.994892 0.725163 0.181605
C76   C     C_3   0.263811 0.491663 0.725724 0.182057
C77   C     C_1   0.662812 0.999963 0.662687 -0.026237
C78   C     C_1   0.162811 0.499921 0.662690 -0.026052
C79   C     C_1   0.837185 0.000019 0.837349 -0.027759
C80   C     C_1   0.337184 0.500036 0.837340 -0.027568
C81   C     C_3   0.236727 0.033424 0.256236 0.277939
C82   C     C_3   0.236733 0.966396 0.255952 0.278082
C83   C     C_3   0.736725 0.533832 0.255516 0.278271
C84   C     C_3   0.736731 0.466817 0.256665 0.277747
C85   C     C_3   0.264579 0.034724 0.244736 -0.219247
C86   C     C_3   0.264585 0.965439 0.244442 -0.218761
C87   C     C_3   0.764578 0.534292 0.244000 -0.219042
C88   C     C_3   0.764584 0.465017 0.245187 -0.218787
H17   H     H_    0.275897 0.063147 0.239805 0.203100
H18   H     H_    0.275909 0.937159 0.239270 0.203192
H19   H     H_    0.775898 0.562361 0.238467 0.203063
H20   H     H_    0.775908 0.436391 0.240625 0.203269
C89   C     C_1   0.375038 0.999998 0.375059 -0.117548
C90   C     C_1   0.875038 0.499998 0.375060 -0.117575
C91   C     C_1   0.124929 0.999996 0.124980 -0.051037
C92   C     C_1   0.624927 0.499996 0.124979 -0.051060
C93   C     C_3   0.264608 0.999821 0.304619 -0.223382
C94   C     C_3   0.764607 0.500676 0.304614 -0.223564
C95   C     C_3   0.291727 0.999995 0.291730 0.006413
C96   C     C_3   0.791727 0.499995 0.291732 0.006460
C97   C     C_3   0.208332 0.999993 0.208354 -0.126862
C98   C     C_3   0.708330 0.499995 0.208354 -0.126865
C99   C     C_3   0.236702 0.000162 0.198015 0.276248
C100  C     C_3   0.736701 0.499336 0.198023 0.276239
C101  C     C_1   0.337428 0.999997 0.337441 0.084908
C102  C     C_1   0.837428 0.499997 0.337443 0.084902
C103  C     C_1   0.162537 0.999994 0.162574 0.188830
C104  C     C_1   0.662535 0.499995 0.162573 0.188798
H21   H     H_    0.275948 0.999678 0.348695 0.200377
H22   H     H_    0.775947 0.501234 0.348686 0.200243
O17   O     O_R   0.534970 0.500000 0.595520 -0.565202
O18   O     O_R   0.034970 0.000000 0.595520 -0.565189
O19   O     O_R   0.464980 0.500000 0.525470 -0.575427
O20   O     O_R   0.964980 0.000000 0.525470 -0.575460
C105  C     C_R   0.499963 0.499999 0.580195 0.821862
C106  C     C_R   0.999963 0.999999 0.580195 0.821635
O21   O     O_R   0.534980 0.439530 0.535070 -0.557433
O22   O     O_R   0.534980 0.560470 0.535070 -0.558732
O23   O     O_R   0.034980 0.939530 0.535070 -0.557805
O24   O     O_R   0.034980 0.060470 0.535070 -0.557828
O25   O     O_R   0.465000 0.439530 0.465010 -0.578908
O26   O     O_R   0.465000 0.560470 0.465010 -0.578881
O27   O     O_R   0.965000 0.939530 0.465010 -0.578995
O28   O     O_R   0.965000 0.060470 0.465010 -0.578985
C107  C     C_R   0.499989 0.419787 0.500042 0.810720
C108  C     C_R   0.499987 0.580213 0.500038 0.809224
C109  C     C_R   0.999990 0.919786 0.500042 0.809559
C110  C     C_R   0.999987 0.080213 0.500039 0.810003
Cu5   Cu    Cu3+1 0.541430 0.500000 0.541530 1.073057
Cu6   Cu    Cu3+1 0.041430 0.000000 0.541530 1.073871
Cu7   Cu    Cu3+1 0.458550 0.500000 0.458570 1.021186
Cu8   Cu    Cu3+1 0.958550 0.000000 0.458570 1.021001
O29   O     O_R   0.535000 0.500000 0.474630 -0.556325
O30   O     O_R   0.035000 0.000000 0.474630 -0.555931
O31   O     O_R   0.465020 0.500000 0.404580 -0.584129
O32   O     O_R   0.965020 0.000000 0.404580 -0.584260
C111  C     C_R   0.500027 0.500008 0.419846 0.804783
C112  C     C_R   0.000027 1.000000 0.419847 0.804640
O33   O     O_R   0.000030 0.965010 0.060550 -0.574748
O34   O     O_R   0.000030 0.034990 0.060550 -0.574358
O35   O     O_R   0.500030 0.465010 0.060550 -0.573891
O36   O     O_R   0.500030 0.534990 0.060550 -0.575148
C113  C     C_R   0.000048 1.000000 0.080335 0.810949
C114  C     C_R   0.500049 0.499999 0.080335 0.810906
O37   O     O_R   0.939530 0.965000 0.939580 -0.576843
O38   O     O_R   0.939530 0.035000 0.939580 -0.576816
O39   O     O_R   0.439530 0.465000 0.939580 -0.576748
O40   O     O_R   0.439530 0.535000 0.939580 -0.576862
C115  C     C_R   0.919728 0.000002 0.919785 0.810948
C116  C     C_R   0.419728 0.500003 0.919784 0.810947
Cu9   Cu    Cu3+1 0.999990 0.958550 0.000050 1.057952
Cu10  Cu    Cu3+1 0.999990 0.041450 0.000050 1.058903
Cu11  Cu    Cu3+1 0.499990 0.458550 0.000050 1.059109
Cu12  Cu    Cu3+1 0.499990 0.541450 0.000050 1.058057
O41   O     O_R   0.999960 0.964990 0.939550 -0.562837
O42   O     O_R   0.999960 0.035010 0.939550 -0.562395
O43   O     O_R   0.499960 0.464990 0.939550 -0.562725
O44   O     O_R   0.499960 0.535010 0.939550 -0.562479
O45   O     O_R   0.060450 0.965000 0.060520 -0.560018
O46   O     O_R   0.060450 0.035000 0.060520 -0.560045
O47   O     O_R   0.560450 0.465000 0.060520 -0.559719
O48   O     O_R   0.560450 0.535000 0.060520 -0.560320
C117  C     C_R   0.999955 0.000000 0.919851 0.812046
C118  C     C_R   0.499955 0.500000 0.919852 0.812040
C119  C     C_R   0.080188 0.999999 0.080254 0.815654
C120  C     C_R   0.580188 0.499999 0.080253 0.815584
C121  C     C_3   0.017385 0.034868 0.781067 0.282500
C122  C     C_3   0.021402 0.967441 0.785090 0.282550
C123  C     C_3   0.518003 0.534554 0.781687 0.282493
C124  C     C_3   0.520828 0.467060 0.784516 0.282403
C125  C     C_3   0.478680 0.533419 0.714487 -0.024371
C126  C     C_3   0.481547 0.464915 0.717357 -0.025583
C127  C     C_3   0.978091 0.033041 0.713899 -0.024317
C128  C     C_3   0.982169 0.964603 0.717981 -0.025464
C129  C     C_1   0.499935 0.499996 0.624823 -0.138408
C130  C     C_1   0.999935 0.999997 0.624823 -0.138538
C131  C     C_1   0.999937 0.000001 0.875183 -0.053176
C132  C     C_1   0.499939 0.500000 0.875184 -0.053131
C133  C     C_3   0.539499 0.501644 0.775319 -0.029378
C134  C     C_3   0.039457 0.002346 0.775276 -0.029560
C135  C     C_3   0.499907 0.499992 0.707998 0.023914
C136  C     C_3   0.999904 0.999995 0.707995 0.024002
C137  C     C_3   0.999912 0.999999 0.791925 -0.194620
C138  C     C_3   0.499915 0.499995 0.791926 -0.194620
C139  C     C_3   0.960939 0.997683 0.724618 0.290043
C140  C     C_3   0.460902 0.498367 0.724579 0.290019
C141  C     C_1   0.499917 0.499994 0.662341 0.050882
C142  C     C_1   0.999916 0.999996 0.662340 0.050792
C143  C     C_1   0.999924 0.000000 0.837627 0.196951
C144  C     C_1   0.499926 0.499997 0.837629 0.196925
C145  C     C_3   0.021446 0.966037 0.257103 -0.230562
C146  C     C_3   0.019304 0.035209 0.254957 -0.230973
C147  C     C_3   0.515049 0.462801 0.250715 -0.231850
C148  C     C_3   0.525275 0.531246 0.260920 -0.229644
C149  C     C_3   0.476077 0.469212 0.239881 0.103822
C150  C     C_3   0.486131 0.536510 0.249914 0.105705
C151  C     C_3   0.981955 0.965402 0.245753 0.105126
C152  C     C_3   0.979849 0.033414 0.243642 0.104549
H23   H     H_    0.038971 0.938438 0.263159 0.185622
H24   H     H_    0.035089 0.063834 0.259268 0.185458
H25   H     H_    0.527372 0.432520 0.251577 0.185038
H26   H     H_    0.545913 0.556600 0.270075 0.185992
C153  C     C_1   0.500097 0.500012 0.375140 -0.121517
C154  C     C_1   0.000097 0.000003 0.375141 -0.121480
C155  C     C_1   0.000159 1.000000 0.125230 -0.137521
C156  C     C_1   0.500157 0.499992 0.125228 -0.137483
C157  C     C_3   0.538765 0.494257 0.302125 0.322707
C158  C     C_3   0.039174 0.001204 0.302535 0.322619
C159  C     C_3   0.500520 0.499973 0.292138 0.022316
C160  C     C_3   0.000523 0.000014 0.292142 0.022275
C161  C     C_3   0.000412 0.000007 0.208860 0.044859
C162  C     C_3   0.500407 0.499961 0.208855 0.044873
C163  C     C_3   0.961071 0.998796 0.197143 0.207835
C164  C     C_3   0.461479 0.505779 0.197549 0.207578
C165  C     C_1   0.500268 0.500002 0.337701 0.049708
C166  C     C_1   0.000269 0.000008 0.337702 0.049690
C167  C     C_1   0.000280 0.000002 0.162967 0.020962
C168  C     C_1   0.500276 0.499975 0.162963 0.020943
C169  C     C_3   0.720265 0.010925 0.803203 -0.807250
H27   H     H_    0.700970 0.039639 0.785651 0.245242
H28   H     H_    0.700990 0.983636 0.793062 0.244574
H29   H     H_    0.747117 0.013796 0.851766 0.237133
C170  C     C_3   0.220259 0.517811 0.801986 -0.806487
H30   H     H_    0.200737 0.546418 0.781753 0.245487
H31   H     H_    0.201214 0.491261 0.794436 0.244260
H32   H     H_    0.247106 0.522752 0.850175 0.237296
N1    N     N_R   0.222815 0.070812 0.264134 0.162296
O49   O     O_R   0.250226 0.096682 0.306615 -0.289068
O50   O     O_R   0.183222 0.078594 0.229119 -0.316377
N2    N     N_R   0.222828 0.928819 0.263530 0.162217
O51   O     O_R   0.250242 0.902819 0.305790 -0.289264
O52   O     O_R   0.183235 0.920995 0.228448 -0.316664
N3    N     N_R   0.722816 0.571677 0.262610 0.161916
O53   O     O_R   0.750230 0.597860 0.304531 -0.289695
O54   O     O_R   0.683223 0.579558 0.227426 -0.317480
N4    N     N_R   0.722827 0.429710 0.265042 0.162515
O55   O     O_R   0.750245 0.404035 0.307851 -0.288543
O56   O     O_R   0.683236 0.421984 0.230126 -0.315629
N5    N     N_R   0.222756 0.000350 0.140790 0.164246
O57   O     O_R   0.250144 0.000481 0.138228 -0.289778
O58   O     O_R   0.183158 0.000384 0.092179 -0.309509
N6    N     N_R   0.722755 0.498599 0.140806 0.164218
O59   O     O_R   0.750145 0.498090 0.138252 -0.289978
O60   O     O_R   0.683156 0.498444 0.092197 -0.309545
C171  C     C_3   0.454626 0.571302 0.674971 -0.650005
H33   H     H_    0.443043 0.589560 0.690434 0.252999
H34   H     H_    0.475437 0.591209 0.676543 0.249363
H35   H     H_    0.427723 0.560984 0.628827 0.243337
C172  C     C_3   0.460743 0.425163 0.681093 -0.647134
H36   H     H_    0.450723 0.406004 0.698121 0.253419
H37   H     H_    0.433072 0.433205 0.634180 0.243208
H38   H     H_    0.483144 0.407056 0.684257 0.249732
C173  C     C_3   0.953377 0.070486 0.673721 -0.650452
H39   H     H_    0.941473 0.088532 0.688866 0.252950
H40   H     H_    0.973831 0.090752 0.674934 0.249326
H41   H     H_    0.926666 0.059690 0.627769 0.243392
C174  C     C_3   0.962075 0.924495 0.682428 -0.647714
H42   H     H_    0.952398 0.905169 0.699801 0.253478
H43   H     H_    0.934270 0.932053 0.635381 0.243202
H44   H     H_    0.984791 0.906793 0.685904 0.249625
N7    N     N_R   0.036792 0.073579 0.814436 0.160289
O61   O     O_R   0.050231 0.100429 0.800581 -0.300958
O62   O     O_R   0.040831 0.081538 0.858049 -0.310338
N8    N     N_R   0.045272 0.931303 0.822925 0.160801
O63   O     O_R   0.061799 0.906228 0.812165 -0.301215
O64   O     O_R   0.050239 0.923889 0.867468 -0.308917
N9    N     N_R   0.538095 0.572920 0.815740 0.160309
O65   O     O_R   0.552006 0.599532 0.802360 -0.301139
O66   O     O_R   0.542276 0.580810 0.859496 -0.310331
N10   N     N_R   0.544058 0.430502 0.821710 0.160809
O67   O     O_R   0.560144 0.405140 0.810511 -0.300799
O68   O     O_R   0.548888 0.422993 0.866118 -0.308797
N11   N     N_R   0.917677 0.995116 0.695320 0.154743
O69   O     O_R   0.887673 0.993331 0.638026 -0.326943
O70   O     O_R   0.908770 0.994599 0.725989 -0.346289
N12   N     N_R   0.417597 0.496561 0.695234 0.154794
O71   O     O_R   0.387563 0.495310 0.637910 -0.326856
O72   O     O_R   0.408681 0.496188 0.725893 -0.346228
C175  C     C_3   0.584363 0.503514 0.804747 -0.627262
H45   H     H_    0.605981 0.504415 0.853419 0.259186
H46   H     H_    0.591223 0.475555 0.792366 0.246751
H47   H     H_    0.588864 0.531947 0.790006 0.246776
C176  C     C_3   0.084276 0.005007 0.804654 -0.627181
H48   H     H_    0.105867 0.006290 0.853305 0.259234
H49   H     H_    0.091626 0.977174 0.792768 0.246671
H50   H     H_    0.088269 0.033512 0.789408 0.246914
C177  C     C_3   0.448262 0.434177 0.227884 -0.796154
H51   H     H_    0.434646 0.417092 0.187397 0.244524
H52   H     H_    0.466995 0.412280 0.265839 0.241851
H53   H     H_    0.422702 0.447398 0.221613 0.239587
C178  C     C_3   0.469771 0.578147 0.249346 -0.799145
H54   H     H_    0.461701 0.598425 0.214392 0.245719
H55   H     H_    0.441487 0.572973 0.240390 0.238745
H56   H     H_    0.494102 0.593654 0.292855 0.241603
C179  C     C_3   0.960833 0.925972 0.240440 -0.798365
H57   H     H_    0.950463 0.906755 0.203193 0.245209
H58   H     H_    0.983177 0.907744 0.281985 0.241504
H59   H     H_    0.933338 0.934428 0.232254 0.239178
C180  C     C_3   0.956330 0.071470 0.235924 -0.797374
H60   H     H_    0.944791 0.090008 0.197506 0.245048
H61   H     H_    0.929410 0.061339 0.228316 0.239317
H62   H     H_    0.977504 0.091042 0.276297 0.241572
N13   N     N_R   0.571726 0.277262 0.612484 0.163935
O73   O     O_R   0.597929 0.249748 0.652976 -0.285366
O74   O     O_R   0.579478 0.316772 0.625215 -0.310458
N14   N     N_R   0.572238 0.722723 0.612031 0.163661
O75   O     O_R   0.598625 0.750233 0.652359 -0.285899
O76   O     O_R   0.580054 0.683211 0.624720 -0.311191
N15   N     N_R   0.073026 0.777263 0.611378 0.163741
O77   O     O_R   0.099685 0.749749 0.651450 -0.286071
O78   O     O_R   0.080938 0.816774 0.624007 -0.310640
N16   N     N_R   0.072290 0.222724 0.611997 0.163873
O79   O     O_R   0.098696 0.250234 0.652308 -0.285542
O80   O     O_R   0.080112 0.183212 0.624683 -0.310625
C181  C     C_3   0.916301 0.997415 0.136526 -0.820362
H63   H     H_    0.894452 0.996743 0.141541 0.242841
H64   H     H_    0.909901 0.025472 0.110867 0.236184
H65   H     H_    0.911648 0.969016 0.112619 0.236567
C182  C     C_3   0.417173 0.512364 0.137398 -0.819780
H66   H     H_    0.415936 0.540896 0.116579 0.237253
H67   H     H_    0.407409 0.485057 0.108705 0.235581
H68   H     H_    0.395617 0.515985 0.142712 0.242836
N17   N     N_R   0.581600 0.487874 0.358909 0.144562
O81   O     O_R   0.611262 0.483445 0.361220 -0.298425
O82   O     O_R   0.590498 0.486550 0.407372 -0.322250
N18   N     N_R   0.082463 0.002540 0.359771 0.144668
O83   O     O_R   0.112437 0.003461 0.362393 -0.298305
O84   O     O_R   0.091455 0.002821 0.408329 -0.321753
C183  C     C_3   0.498325 0.279756 0.414725 -0.723860
H69   H     H_    0.497254 0.252821 0.391920 0.247755
H70   H     H_    0.470259 0.299499 0.381851 0.249649
H71   H     H_    0.526752 0.298509 0.436770 0.230875
C184  C     C_3   0.497214 0.720245 0.413631 -0.728918
H72   H     H_    0.495858 0.747179 0.390559 0.247902
H73   H     H_    0.525549 0.701484 0.435213 0.228953
H74   H     H_    0.469086 0.700506 0.381071 0.249937
C185  C     C_3   0.995554 0.779758 0.412049 -0.727466
H75   H     H_    0.993765 0.752824 0.388576 0.247861
H76   H     H_    0.967344 0.799501 0.379968 0.249957
H77   H     H_    0.023749 0.798515 0.432929 0.229491
C186  C     C_3   0.997101 0.220246 0.413531 -0.726264
H78   H     H_    0.995717 0.247181 0.390433 0.247866
H79   H     H_    0.025428 0.201485 0.435067 0.229990
H80   H     H_    0.968968 0.200507 0.381003 0.249809
N19   N     N_R   0.428023 0.222717 0.388495 0.152017
O85   O     O_R   0.401404 0.250108 0.348129 -0.313189
O86   O     O_R   0.420423 0.183179 0.375901 -0.326240
N20   N     N_R   0.427506 0.777298 0.388916 0.152026
O87   O     O_R   0.400709 0.749912 0.348726 -0.313328
O88   O     O_R   0.419845 0.816838 0.376363 -0.326379
N21   N     N_R   0.926758 0.722715 0.389626 0.152061
O89   O     O_R   0.899699 0.750105 0.349711 -0.313069
O90   O     O_R   0.919000 0.683176 0.377129 -0.326483
N22   N     N_R   0.927455 0.277298 0.388970 0.152048
O91   O     O_R   0.900639 0.249911 0.348798 -0.313146
O92   O     O_R   0.919787 0.316837 0.376420 -0.326340
N23   N     N_R   0.501791 0.222330 0.584327 0.172171
O93   O     O_R   0.502274 0.249694 0.614761 -0.273879
O94   O     O_R   0.502345 0.182772 0.593866 -0.306235
N24   N     N_R   0.502866 0.777665 0.585356 0.172179
O95   O     O_R   0.503743 0.750298 0.616172 -0.272752
O96   O     O_R   0.503541 0.817222 0.595007 -0.306231
N25   N     N_R   0.004520 0.722330 0.586942 0.172016
O97   O     O_R   0.005992 0.749695 0.618331 -0.274141
O98   O     O_R   0.005375 0.682772 0.596757 -0.306835
N26   N     N_R   0.002976 0.277667 0.585470 0.172238
O99   O     O_R   0.003892 0.250302 0.616326 -0.272354
O100  O     O_R   0.003663 0.317225 0.595131 -0.306042
C187  C     C_3   0.779772 0.989055 0.696853 -0.777599
H81   H     H_    0.799236 0.960449 0.714624 0.244887
H82   H     H_    0.752939 0.985989 0.648313 0.240174
H83   H     H_    0.798889 0.016437 0.706773 0.247445
C188  C     C_3   0.279774 0.482152 0.698055 -0.778633
H84   H     H_    0.299314 0.453556 0.718313 0.243874
H85   H     H_    0.252943 0.477197 0.649867 0.240205
H86   H     H_    0.298813 0.508712 0.705607 0.248672

loop_
_geom_bond_atom_site_label_1
_geom_bond_atom_site_label_2
_geom_bond_distance
_ccdc_geom_bond_type
C92   C104  1.204055 T    
C169  H28   1.109727 S    
C123  C138  1.544843 S    
C59   C63   1.555943 S    
C65   C77   1.206344 T    
C81   C93   1.545266 S    
O37   Cu9   1.946692 S    
N9    O66   1.300127 A    
C146  C161  1.548772 S    
O2    C2    1.288456 A    
C171  H35   1.109620 S    
O31   C111  1.287165 A    
N24   O96   1.300168 A    
C62   C71   1.542595 S    
C34   H6    1.110032 S    
C9    C13   1.547931 S    
C127  C139  1.543958 S    
C38   C46   1.544514 S    
N1    O50   1.300263 A    
C21   C107  1.433031 S    
C71   C77   1.468164 S    
C186  H80   1.109652 S    
C68   C80   1.206259 T    
C147  C162  1.548760 S    
O9    C3    1.287528 A    
O34   C113  1.287937 A    
O10   C4    1.287518 A    
O8    Cu2   1.948667 S    
N4    O55   1.300225 A    
N26   O100  1.300169 A    
C13   C45   1.557826 S    
C184  H74   1.109654 S    
C44   N22   1.457429 S    
C15   C47   1.557764 S    
O6    C4    1.287488 A    
O39   Cu11  1.946692 S    
C162  C164  1.540209 S    
O26   Cu7   1.948973 S    
O34   Cu10  1.948625 S    
Cu12  O44   1.948878 S    
Cu5   O29   1.948771 S    
C94   H22   1.110101 S    
C1    C65   1.436600 S    
C125  C135  1.548770 S    
C122  C137  1.544788 S    
C177  H51   1.109620 S    
C83   C94   1.545258 S    
C100  N6    1.456956 S    
C58   C62   1.555938 S    
C185  H77   1.109665 S    
C180  H61   1.109736 S    
N14   O75   1.300220 A    
N22   O92   1.300181 A    
C170  H31   1.109846 S    
C153  C165  1.205345 T    
O21   C107  1.286651 A    
O38   C115  1.288462 A    
Cu1   O13   1.946657 S    
C5    C19   1.433095 S    
C66   C78   1.206340 T    
O20   C106  1.286242 A    
C6    C20   1.433101 S    
C48   C186  1.520110 S    
N9    O65   1.300345 A    
C146  C158  1.542884 S    
O24   Cu6   1.948944 S    
C44   C48   1.537371 S    
O20   Cu8   1.948767 S    
N10   O67   1.300278 A    
C85   C95   1.548662 S    
C148  C150  1.553338 S    
C98   C100  1.537613 S    
O45   C119  1.287473 A    
C39   C47   1.544515 S    
C14   C30   1.555363 S    
O5    Cu1   1.948658 S    
N3    O54   1.300238 A    
N19   O85   1.300283 A    
O39   C116  1.288521 A    
C84   C98   1.537578 S    
C69   C169  1.519708 S    
C147  H25   1.110121 S    
N21   O89   1.300223 A    
C74   C80   1.468029 S    
C91   C103  1.204068 T    
N8    O63   1.300277 A    
O30   C112  1.287032 A    
Cu11  O47   1.946728 S    
C126  C135  1.548774 S    
N25   O98   1.300173 A    
C45   C183  1.520156 S    
C11   N15   1.456965 S    
N20   O88   1.300180 A    
C86   C99   1.545343 S    
C94   C96   1.548637 S    
C33   C37   1.554641 S    
C24   C110  1.433028 S    
C83   C87   1.545280 S    
C68   C116  1.436475 S    
N23   O93   1.300272 A    
C35   C39   1.554636 S    
C84   N4    1.456895 S    
Cu7   O31   1.948685 S    
C36   C40   1.554642 S    
C172  H37   1.109626 S    
C187  H81   1.109820 S    
C42   C46   1.537379 S    
C149  C177  1.520238 S    
O8    C6    1.287483 A    
C25   C29   1.538037 S    
O10   Cu3   1.948309 S    
N16   O79   1.300222 A    
C8    C90   1.432802 S    
C2    C66   1.436594 S    
C57   H13   1.110117 S    
C180  H60   1.109638 S    
Cu9   Cu10  2.656844 S    
N17   O81   1.300259 A    
C93   C95   1.548645 S    
C188  H84   1.109813 S    
C183  H69   1.109693 S    
C135  C141  1.463522 S    
C134  C176  1.520370 S    
C176  H49   1.109563 S    
O3    Cu3   1.946942 S    
C181  H63   1.109641 S    
C67   C115  1.436462 S    
C181  H65   1.109659 S    
C59   C74   1.542520 S    
C9    C25   1.529049 S    
C69   C71   1.533037 S    
C140  N12   1.458118 S    
C12   C16   1.547901 S    
Cu1   Cu3   2.656101 S    
C134  C136  1.548674 S    
O19   C105  1.286240 A    
N18   O83   1.300234 A    
C126  C140  1.544018 S    
N25   O97   1.300238 A    
C64   H12   1.110143 S    
C25   C33   1.549437 S    
N12   O71   1.300273 A    
C82   C86   1.545279 S    
C20   C52   1.204389 T    
C28   C36   1.549385 S    
C35   C43   1.548904 S    
C124  N10   1.458054 S    
C139  N11   1.457990 S    
C64   C72   1.542597 S    
C43   N21   1.457433 S    
C37   C53   1.465260 S    
C121  N7    1.457890 S    
C28   N26   1.457055 S    
O22   Cu5   1.948944 S    
C29   C41   1.538902 S    
C27   C31   1.538012 S    
C31   C51   1.465566 S    
O28   Cu8   1.948973 S    
Cu5   Cu7   2.653509 S    
C30   C50   1.465573 S    
Cu6   Cu8   2.653509 S    
N7    O62   1.300076 A    
C99   N5    1.457025 S    
C149  C159  1.542299 S    
C62   C75   1.544598 S    
C58   H14   1.110118 S    
O32   C112  1.287165 A    
N11   O70   1.300154 A    
C83   N3    1.456891 S    
C9    C37   1.536839 S    
O6    Cu1   1.948667 S    
C10   C14   1.547900 S    
C12   C28   1.529020 S    
C12   C40   1.536774 S    
C183  H71   1.109739 S    
C158  N18   1.456766 S    
C145  C158  1.542884 S    
C178  H55   1.109737 S    
C133  C175  1.520491 S    
O23   C109  1.286649 A    
C32   C44   1.538841 S    
O9    Cu3   1.948312 S    
C177  H52   1.109684 S    
C63   C76   1.544566 S    
O17   C105  1.286231 A    
C85   H17   1.110139 S    
C174  H42   1.109628 S    
C125  C171  1.520602 S    
O4    Cu4   1.946942 S    
C87   H19   1.110121 S    
C173  H39   1.109623 S    
C138  C144  1.464294 S    
O47   C120  1.287471 A    
O38   Cu10  1.946721 S    
C188  H86   1.109865 S    
C123  C133  1.543925 S    
C113  C155  1.435250 S    
N2    O52   1.300269 A    
C182  H67   1.109796 S    
C9    N13   1.457087 S    
C70   C170  1.519628 S    
C26   N24   1.457051 S    
C155  C167  1.205500 T    
N26   O99   1.300246 A    
C130  C142  1.202921 T    
Cu3   O15   1.946405 S    
C175  H47   1.109701 S    
O21   Cu5   1.948977 S    
C117  C131  1.430955 S    
C83   C98   1.537577 S    
C38   C54   1.465247 S    
O14   C8    1.287450 A    
C11   C27   1.529034 S    
N21   O90   1.300183 A    
C111  C153  1.434938 S    
Cu6   O30   1.948771 S    
C30   C42   1.538840 S    
C171  H34   1.109663 S    
C122  C134  1.543851 S    
C92   C120  1.432389 S    
O11   C5    1.287521 A    
Cu10  O42   1.948878 S    
O12   Cu4   1.948309 S    
C23   C109  1.433028 S    
C123  N9    1.458046 S    
C98   C104  1.466198 S    
C70   C72   1.533053 S    
C156  C168  1.205503 T    
C75   C187  1.519688 S    
O5    C3    1.287471 A    
C158  C160  1.534105 S    
C84   C94   1.545260 S    
C106  C130  1.431110 S    
C90   C102  1.204132 T    
C33   H5    1.110098 S    
C74   C76   1.533041 S    
C186  H79   1.109665 S    
C131  C143  1.203145 T    
C17   C49   1.204393 T    
Cu11  O43   1.948872 S    
C95   C101  1.463175 S    
C150  C164  1.543226 S    
N4    O56   1.300239 A    
O29   C111  1.287038 A    
N6    O59   1.300211 A    
C121  C127  1.543888 S    
C21   C53   1.204251 T    
O46   C119  1.287471 A    
C16   C48   1.557762 S    
C184  H73   1.109667 S    
C41   N19   1.457551 S    
C124  C133  1.543933 S    
C34   C38   1.554635 S    
O18   Cu6   1.948329 S    
N5    O57   1.300186 A    
O19   Cu7   1.948767 S    
O25   Cu7   1.948947 S    
C151  C163  1.543220 S    
N1    O49   1.300276 A    
C97   C99   1.537678 S    
C63   H11   1.110128 S    
C26   C30   1.538005 S    
O1    C1    1.288455 A    
O28   C110  1.286554 A    
C35   H7    1.110040 S    
C174  H44   1.109572 S    
C57   C73   1.542522 S    
C76   C188  1.519759 S    
C185  H76   1.109656 S    
O36   Cu12  1.948625 S    
C124  C126  1.544019 S    
C151  C179  1.520239 S    
C89   C101  1.204132 T    
C173  H41   1.109548 S    
C72   C78   1.468154 S    
C122  N8    1.457895 S    
C96   C102  1.463191 S    
N10   O68   1.300170 A    
C27   N25   1.457038 S    
N15   O78   1.300175 A    
C14   C46   1.557766 S    
C88   H20   1.110119 S    
C60   C74   1.542541 S    
C159  C165  1.468261 S    
C169  H29   1.109681 S    
C175  H45   1.109656 S    
N3    O53   1.300223 A    
C19   C51   1.204392 T    
C40   C56   1.465253 S    
C145  C151  1.553331 S    
C152  C163  1.543213 S    
N8    O64   1.300107 A    
C62   H10   1.110132 S    
C161  C163  1.540186 S    
C29   C49   1.465580 S    
O1    Cu1   1.946758 S    
C18   C50   1.204392 T    
C88   C96   1.548662 S    
O2    Cu2   1.946758 S    
C26   C34   1.549380 S    
O18   C106  1.286228 A    
C121  C134  1.543842 S    
C187  H83   1.109836 S    
C58   C73   1.542512 S    
N24   O95   1.300240 A    
C3    C17   1.433095 S    
O4    C2    1.288293 A    
C152  C180  1.520228 S    
C22   C54   1.204247 T    
C57   C61   1.555922 S    
C64   C76   1.544576 S    
C160  C166  1.468254 S    
C124  C138  1.544841 S    
C13   H1    1.110171 S    
C15   H3    1.110121 S    
C179  H57   1.109635 S    
C172  H36   1.109705 S    
C16   C32   1.555359 S    
C112  C154  1.434941 S    
O7    Cu2   1.948658 S    
N13   O73   1.300282 A    
C61   C71   1.542605 S    
N16   O80   1.300173 A    
C60   C64   1.555931 S    
C149  C164  1.543219 S    
C60   H16   1.110130 S    
Cu2   Cu4   2.656101 S    
C154  C166  1.205325 T    
C10   C38   1.536770 S    
C11   C15   1.547899 S    
C10   N14   1.456963 S    
O25   C107  1.286546 A    
Cu12  O48   1.946698 S    
C127  C173  1.520369 S    
C63   C72   1.542613 S    
C88   C100  1.545323 S    
C33   C41   1.548924 S    
O3    C1    1.288292 A    
O22   C108  1.286642 A    
C180  H62   1.109689 S    
O36   C114  1.287956 A    
C181  H64   1.109661 S    
C136  C142  1.463535 S    
N22   O91   1.300219 A    
C114  C156  1.435243 S    
O43   C118  1.287339 A    
C157  N17   1.456757 S    
C183  H70   1.109690 S    
C178  H54   1.109633 S    
C147  C149  1.553321 S    
C152  C160  1.542318 S    
C85   C99   1.545341 S    
N18   O84   1.300208 A    
C41   C45   1.537401 S    
O40   C116  1.288434 A    
O11   Cu4   1.948312 S    
C43   C47   1.537379 S    
C46   C184  1.520116 S    
Cu11  Cu12  2.656844 S    
C91   C119  1.432417 S    
C86   C95   1.548663 S    
C176  H48   1.109630 S    
C81   N1    1.456958 S    
Cu8   O32   1.948685 S    
C36   C44   1.548913 S    
Cu4   O16   1.946405 S    
N19   O86   1.300199 A    
C128  C174  1.520380 S    
C32   C52   1.465567 S    
N6    O60   1.300236 A    
C36   H8    1.110028 S    
N7    O61   1.300319 A    
O12   C6    1.287519 A    
C67   C79   1.206250 T    
C23   C55   1.204248 T    
C170  H32   1.109684 S    
N20   O87   1.300220 A    
C138  C140  1.544945 S    
C39   C55   1.465253 S    
N11   O69   1.300227 A    
N23   O94   1.300184 A    
C105  C129  1.431110 S    
C127  C136  1.548719 S    
N5    O58   1.300203 A    
O41   C117  1.287346 A    
C172  H38   1.109661 S    
C133  C135  1.548802 S    
C147  C157  1.542869 S    
C162  C168  1.466523 S    
C151  C160  1.542318 S    
C187  H82   1.109673 S    
O23   Cu6   1.948977 S    
C169  H27   1.109731 S    
O27   Cu8   1.948947 S    
C145  C161  1.548770 S    
C150  C159  1.542346 S    
O42   C117  1.287348 A    
C81   C85   1.545278 S    
C148  C157  1.542883 S    
C73   C75   1.533064 S    
C82   N2    1.456956 S    
N14   O76   1.300175 A    
C34   C42   1.548912 S    
C182  H66   1.109732 S    
C157  C159  1.534122 S    
O13   C7    1.287450 A    
C188  H85   1.109664 S    
C82   C97   1.537628 S    
O17   Cu5   1.948329 S    
Cu9   O41   1.948872 S    
N12   O72   1.300118 A    
C97   C103  1.466185 S    
C176  H50   1.109566 S    
C129  C141  1.202940 T    
C128  C139  1.543966 S    
C61   H9    1.110120 S    
C12   N16   1.456962 S    
C57   C69   1.544484 S    
C179  H59   1.109734 S    
C42   N20   1.457429 S    
C59   H15   1.110146 S    
C13   C29   1.555375 S    
O44   C118  1.287352 A    
C175  H46   1.109692 S    
O35   Cu11  1.948631 S    
C15   C31   1.555354 S    
Cu2   O14   1.946657 S    
C16   H4    1.110127 S    
O37   C115  1.288488 A    
O33   C113  1.287939 A    
C171  H33   1.109698 S    
O33   Cu9   1.948631 S    
C87   C100  1.545321 S    
C86   H18   1.110135 S    
O26   C108  1.286552 A    
O48   C120  1.287464 A    
C25   N23   1.457069 S    
C137  C139  1.544808 S    
C60   C70   1.544492 S    
C118  C132  1.430968 S    
O35   C114  1.287913 A    
C163  C181  1.521221 S    
N17   O82   1.300198 A    
C137  C143  1.464281 S    
C179  H58   1.109689 S    
Cu10  O46   1.946698 S    
C186  H78   1.109663 S    
C82   C93   1.545268 S    
C161  C167  1.466536 S    
O7    C5    1.287481 A    
N13   O74   1.300196 A    
C47   C185  1.520110 S    
C7    C89   1.432805 S    
C150  C178  1.520242 S    
O27   C109  1.286549 A    
C148  H26   1.110137 S    
C58   C69   1.544483 S    
C27   C35   1.549380 S    
C170  H30   1.109809 S    
C4    C18   1.433101 S    
C148  C162  1.548791 S    
C184  H72   1.109660 S    
C37   C45   1.544550 S    
O40   Cu12  1.946721 S    
Cu9   O45   1.946728 S    
C14   H2    1.110128 S    
C146  C152  1.553326 S    
C81   C97   1.537631 S    
C178  H56   1.109678 S    
C31   C43   1.538841 S    
O15   C7    1.287341 A    
C11   C39   1.536772 S    
C145  H23   1.110116 S    
C61   C75   1.544602 S    
O16   C8    1.287335 A    
C128  C136  1.548724 S    
C121  C137  1.544786 S    
C87   C96   1.548660 S    
C177  H53   1.109748 S    
C24   C56   1.204248 T    
C174  H43   1.109550 S    
C185  H75   1.109650 S    
C10   C26   1.529023 S    
C126  C172  1.520605 S    
C59   C70   1.544521 S    
C164  C182  1.521250 S    
C173  H40   1.109572 S    
C40   C48   1.544510 S    
C132  C144  1.203148 T    
C146  H24   1.110114 S    
N2    O51   1.300279 A    
C73   C79   1.468042 S    
C28   C32   1.538004 S    
C182  H68   1.109718 S    
C93   H21   1.110089 S    
O24   C110  1.286644 A    
C125  C140  1.544017 S    
C22   C108  1.433024 S    
C122  C128  1.543899 S    
N15   O77   1.300223 A    
C123  C125  1.544009 S    
C84   C88   1.545283 S    
