data_mof_unit_53117.cif
_audit_creation_date              2012-12-10T17:47:13-0500
_audit_creation_method            fapswitch 2.2
_symmetry_space_group_name_H-M    P1
_symmetry_Int_Tables_number       1
_space_group_crystal_system       triclinic
_cell_length_a                    11.698108
_cell_length_b                    14.700754
_cell_length_c                    14.704365
_cell_angle_alpha                 65.259752
_cell_angle_beta                  102.844289
_cell_angle_gamma                 102.630369
_cell_volume                      2216.50848555

loop_
_atom_site_label
_atom_site_type_symbol
_atom_type_description
_atom_site_fract_x
_atom_site_fract_y
_atom_site_fract_z
_atom_type_partial_charge
C1    C     C_R   0.479835 0.119653 0.312315 0.795880
C2    C     C_R   0.518775 0.880366 0.687652 0.794645
C3    C     C_R   0.442083 0.320514 0.001112 0.163268
C4    C     C_R   0.504690 0.678049 0.995071 0.162882
C5    C     C_R   0.474095 0.466272 0.049837 0.065779
C6    C     C_R   0.474980 0.532420 0.946350 0.064647
C7    C     C_R   0.452191 0.489749 0.872576 -0.222129
C8    C     C_R   0.481190 0.508455 0.122026 -0.219417
C9    C     C_R   0.434953 0.385856 0.899726 -0.230174
C10   C     C_R   0.495528 0.612248 0.094760 -0.233107
C11   C     C_R   0.686414 0.276591 0.679293 0.042821
C12   C     C_R   0.314137 0.723771 0.320249 0.041586
C13   C     C_R   0.658320 0.198461 0.643276 0.073400
C14   C     C_R   0.342611 0.802052 0.356064 0.073887
C15   C     C_R   0.519245 0.286732 0.508053 -0.009723
C16   C     C_R   0.479546 0.712653 0.492707 -0.010961
C17   C     C_R   0.543263 0.370256 0.537430 -0.043222
C18   C     C_R   0.454658 0.628770 0.463817 -0.042073
C19   C     C_R   0.627076 0.363272 0.625727 0.091515
C20   C     C_R   0.371464 0.636086 0.375107 0.093114
C21   C     C_R   0.485781 0.459154 0.483129 0.097416
C22   C     C_R   0.511172 0.539401 0.518723 0.094133
C23   C     C_R   0.284190 0.000340 0.500065 0.826225
C24   C     C_R   0.715811 0.999657 0.499940 0.826222
C25   C     C_R   0.591899 0.527460 0.608384 -0.228353
C26   C     C_R   0.404111 0.470639 0.394057 -0.227856
C27   C     C_R   0.648822 0.442536 0.659595 -0.207288
C28   C     C_R   0.348224 0.556075 0.342192 -0.216302
C29   C     C_1   0.162669 0.000821 0.500208 -0.182528
C30   C     C_1   0.837336 0.999173 0.499806 -0.183186
C31   C     C_1   0.060039 0.000414 0.500112 0.000970
C32   C     C_1   0.939968 0.999580 0.499907 0.000931
C33   C     C_R   0.465177 0.187207 0.204747 -0.050169
C34   C     C_R   0.521696 0.812743 0.794864 -0.050821
C35   C     C_R   0.428422 0.215755 0.027114 -0.198338
C36   C     C_R   0.521777 0.782906 0.969499 -0.198036
C37   C     C_R   0.438938 0.149370 0.128371 -0.195040
C38   C     C_R   0.529195 0.849944 0.869733 -0.195382
C39   C     C_R   0.477857 0.291568 0.178827 -0.253151
C40   C     C_R   0.509132 0.708409 0.821012 -0.246981
C41   C     C_R   0.463757 0.359945 0.077355 0.089234
C42   C     C_R   0.495862 0.639033 0.919986 0.090391
Cu1   Cu    Cu3+1 0.469550 0.918260 0.475690 0.937577
Cu2   Cu    Cu3+1 0.530450 0.081740 0.524310 0.936864
H1    H     H_    0.417402 0.356518 0.840722 0.150353
H2    H     H_    0.499970 0.641191 0.152458 0.150931
H3    H     H_    0.613412 0.582534 0.642182 0.128930
H4    H     H_    0.380965 0.414783 0.361227 0.126150
H5    H     H_    0.510988 0.683308 0.762439 0.143576
H6    H     H_    0.502294 0.317984 0.239483 0.150489
H7    H     H_    0.539126 0.930504 0.851043 0.153094
H8    H     H_    0.428373 0.068822 0.146790 0.150839
H9    H     H_    0.410435 0.185238 0.969016 0.134448
H10   H     H_    0.527742 0.813001 0.026533 0.134835
H11   H     H_    0.443497 0.534266 0.792381 0.146138
H12   H     H_    0.472278 0.463290 0.200246 0.140824
H13   H     H_    0.710104 0.440145 0.727214 0.141012
H14   H     H_    0.286606 0.558265 0.274789 0.141615
H15   H     H_    0.545050 0.715789 0.555784 0.131614
H16   H     H_    0.453561 0.283351 0.445169 0.131975
H17   H     H_    0.302617 0.870480 0.317278 0.148722
H18   H     H_    0.699315 0.130519 0.681418 0.149131
N1    N     N_R   0.576230 0.204580 0.560790 -0.201433
N2    N     N_R   0.423770 0.795420 0.439210 -0.201018
O1    O     O_R   0.459870 0.022090 0.338120 -0.593839
O2    O     O_R   0.540130 0.977910 0.661880 -0.593847
O3    O     O_R   0.511290 0.160150 0.379180 -0.588622
O4    O     O_R   0.488710 0.839850 0.620820 -0.587922
O5    O     O_R   0.311490 0.930960 0.479480 -0.574210
O6    O     O_R   0.688510 0.069040 0.520520 -0.574540
O7    O     O_R   0.362910 0.069020 0.520540 -0.573184
O8    O     O_R   0.637090 0.930980 0.479460 -0.572225
C43   C     C_3   0.776906 0.268435 0.774061 -0.421523
C44   C     C_3   0.835862 0.172339 0.825155 -0.857728
H19   H     H_    0.768698 0.104390 0.851722 0.245903
H20   H     H_    0.885236 0.165710 0.772327 0.251900
H21   H     H_    0.899968 0.176043 0.892108 0.252086
H22   H     H_    0.848545 0.333890 0.753736 0.214388
H23   H     H_    0.732384 0.272697 0.831260 0.210355
C45   C     C_3   0.225597 0.732907 0.224213 -0.421850
C46   C     C_3   0.170393 0.830889 0.170691 -0.858052
H24   H     H_    0.119639 0.839611 0.221357 0.252348
H25   H     H_    0.239940 0.897239 0.145648 0.243773
H26   H     H_    0.108119 0.828121 0.102536 0.252151
H27   H     H_    0.270958 0.726409 0.168732 0.208188
H28   H     H_    0.151951 0.669091 0.243585 0.215074

loop_
_geom_bond_atom_site_label_1
_geom_bond_atom_site_label_2
_ccdc_geom_bond_type
C21   C26   A    
C4    C36   A    
C9    H1    S    
Cu1   O8    S    
C35   H9    S    
C15   H16   S    
C23   O5    A    
Cu2   O2    S    
C7    H11   S    
C8    H12   S    
C46   H24   S    
C24   O6    A    
C39   C41   A    
C11   C19   A    
C33   C39   A    
C44   H20   S    
C34   C40   A    
C23   C29   S    
C35   C37   A    
C2    O4    A    
C5    C6    A    
C40   H5    S    
Cu2   O7    S    
C7    C9    A    
C43   C44   S    
C45   H28   S    
C1    O3    A    
C13   H18   S    
Cu1   O4    S    
C44   H21   S    
C10   H2    S    
C1    O1    A    
C43   H22   S    
Cu2   O6    S    
C19   C27   A    
C25   H3    S    
C26   H4    S    
C2    C34   S    
C40   C42   A    
Cu1   O5    S    
C34   C38   A    
C21   C22   A    
C46   H25   S    
Cu1   N2    S    
Cu2   N1    S    
C44   H19   S    
C1    C33   S    
C23   O7    A    
C27   H13   S    
C37   H8    S    
C38   H7    S    
C20   C28   A    
C14   H17   S    
C22   C25   A    
C33   C37   A    
C16   H15   S    
Cu1   Cu2   S    
C45   H27   S    
C3    C9    A    
C31   C32   S    
C13   N1    A    
C3    C35   A    
Cu1   O1    S    
C14   N2    A    
C12   C20   A    
C43   H23   S    
C16   C18   A    
C12   C14   A    
C11   C43   S    
C4    C10   A    
C46   H26   S    
C24   O8    A    
C15   C17   A    
C5    C41   A    
C3    C41   A    
C18   C22   A    
C45   C46   S    
C2    O2    A    
C5    C8    A    
C6    C7    A    
C28   H14   S    
C25   C27   A    
C26   C28   A    
C36   C38   A    
C29   C31   T    
C30   C32   T    
C11   C13   A    
C4    C42   A    
C12   C45   S    
C17   C19   A    
C18   C20   A    
C24   C30   S    
C36   H10   S    
C39   H6    S    
C8    C10   A    
C6    C42   A    
C15   N1    A    
Cu2   O3    S    
C16   N2    A    
C17   C21   A    
