data_mof_unit_41419.cif
_audit_creation_date              2012-12-10T16:50:16-0500
_audit_creation_method            fapswitch 2.2
_symmetry_space_group_name_H-M    P1
_symmetry_Int_Tables_number       1
_space_group_crystal_system       triclinic
_cell_length_a                    23.485738
_cell_length_b                    8.806499
_cell_length_c                    7.424417
_cell_angle_alpha                 103.438148
_cell_angle_beta                  93.96441
_cell_angle_gamma                 93.159705
_cell_volume                      1485.93999359

loop_
_atom_site_label
_atom_site_type_symbol
_atom_type_description
_atom_site_fract_x
_atom_site_fract_y
_atom_site_fract_z
_atom_type_partial_charge
C1    C     C_R   0.498371 0.199438 0.452892 0.875340
C2    C     C_R   0.501597 0.800568 0.547113 0.873178
C3    C     C_R   0.234698 0.523733 0.361967 0.198428
C4    C     C_R   0.758242 0.477673 0.332743 0.205116
C5    C     C_R   0.294549 0.527896 0.365465 -0.301556
C6    C     C_R   0.698337 0.473599 0.335697 -0.314404
C7    C     C_R   0.327781 0.481264 0.505745 -0.080974
C8    C     C_R   0.672369 0.530048 0.501260 -0.084379
C9    C     C_R   0.299821 0.421840 0.641914 0.117121
C10   C     C_R   0.707550 0.604890 0.665553 0.120020
C11   C     C_R   0.240224 0.419288 0.637812 -0.186687
C12   C     C_R   0.766739 0.602304 0.662798 -0.196107
C13   C     C_R   0.207818 0.472082 0.503315 0.335303
C14   C     C_R   0.792472 0.534984 0.502366 0.334001
C15   C     C_2   0.497476 0.031749 0.426746 -0.366972
C16   C     C_2   0.502390 0.968260 0.573346 -0.371119
C17   C     C_R   0.390762 0.493590 0.502086 0.813917
C18   C     C_R   0.609270 0.509675 0.499682 0.810849
C19   C     C_R   0.888838 0.656643 0.583843 0.521278
C20   C     C_R   0.112897 0.345391 0.480807 0.521526
C21   C     C_R   0.874852 0.379806 0.487432 0.509815
C22   C     C_R   0.127296 0.623149 0.591376 0.506648
C23   C     C_R   0.934691 0.366188 0.503120 -0.020667
C24   C     C_R   0.068235 0.635993 0.613751 -0.031353
C25   C     C_R   0.971385 0.504183 0.551193 -0.045178
C26   C     C_R   0.031339 0.497482 0.553008 -0.050763
C27   C     C_R   0.948189 0.648240 0.609391 -0.037835
C28   C     C_R   0.054085 0.351190 0.496496 -0.032115
C29   C     C_R   0.959341 0.221483 0.489108 0.113063
C30   C     C_R   0.044085 0.778190 0.697554 0.145640
C31   C     C_R   0.018163 0.213971 0.469243 -0.218876
C32   C     C_R   0.984461 0.778950 0.698231 -0.237675
Cu1   Cu    Cu3+1 0.506340 0.517380 0.684380 0.942252
Cu2   Cu    Cu3+1 0.493660 0.482620 0.315620 0.944391
H1    H     H_    0.036580 0.101617 0.448577 0.171299
H2    H     H_    0.966173 0.882128 0.772616 0.180763
H3    H     H_    0.315543 0.570496 0.259368 0.161673
H4    H     H_    0.671682 0.422864 0.208520 0.162614
H5    H     H_    0.218155 0.376142 0.740909 0.148767
H6    H     H_    0.793893 0.654905 0.787588 0.159438
H7    H     H_    0.492771 0.959920 0.285348 0.179394
H8    H     H_    0.507073 0.040078 0.714757 0.179872
H9    H     H_    0.457215 0.373022 0.947239 0.227987
H10   H     H_    0.543812 0.624690 0.052442 0.223672
N1    N     N_R   0.853545 0.523809 0.518016 -0.448149
N2    N     N_R   0.147554 0.480634 0.520127 -0.451686
N3    N     N_2   0.484110 0.456420 0.038520 -0.223431
N4    N     N_2   0.515890 0.543580 0.961480 -0.219756
O1    O     O_R   0.504120 0.286130 0.619770 -0.583182
O2    O     O_R   0.495880 0.713870 0.380230 -0.581957
O3    O     O_R   0.493410 0.256770 0.308360 -0.583807
O4    O     O_R   0.506590 0.743230 0.691640 -0.587148
O5    O     O_R   0.423230 0.514630 0.655730 -0.584060
O6    O     O_R   0.576770 0.485370 0.344270 -0.589687
O7    O     O_R   0.412530 0.485280 0.344320 -0.584990
O8    O     O_R   0.587470 0.514720 0.655680 -0.580430
O9    O     O_2   0.866370 0.796458 0.620124 -0.577494
O10   O     O_2   0.135379 0.206109 0.424382 -0.562508
O11   O     O_2   0.838007 0.251586 0.442090 -0.569781
O12   O     O_2   0.164646 0.750314 0.638304 -0.561038
C33   C     C_3   0.928497 0.088049 0.546561 -0.291316
C34   C     C_3   0.916350 0.142584 0.752391 -0.743490
H11   H     H_    0.889615 0.244117 0.775325 0.250467
H12   H     H_    0.892976 0.050438 0.802348 0.277971
H13   H     H_    0.957261 0.177322 0.840795 0.215530
H14   H     H_    0.889173 0.040722 0.455790 0.270174
H15   H     H_    0.955564 0.988150 0.528616 0.178888
C35   C     C_3   0.078542 0.930363 0.793023 -0.367942
C36   C     C_3   0.107234 0.921663 0.981208 -0.708315
H16   H     H_    0.074155 0.906749 0.076922 0.235602
H17   H     H_    0.135036 0.822513 0.967690 0.265471
H18   H     H_    0.133818 0.032121 0.043103 0.262236
H19   H     H_    0.109766 0.965267 0.702189 0.259110
H20   H     H_    0.050339 0.029189 0.819623 0.177709
C37   C     C_3   0.200931 0.577889 0.209702 -0.394672
C38   C     C_3   0.163518 0.444040 0.079486 -0.829784
H21   H     H_    0.188713 0.340968 0.033534 0.255321
H22   H     H_    0.126302 0.409112 0.148317 0.262240
H23   H     H_    0.146648 0.483162 0.955596 0.236271
H24   H     H_    0.173806 0.672611 0.271033 0.234442
H25   H     H_    0.230388 0.628263 0.124146 0.200405
C39   C     C_3   0.783687 0.418309 0.148685 -0.383095
C40   C     C_3   0.825555 0.539659 0.101804 -0.834349
H26   H     H_    0.806004 0.653195 0.114905 0.253197
H27   H     H_    0.865841 0.557727 0.193102 0.258196
H28   H     H_    0.837224 0.496411 0.957430 0.234090
H29   H     H_    0.805577 0.310134 0.148446 0.244987
H30   H     H_    0.749189 0.386121 0.033262 0.193755
C41   C     C_3   0.330590 0.356577 0.790658 -0.391385
C42   C     C_3   0.354431 0.199873 0.707815 -0.788246
H31   H     H_    0.319038 0.113017 0.637153 0.263201
H32   H     H_    0.385661 0.211943 0.605932 0.242055
H33   H     H_    0.376270 0.155095 0.820365 0.231167
H34   H     H_    0.364312 0.442544 0.872536 0.218062
H35   H     H_    0.300840 0.335972 0.894246 0.200208
C43   C     C_3   0.685144 0.693321 0.845097 -0.375726
C44   C     C_3   0.658043 0.841831 0.820568 -0.772427
H36   H     H_    0.622392 0.815010 0.709741 0.244496
H37   H     H_    0.641090 0.901293 0.952699 0.232175
H38   H     H_    0.690699 0.923109 0.783787 0.252807
H39   H     H_    0.655415 0.617646 0.901508 0.218226
H40   H     H_    0.720482 0.730982 0.956973 0.194687

loop_
_geom_bond_atom_site_label_1
_geom_bond_atom_site_label_2
_ccdc_geom_bond_type
C41   H35   S    
C43   H40   S    
C38   H23   S    
C44   H36   S    
C19   O9    S    
Cu1   O4    S    
Cu2   O3    S    
C32   H2    S    
C24   C26   A    
C21   O11   S    
C5    H3    S    
C39   H29   S    
C22   O12   S    
C13   N2    S    
Cu1   O1    S    
C15   C16   D    
C20   N2    A    
C41   H34   S    
C36   H17   S    
C34   H12   S    
C2    O2    A    
C33   H14   S    
C40   H26   S    
C35   C36   S    
C7    C17   S    
C1    O1    A    
C6    H4    S    
C1    C15   S    
C2    C16   S    
C37   H24   S    
C17   O7    A    
C3    C13   A    
C18   O8    A    
Cu1   O8    S    
C17   O5    A    
Cu2   O7    S    
C43   H39   S    
C33   C34   S    
C10   C12   A    
C19   C27   A    
C44   H37   S    
C14   N1    S    
C21   N1    A    
Cu1   O5    S    
C29   C33   S    
Cu2   O2    S    
C38   H21   S    
C15   H7    S    
C4    C6    A    
C9    C41   S    
C5    C7    A    
C37   H25   S    
C6    C8    A    
C20   C28   A    
C25   C26   A    
C8    C18   S    
C12   H6    S    
C36   H18   S    
C37   C38   S    
C34   H11   S    
C9    C11   A    
C33   H15   S    
C42   H32   S    
N3    N4    D    
C10   C43   S    
C43   C44   S    
Cu1   Cu2   S    
C11   H5    S    
C1    O3    A    
C2    O4    A    
C22   N2    A    
C12   C14   A    
Cu2   O6    S    
C21   C23   A    
C31   H1    S    
C20   O10   S    
C23   C29   A    
C44   H38   S    
C3    C37   S    
C42   H33   S    
C7    C9    A    
C34   H13   S    
C40   H27   S    
C27   C32   A    
C16   H8    S    
C28   C31   A    
C38   H22   S    
C3    C5    A    
C19   N1    A    
C25   C27   A    
C26   C28   A    
C35   H19   S    
C29   C31   A    
C30   C32   A    
C11   C13   A    
C42   H31   S    
H9    N3    S    
C39   H30   S    
C22   C24   A    
C23   C25   A    
C4    C14   A    
C36   H16   S    
C24   C30   A    
C18   O6    A    
C40   H28   S    
C4    C39   S    
C8    C10   A    
C39   C40   S    
Cu1   N4    S    
Cu2   N3    S    
C41   C42   S    
C35   H20   S    
C30   C35   S    
H10   N4    S    
