data_mof_unit_30659.cif
_audit_creation_date              2012-12-10T18:57:13-0500
_audit_creation_method            fapswitch 2.2
_symmetry_space_group_name_H-M    P1
_symmetry_Int_Tables_number       1
_space_group_crystal_system       triclinic
_cell_length_a                    8.728016
_cell_length_b                    10.906587
_cell_length_c                    9.56013
_cell_angle_alpha                 91.315121
_cell_angle_beta                  97.734044
_cell_angle_gamma                 90.4724
_cell_volume                      901.481225804

loop_
_atom_site_label
_atom_site_type_symbol
_atom_type_description
_atom_site_fract_x
_atom_site_fract_y
_atom_site_fract_z
_atom_type_partial_charge
Br1   Br    Br    0.872976 0.710917 0.206990 -0.520544
Br2   Br    Br    0.750948 0.161179 0.832620 -0.499216
C1    C     C_R   0.498543 0.263001 0.498319 0.815970
C2    C     C_R   0.621999 0.548853 0.942386 0.245751
C3    C     C_3   0.673049 0.678314 0.943581 -0.540371
C4    C     C_R   0.204000 0.497666 0.463972 0.878670
C5    C     C_3   0.669817 0.682618 0.101275 0.055042
C6    C     C_R   0.499204 0.737654 0.500941 0.824664
C7    C     C_R   0.796062 0.499390 0.536110 0.915597
C8    C     C_2   0.038318 0.491953 0.444528 -0.301113
C9    C     C_2   0.961930 0.499970 0.556176 -0.342157
C10   C     C_R   0.515724 0.067219 0.619280 0.096825
C11   C     C_R   0.495257 0.130913 0.495045 -0.097309
C12   C     C_R   0.470015 0.932813 0.369943 -0.156483
C13   C     C_R   0.470869 0.061747 0.367552 -0.184343
C14   C     C_R   0.494941 0.870903 0.499676 -0.072135
C15   C     C_R   0.515810 0.943652 0.622341 0.065832
C16   C     C_3   0.551103 0.945200 0.779582 -0.507993
C17   C     C_3   0.549242 0.085616 0.774635 0.123422
C18   C     C_R   0.621307 0.550653 0.090104 0.248146
C19   C     C_R   0.388359 0.439591 0.059019 -0.059420
C20   C     C_R   0.388164 0.439810 0.910263 -0.052117
Cu1   Cu    Cu3+1 0.499990 0.499980 0.640670 0.977292
Cu2   Cu    Cu3+1 0.500010 0.500020 0.359330 0.985015
H1    H     H_    0.978882 0.480971 0.337562 0.206009
H2    H     H_    0.668082 0.909040 0.815253 0.239327
H3    H     H_    0.451744 0.128323 0.820975 0.131139
H4    H     H_    0.296523 0.392296 0.102050 0.151579
H5    H     H_    0.296075 0.392795 0.842190 0.144214
H6    H     H_    0.789503 0.688637 0.910117 0.232923
H7    H     H_    0.580430 0.732411 0.886237 0.195306
H8    H     H_    0.579060 0.743903 0.133106 0.148049
H9    H     H_    0.021434 0.508821 0.663468 0.174580
H10   H     H_    0.452348 0.106464 0.266778 0.171644
H11   H     H_    0.449746 0.882441 0.270317 0.161890
H12   H     H_    0.454071 0.907482 0.830318 0.178444
N1    N     N_R   0.500980 0.500930 0.148050 -0.214094
N2    N     N_R   0.500990 0.500890 0.852140 -0.187485
O1    O     O_R   0.500000 0.319640 0.618810 -0.566853
O2    O     O_R   0.500020 0.319680 0.381230 -0.591873
O3    O     O_R   0.274830 0.499980 0.591380 -0.592599
O4    O     O_R   0.274850 0.500020 0.353800 -0.580830
O5    O     O_R   0.499980 0.680320 0.618770 -0.588244
O6    O     O_R   0.500000 0.680360 0.381190 -0.583623
O7    O     O_R   0.725150 0.499980 0.646200 -0.571659
O8    O     O_R   0.725170 0.500020 0.408620 -0.556867

loop_
_geom_bond_atom_site_label_1
_geom_bond_atom_site_label_2
_ccdc_geom_bond_type
C10   C15   A    
C4    C8    S    
Cu1   Cu2   S    
C7    O7    A    
Cu1   O3    S    
Cu1   O7    S    
C20   H5    S    
Cu1   N2    S    
Cu2   O4    S    
C13   H10   S    
C16   H2    S    
C6    O5    A    
Cu2   O8    S    
C15   C16   S    
C1    O1    A    
C7    O8    A    
C6    C14   S    
C19   C20   A    
C18   N1    A    
C7    C9    S    
C14   C15   A    
C2    C18   A    
Cu1   O1    S    
C8    H1    S    
C17   H3    S    
Cu2   O2    S    
C19   H4    S    
C2    N2    A    
C1    O2    A    
Cu2   N1    S    
C11   C13   A    
Cu2   O6    S    
C12   C14   A    
C8    C9    D    
C20   N2    A    
C9    H9    S    
Cu1   O5    S    
C10   C11   A    
C10   C17   S    
C19   N1    A    
C5    C18   S    
C4    O4    A    
C12   H11   S    
C3    C5    S    
C12   C13   A    
C16   C17   S    
C5    H8    S    
Br2   C17   S    
Br1   C5    S    
C16   H12   S    
C6    O6    A    
C3    H6    S    
C2    C3    S    
C3    H7    S    
C4    O3    A    
C1    C11   S    
