data_mof_unit_32537.cif
_audit_creation_date              2012-12-10T18:06:50-0500
_audit_creation_method            fapswitch 2.2
_symmetry_space_group_name_H-M    P1
_symmetry_Int_Tables_number       1
_space_group_crystal_system       triclinic
_cell_length_a                    12.624768
_cell_length_b                    13.262545
_cell_length_c                    15.178223
_cell_angle_alpha                 84.364665
_cell_angle_beta                  98.11732
_cell_angle_gamma                 96.71087
_cell_volume                      2490.04853355

loop_
_atom_site_label
_atom_site_type_symbol
_atom_type_description
_atom_site_fract_x
_atom_site_fract_y
_atom_site_fract_z
_atom_type_partial_charge
C1    C     C_R   0.443449 0.308748 0.509606 0.833348
C2    C     C_R   0.699577 0.529461 0.936582 -0.144254
C3    C     C_R   0.598400 0.564353 0.901300 -0.144234
C4    C     C_R   0.437012 0.515369 0.334857 0.878402
C5    C     C_R   0.754822 0.479343 0.881129 0.593749
C6    C     C_R   0.707172 0.462329 0.793818 -0.425330
C7    C     C_R   0.547783 0.535623 0.817180 0.574657
C8    C     C_R   0.718356 0.937251 0.511572 -0.223694
C9    C     C_R   0.585202 0.800518 0.469465 -0.079290
C10   C     C_R   0.301361 0.184494 0.448410 -0.183641
C11   C     C_R   0.279108 0.101352 0.397955 -0.168364
C12   C     C_R   0.483600 0.599125 0.100154 -0.022694
C13   C     C_R   0.356774 0.035127 0.398692 -0.218617
C14   C     C_R   0.452805 0.042042 0.459525 0.082008
C15   C     C_R   0.476436 0.129010 0.508635 0.088657
C16   C     C_R   0.554475 0.691406 0.485161 0.879199
C17   C     C_R   0.529693 0.969867 0.469650 -0.004345
C18   C     C_R   0.635987 0.999000 0.511370 0.146192
C19   C     C_R   0.657508 0.085470 0.558295 -0.268510
C20   C     C_R   0.576006 0.144638 0.563117 -0.224264
C21   C     C_R   0.504763 0.867327 0.448084 0.153109
C22   C     C_R   0.693026 0.838451 0.488012 -0.271864
C23   C     C_R   0.385969 0.639759 0.063090 -0.080166
C24   C     C_R   0.403334 0.203122 0.497370 -0.104886
C25   C     C_R   0.139005 0.644960 0.622842 -0.452918
C26   C     C_R   0.759713 0.374613 0.398742 0.250946
C27   C     C_R   0.856877 0.341659 0.384880 0.460488
C28   C     C_R   0.564024 0.487748 0.665172 0.909822
C29   C     C_R   0.952760 0.390590 0.423740 -0.335441
C30   C     C_R   0.953022 0.468017 0.481262 -0.032882
C31   C     C_R   0.853109 0.494520 0.497998 0.103075
C32   C     C_R   0.048685 0.518881 0.523091 0.013383
C33   C     C_R   0.043536 0.591713 0.584961 0.033923
C34   C     C_R   0.568020 0.599081 0.047892 -0.133288
C35   C     C_R   0.943631 0.611857 0.606724 0.183666
C36   C     C_R   0.849933 0.565777 0.559769 -0.217854
C37   C     C_R   0.150425 0.500299 0.505300 -0.161203
C38   C     C_R   0.237667 0.625602 0.600351 0.703091
C39   C     C_R   0.410571 0.547202 0.239407 -0.168335
C40   C     C_R   0.606026 0.493283 0.760506 -0.285129
C41   C     C_R   0.301664 0.635515 0.117006 0.591016
C42   C     C_R   0.314683 0.588045 0.204495 -0.315923
C43   C     C_R   0.491034 0.549498 0.185512 -0.188111
C44   C     C_3   0.206200 0.672647 0.881174 -0.699861
C45   C     C_R   0.543033 0.615034 0.955640 -0.116333
C46   C     C_3   0.934146 0.484533 0.868374 -0.303614
C47   C     C_3   0.378869 0.791342 0.329292 -0.779737
C48   C     C_3   0.330734 0.779784 0.639846 -0.234220
C49   C     C_3   0.380010 0.454618 0.824585 -0.290880
C50   C     C_3   0.839203 0.703710 0.697344 -0.847719
C51   C     C_3   0.643202 0.325270 0.263833 -0.700465
C52   C     C_3   0.874294 0.173526 0.384264 -0.349187
C53   C     C_3   0.928945 0.600749 0.063416 -0.673042
C54   C     C_3   0.186679 0.754186 0.125719 -0.355730
C55   C     C_3   0.544212 0.802241 0.835042 -0.340016
C56   C     C_R   0.459610 0.676721 0.921836 0.548758
C57   C     C_3   0.727094 0.699029 0.182707 -0.310329
C58   C     C_R   0.377615 0.684431 0.973898 0.074145
C59   C     C_R   0.674760 0.578709 0.082772 0.436950
C60   C     C_R   0.740386 0.543786 0.027040 0.147502
H1    H     H_    0.756364 0.788904 0.494001 0.175578
H2    H     H_    0.024892 0.363770 0.408793 0.164685
H3    H     H_    0.774793 0.584638 0.573273 0.229864
H4    H     H_    0.749060 0.423610 0.751860 0.201031
H5    H     H_    0.250402 0.584260 0.245340 0.173423
H6    H     H_    0.560101 0.510408 0.210850 0.227697
H7    H     H_    0.306985 0.805068 0.902246 0.230218
H8    H     H_    0.135124 0.715089 0.858814 0.207754
H9    H     H_    0.179783 0.601289 0.920461 0.248797
H10   H     H_    0.238780 0.652947 0.821532 0.255473
H11   H     H_    0.936976 0.569031 0.862493 0.154989
H12   H     H_    0.736131 0.104389 0.595298 0.147241
H13   H     H_    0.928483 0.455805 0.801382 0.161156
H14   H     H_    0.011488 0.464550 0.906550 0.193382
H15   H     H_    0.334139 0.847372 0.444185 0.220865
H16   H     H_    0.296238 0.752265 0.317639 0.231905
H17   H     H_    0.436716 0.737270 0.321163 0.241155
H18   H     H_    0.388047 0.856778 0.278553 0.214887
H19   H     H_    0.412481 0.819203 0.635452 0.187990
H20   H     H_    0.306149 0.795439 0.704142 0.183564
H21   H     H_    0.276235 0.813224 0.583165 0.103304
H22   H     H_    0.392324 0.445094 0.898868 0.145234
H23   H     H_    0.800851 0.962340 0.537038 0.145943
H24   H     H_    0.400777 0.386019 0.796641 0.144812
H25   H     H_    0.293191 0.461062 0.803052 0.181834
H26   H     H_    0.993715 0.662831 0.732953 0.214787
H27   H     H_    0.855043 0.756926 0.750923 0.237808
H28   H     H_    0.789710 0.635100 0.721266 0.250256
H29   H     H_    0.794777 0.742514 0.638506 0.254673
H30   H     H_    0.642096 0.253534 0.391279 0.233650
H31   H     H_    0.556103 0.326880 0.240174 0.216088
H32   H     H_    0.668547 0.254868 0.242775 0.252267
H33   H     H_    0.688557 0.392585 0.231879 0.252816
H34   H     H_    0.244227 0.240791 0.439607 0.149342
H35   H     H_    0.810695 0.153845 0.428752 0.161257
H36   H     H_    0.955357 0.178226 0.424348 0.161919
H37   H     H_    0.869365 0.110536 0.340407 0.200509
H38   H     H_    0.846261 0.475983 0.125599 0.257277
H39   H     H_    0.922381 0.652991 0.114754 0.225765
H40   H     H_    0.925071 0.644148 0.996836 0.224005
H41   H     H_    0.008018 0.569845 0.078778 0.271592
H42   H     H_    0.259180 0.810883 0.132895 0.161132
H43   H     H_    0.159624 0.729049 0.191607 0.159487
H44   H     H_    0.121103 0.793245 0.084869 0.198507
H45   H     H_    0.341531 0.982700 0.347878 0.161960
H46   H     H_    0.532099 0.852149 0.772257 0.186412
H47   H     H_    0.619702 0.766761 0.834954 0.173955
H48   H     H_    0.552514 0.851761 0.891354 0.136198
H49   H     H_    0.647200 0.724630 0.186074 0.177905
H50   H     H_    0.767148 0.746495 0.129664 0.145343
H51   H     H_    0.777303 0.711918 0.247524 0.194584
H52   H     H_    0.204708 0.092569 0.352878 0.145030
H53   H     H_    0.593525 0.206293 0.606456 0.160612
H54   H     H_    0.137953 0.702348 0.668336 0.160069
H55   H     H_    0.162939 0.446672 0.460093 0.149250
N1    N     N_R   0.239390 0.551900 0.544730 -0.144464
N2    N     N_R   0.759950 0.448600 0.455730 -0.158040
N3    N     N_2   0.286789 0.735172 0.935182 -0.240682
N4    N     N_2   0.398050 0.825011 0.418551 -0.294669
N5    N     N_2   0.940190 0.676968 0.676498 -0.304283
N6    N     N_2   0.660490 0.324879 0.360260 -0.243187
N7    N     N_2   0.844415 0.517242 0.064222 -0.234665
O1    O     O_R   0.374950 0.371210 0.521360 -0.627703
O2    O     O_3   0.334966 0.674034 0.637417 -0.524395
O3    O     O_3   0.439148 0.544020 0.791995 -0.516166
O4    O     O_3   0.858344 0.264574 0.330166 -0.600789
O5    O     O_3   0.203751 0.669727 0.081840 -0.603712
O6    O     O_3   0.454901 0.727734 0.837390 -0.560088
O7    O     O_3   0.718337 0.594135 0.170177 -0.634874
O8    O     O_R   0.542050 0.338030 0.492790 -0.605764
O9    O     O_R   0.368720 0.526070 0.390200 -0.618561
O10   O     O_R   0.535820 0.492890 0.361630 -0.578054
O11   O     O_R   0.457950 0.661970 0.507210 -0.537302
O12   O     O_R   0.625050 0.628790 0.478640 -0.648631
O13   O     O_R   0.464180 0.507110 0.638370 -0.514680
O14   O     O_R   0.631280 0.473930 0.609800 -0.648925
O15   O     O_3   0.849639 0.437940 0.914964 -0.573820
Zn1   Zn    Zn3+2 0.388420 0.522150 0.519080 0.997648
Zn2   Zn    Zn3+2 0.611580 0.477850 0.480920 0.938853

loop_
_geom_bond_atom_site_label_1
_geom_bond_atom_site_label_2
_ccdc_geom_bond_type
O13   Zn1   S    
C23   C58   A    
C8    H23   S    
C41   C42   A    
C41   O5    S    
C19   C20   A    
C26   N2    A    
C16   O12   A    
C19   H12   S    
C4    O10   A    
C37   N1    A    
C53   H39   S    
O10   Zn2   S    
C12   C23   A    
C26   C27   A    
C50   N5    S    
C5    C6    A    
C48   H19   S    
C57   O7    S    
C9    C16   S    
C47   H16   S    
C12   C43   A    
C3    C7    A    
C53   N7    S    
C31   C36   A    
C30   C31   A    
C51   H32   S    
C27   O4    S    
C2    C60   A    
C9    C22   A    
C27   C29   A    
C10   H34   S    
C28   O13   A    
C52   H37   S    
C58   N3    S    
C48   H21   S    
C52   H35   S    
C18   C19   A    
C6    H4    S    
C31   N2    A    
C51   H31   S    
C57   H49   S    
C35   C36   A    
C45   C56   A    
C53   H41   S    
C42   H5    S    
C8    C22   A    
C7    C40   A    
C44   H10   S    
C26   N6    S    
C39   C42   A    
C36   H3    S    
C50   H28   S    
C47   N4    S    
C59   C60   A    
C13   C14   A    
C14   C17   A    
C35   N5    S    
N2    Zn2   S    
O14   Zn2   S    
C16   O11   A    
O8    Zn2   S    
C4    O9    A    
N1    Zn1   S    
C53   H40   S    
C15   C20   A    
C55   H46   S    
C49   H25   S    
C54   H43   S    
H15   N4    S    
C13   H45   S    
C1    O8    A    
O12   Zn2   S    
C52   O4    S    
C39   C43   A    
C10   C24   A    
C3    C45   A    
C8    C18   A    
C55   H47   S    
C49   H22   S    
C1    O1    A    
C29   C30   A    
C25   C38   A    
C38   N1    A    
C50   H29   S    
C57   H50   S    
O1    Zn1   S    
C4    C39   S    
C44   N3    S    
C17   C18   A    
C44   H9    S    
C34   C45   A    
C32   C37   A    
C7    O3    S    
C60   N7    S    
C46   H11   S    
C50   H27   S    
C51   H33   S    
C46   O15   S    
C15   C24   A    
C34   C59   A    
C51   N6    S    
H30   N6    S    
C6    C40   A    
C44   H8    S    
C2    C5    A    
C47   H17   S    
C12   C34   A    
C46   H14   S    
C49   H24   S    
C54   H44   S    
H38   N7    S    
C29   H2    S    
C59   O7    S    
C11   H52   S    
C28   O14   A    
C54   H42   S    
C48   O2    S    
C5    O15   S    
C37   H55   S    
C49   O3    S    
C54   O5    S    
C23   C41   A    
C55   H48   S    
C32   C33   A    
C48   H20   S    
C2    C3    A    
C21   N4    S    
O9    Zn1   S    
C25   H54   S    
C22   H1    S    
C30   C32   A    
C11   C13   A    
C9    C21   A    
C57   H51   S    
C43   H6    S    
C33   C35   A    
C56   C58   A    
C52   H36   S    
C56   O6    S    
C20   H53   S    
H7    N3    S    
C17   C21   A    
C10   C11   A    
O11   Zn1   S    
C55   O6    S    
C1    C24   S    
C28   C40   S    
C14   C15   A    
H26   N5    S    
C47   H18   S    
C46   H13   S    
C38   O2    S    
C25   C33   A    
