data_mof_unit_45550.cif
_audit_creation_date              2012-12-11T14:08:12-0500
_audit_creation_method            fapswitch 2.2
_symmetry_space_group_name_H-M    P1
_symmetry_Int_Tables_number       1
_space_group_crystal_system       triclinic
_cell_length_a                    10.93725
_cell_length_b                    10.951209
_cell_length_c                    18.577424
_cell_angle_alpha                 90.538366
_cell_angle_beta                  89.787308
_cell_angle_gamma                 59.761977
_cell_volume                      1922.20526638

loop_
_atom_site_label
_atom_site_type_symbol
_atom_type_description
_atom_site_fract_x
_atom_site_fract_y
_atom_site_fract_z
_atom_type_partial_charge
C1    C     C_R   0.237412 0.645495 0.609276 0.545201
C2    C     C_3   0.644596 0.620401 0.802901 -0.231020
C3    C     C_3   0.730731 0.697149 0.806930 0.008140
C4    C     C_3   0.681559 0.663450 0.672634 0.037426
C5    C     C_3   0.844139 0.584773 0.687609 -0.273849
C6    C     C_3   0.614004 0.602753 0.724570 -0.229812
C7    C     C_2   0.677114 0.159208 0.671404 -0.124038
C8    C     C_2   0.685522 0.172352 0.829171 -0.122656
C9    C     C_2   0.797388 0.135026 0.785648 -0.179310
C10   C     C_2   0.777204 0.168726 0.708754 -0.183257
C11   C     C_2   0.186556 0.660486 0.683170 -0.120712
C12   C     C_R   0.657376 0.627712 0.598939 0.566673
C13   C     C_2   0.202514 0.658140 0.841149 -0.124479
C14   C     C_2   0.205658 0.554030 0.801492 -0.181590
C15   C     C_2   0.232449 0.544357 0.723854 -0.174766
C16   C     C_2   0.616782 0.614986 0.311424 -0.117748
C17   C     C_2   0.627927 0.657835 0.156128 -0.116134
C18   C     C_2   0.696307 0.531024 0.187831 -0.157264
C19   C     C_2   0.670342 0.509128 0.262952 -0.178870
C20   C     C_2   0.677622 0.133570 0.334325 -0.111742
C21   C     C_2   0.651992 0.144643 0.179991 -0.096259
C22   C     C_2   0.613526 0.070372 0.222340 -0.157318
C23   C     C_R   0.628351 0.228392 0.602190 0.562068
C24   C     C_2   0.597271 0.093804 0.299270 -0.166376
C25   C     C_2   0.110630 0.687210 0.348347 0.137843
C26   C     C_2   0.115619 0.692042 0.190877 -0.071274
C27   C     C_2   0.043498 0.806494 0.234251 -0.134777
C28   C     C_2   0.074770 0.802675 0.309980 -0.129207
C29   C     C_R   0.702386 0.103468 0.898006 0.542185
C30   C     C_R   0.758429 0.712527 0.883170 0.553918
C31   C     C_R   0.121258 0.704796 0.908066 0.543689
C32   C     C_R   0.675137 0.105743 0.105222 0.548224
C33   C     C_R   0.691380 0.687643 0.094387 0.557519
C34   C     C_R   0.213634 0.652337 0.405158 0.546450
C35   C     C_R   0.087748 0.712905 0.115158 0.543079
C36   C     C_R   0.613628 0.586391 0.387258 0.565152
C37   C     C_R   0.622150 0.221632 0.397732 0.553270
C38   C     C_3   0.644895 0.843523 0.770248 -0.199557
C39   C     C_3   0.623823 0.825012 0.689029 0.136702
C40   C     C_3   0.872163 0.611221 0.765378 -0.265614
Cr1   Cr    Cr6+3 0.393010 0.398050 0.501480 1.034122
Cr2   Cr    Cr6+3 0.398820 0.707980 0.501630 1.079911
Cr3   Cr    Cr6+3 0.708140 0.393940 0.496850 1.007293
Cr4   Cr    Cr6+3 0.937950 0.938450 0.008940 1.020534
Cr5   Cr    Cr6+3 0.626180 0.937030 0.994750 1.024887
Cr6   Cr    Cr6+3 0.937790 0.625760 0.001410 1.022096
H1    H     H_    0.701362 0.903712 0.776198 0.084036
H2    H     H_    0.657691 0.488062 0.713058 0.121740
H3    H     H_    0.941388 0.507898 0.791449 0.156771
H4    H     H_    0.892408 0.468527 0.679646 0.166623
H5    H     H_    0.904814 0.073939 0.805493 0.167701
H6    H     H_    0.842170 0.205952 0.683752 0.168099
H7    H     H_    0.578670 0.234875 0.808624 0.126140
H8    H     H_    0.616718 0.117286 0.696658 0.158581
H9    H     H_    0.176930 0.481103 0.824610 0.161955
H10   H     H_    0.289286 0.439044 0.699928 0.188702
H11   H     H_    0.238766 0.725621 0.818335 0.128362
H12   H     H_    0.540874 0.905946 0.798198 0.201689
H13   H     H_    0.127706 0.765883 0.706868 0.123820
H14   H     H_    0.785427 0.442105 0.160872 0.156220
H15   H     H_    0.712674 0.401001 0.280685 0.132537
H16   H     H_    0.532972 0.745182 0.179964 0.100123
H17   H     H_    0.577294 0.723833 0.296062 0.103950
H18   H     H_    0.586066 0.995391 0.199770 0.151251
H19   H     H_    0.506553 0.095989 0.324719 0.161306
H20   H     H_    0.680234 0.219877 0.201048 0.083021
H21   H     H_    0.773310 0.122295 0.309818 0.093196
H22   H     H_    0.970375 0.909875 0.212571 0.147809
H23   H     H_    0.093104 0.885783 0.329692 0.125649
H24   H     H_    0.191185 0.587925 0.210590 0.128121
H25   H     H_    0.690542 0.856313 0.657804 0.103971
H26   H     H_    0.928832 0.671619 0.765224 0.123699
H27   H     H_    0.898481 0.620501 0.649662 0.120302
H28   H     H_    0.704303 0.514365 0.827956 0.150375
H29   H     H_    0.542747 0.681553 0.833043 0.143801
H30   H     H_    0.498103 0.653650 0.716776 0.178218
O1    O     O_R   0.507110 0.256280 0.580300 -0.471243
O2    O     O_R   0.524640 0.695370 0.425100 -0.488210
O3    O     O_R   0.735890 0.504390 0.415980 -0.519934
O4    O     O_R   0.690560 0.277820 0.422350 -0.521829
O5    O     O_3   0.499990 0.499990 0.499980 -0.281631
O6    O     O_R   0.089190 0.825870 0.932320 -0.509379
O7    O     O_R   0.819070 0.053960 0.931440 -0.493927
O8    O     O_R   0.607070 0.076440 0.916460 -0.516886
O9    O     O_R   0.647110 0.806550 0.917690 -0.505919
O10   O     O_R   0.837080 0.593860 0.915300 -0.519628
O11   O     O_R   0.064770 0.636080 0.932550 -0.511949
O12   O     O_R   0.280830 0.527190 0.577940 -0.505531
O13   O     O_R   0.068250 0.829200 0.092940 -0.515230
O14   O     O_R   0.799650 0.057040 0.080330 -0.502306
O15   O     O_R   0.586130 0.079760 0.077080 -0.507857
O16   O     O_R   0.627700 0.809630 0.066580 -0.497557
O17   O     O_R   0.816140 0.597180 0.075920 -0.504278
O18   O     O_R   0.045360 0.639170 0.081440 -0.488753
O19   O     O_3   0.833980 0.833750 0.001700 -0.268706
O20   O     O_R   0.261360 0.738990 0.584270 -0.468168
O21   O     O_R   0.532590 0.694780 0.574370 -0.410876
O22   O     O_R   0.744470 0.503750 0.577000 -0.540158
O23   O     O_R   0.698520 0.277230 0.571620 -0.504747
O24   O     O_R   0.498530 0.256920 0.419280 -0.504672
O25   O     O_R   0.272880 0.527780 0.428680 -0.508019
O26   O     O_R   0.252780 0.739630 0.423250 -0.539931
S1    S     S_3+6 0.443658 0.949851 0.663270 -0.018852
O27   O     O_2   0.344359 0.898631 0.683904 -0.295187
O28   O     O_2   0.395849 0.089533 0.700379 -0.327054
O29   O     O_3   0.437637 0.974931 0.573861 -0.503753
H31   H     H_    0.337155 0.043908 0.563831 0.355204
N1    N     N_2   0.068288 0.587905 0.326949 -0.533407
H32   H     H_    0.127184 0.487585 0.347345 0.268698
C41   C     C_3   0.917808 0.640224 0.330634 -0.285167
H33   H     H_    0.896961 0.557424 0.309628 0.170895
H34   H     H_    0.858385 0.735735 0.297191 0.163779
H35   H     H_    0.879740 0.665734 0.387331 0.165649

loop_
_geom_bond_atom_site_label_1
_geom_bond_atom_site_label_2
_ccdc_geom_bond_type
C7    C10   D    
C23   O23   A    
C21   H20   S    
C20   H21   S    
C28   H23   S    
C9    H5    S    
Cr3   O22   S    
Cr4   O7    S    
C10   H6    S    
C25   C28   D    
C26   C27   D    
C34   O26   A    
C31   O6    A    
C6    H2    S    
Cr2   O20   S    
C8    C29   S    
Cr3   O23   S    
C29   O7    A    
Cr4   O6    S    
C16   C19   D    
Cr1   O1    S    
C38   C39   S    
C32   O15   A    
C13   H11   S    
O29   H31   S    
Cr3   O3    S    
C40   H3    S    
N1    H32   S    
C18   C19   S    
Cr5   O16   S    
C41   H33   S    
C27   H22   S    
C38   H12   S    
C11   C15   D    
C32   O14   A    
Cr6   O19   S    
C20   C24   D    
C3    C38   S    
N1    C41   S    
C8    C9    D    
C1    C11   S    
C16   H17   S    
C30   O10   A    
C9    C10   S    
C12   O22   A    
C2    H28   S    
C25   C34   S    
C1    O12   A    
C14   H9    S    
C21   C22   D    
C2    C6    S    
Cr2   O5    S    
C17   C33   S    
C11   H13   S    
Cr2   O26   S    
C37   O4    A    
C21   C32   S    
C34   O25   A    
C31   O11   A    
C29   O8    A    
C4    C6    S    
Cr2   O21   S    
Cr3   O4    S    
C3    C30   S    
Cr5   O9    S    
C17   H16   S    
Cr6   O18   S    
C4    C39   S    
Cr1   O5    S    
C17   C18   D    
C12   O21   A    
Cr1   O24   S    
S1    O28   D    
C23   O1    A    
C30   O9    A    
C39   S1    S    
C41   H35   S    
C38   H1    S    
C24   H19   S    
C35   O13   A    
C18   H14   S    
C3    C40   S    
Cr2   O2    S    
C26   H24   S    
C22   C24   S    
C5    H4    S    
C33   O16   A    
Cr5   O8    S    
C4    C12   S    
Cr5   O19   S    
C27   C28   S    
Cr4   O14   S    
Cr6   O11   S    
C35   O18   A    
Cr1   O12   S    
C40   H26   S    
Cr3   O5    S    
C13   C31   S    
C4    C5    S    
C36   O3    A    
C33   O17   A    
C8    H7    S    
C6    H30   S    
C15   H10   S    
C2    C3    S    
Cr4   O19   S    
C36   O2    A    
C16   C36   S    
C20   C37   S    
Cr6   O17   S    
C19   H15   S    
C1    O20   A    
C7    C23   S    
Cr1   O25   S    
S1    O29   S    
C5    H27   S    
Cr5   O15   S    
C41   H34   S    
C2    H29   S    
C22   H18   S    
C26   C35   S    
C5    C40   S    
S1    O27   D    
C39   H25   S    
C14   C15   S    
C7    H8    S    
C13   C14   D    
C37   O24   A    
Cr4   O13   S    
C25   N1    S    
Cr6   O10   S    
