data_mof_unit_20007.cif
_audit_creation_date              2012-12-10T20:45:30-0500
_audit_creation_method            fapswitch 2.2
_symmetry_space_group_name_H-M    P1
_symmetry_Int_Tables_number       1
_space_group_crystal_system       triclinic
_cell_length_a                    10.695096
_cell_length_b                    10.688259
_cell_length_c                    9.865282
_cell_angle_alpha                 89.18567
_cell_angle_beta                  90.481891
_cell_angle_gamma                 90.275128
_cell_volume                      1127.5535378

loop_
_atom_site_label
_atom_site_type_symbol
_atom_type_description
_atom_site_fract_x
_atom_site_fract_y
_atom_site_fract_z
_atom_type_partial_charge
C1    C     C_R   0.503290 0.259899 0.501056 0.871323
C2    C     C_R   0.223029 0.819795 0.096834 -0.117241
C3    C     C_R   0.931721 0.566383 0.399964 -0.246591
C4    C     C_R   0.872429 0.497812 0.502433 -0.079145
C5    C     C_R   0.940273 0.437399 0.606854 0.001921
C6    C     C_R   0.068341 0.443001 0.602771 -0.260210
C7    C     C_R   0.127900 0.509774 0.499179 -0.079551
C8    C     C_R   0.060284 0.575552 0.397857 -0.001969
C9    C     C_R   0.893271 0.414762 0.853121 -0.196568
C10   C     C_R   0.839168 0.350310 0.962072 -0.151028
C11   C     C_R   0.775746 0.237172 0.941089 0.183318
C12   C     C_R   0.260341 0.504984 0.499316 0.863049
C13   C     C_R   0.767318 0.188937 0.809404 -0.167844
C14   C     C_R   0.819029 0.254819 0.699842 -0.162593
C15   C     C_R   0.882148 0.368209 0.721221 0.151207
C16   C     C_R   0.508378 0.060870 0.624965 0.118085
C17   C     C_R   0.521403 0.128341 0.503868 -0.137229
C18   C     C_R   0.556276 0.066789 0.385292 -0.224110
C19   C     C_R   0.555923 0.937382 0.383785 -0.240209
C20   C     C_R   0.519058 0.871382 0.500310 -0.110274
C21   C     C_R   0.504496 0.933466 0.621741 0.112084
C22   C     C_3   0.402136 0.923113 0.723279 -0.474228
C23   C     C_R   0.503015 0.739895 0.499322 0.875068
C24   C     C_3   0.408675 0.064661 0.731039 -0.123066
C25   C     C_R   0.433626 0.411838 0.071908 0.152819
C26   C     C_R   0.576978 0.578167 0.072038 0.099527
C27   C     C_R   0.577117 0.578021 0.926546 0.106408
C28   C     C_R   0.431545 0.413961 0.929869 0.143935
C29   C     C_3   0.293452 0.395168 0.924627 -0.505383
C30   C     C_3   0.296432 0.388706 0.078514 -0.474450
C31   C     C_R   0.739838 0.497325 0.500843 0.872660
C32   C     C_R   0.254377 0.833920 0.233533 -0.122262
C33   C     C_R   0.202419 0.754113 0.331784 -0.090761
C34   C     C_R   0.118500 0.658948 0.293743 0.131572
C35   C     C_R   0.084502 0.648158 0.156200 -0.200516
C36   C     C_R   0.137844 0.727199 0.058227 -0.142576
H1    H     H_    0.263834 0.881366 0.021019 0.125578
H2    H     H_    0.720825 0.100522 0.791608 0.144920
H3    H     H_    0.810978 0.217067 0.598803 0.123428
H4    H     H_    0.575967 0.117709 0.292332 0.175903
H5    H     H_    0.575936 0.890247 0.290234 0.171201
H6    H     H_    0.313026 0.888403 0.678273 0.168224
H7    H     H_    0.432650 0.873038 0.817372 0.210225
H8    H     H_    0.322115 0.114806 0.698808 0.149193
H9    H     H_    0.318292 0.907374 0.263386 0.135537
H10   H     H_    0.243203 0.478701 0.884080 0.217277
H11   H     H_    0.266462 0.305159 0.877426 0.191745
H12   H     H_    0.246036 0.466050 0.126852 0.235856
H13   H     H_    0.274446 0.294006 0.120111 0.194876
H14   H     H_    0.226627 0.767277 0.437453 0.086336
H15   H     H_    0.018763 0.576710 0.124467 0.121955
H16   H     H_    0.112931 0.716725 0.952398 0.127521
H17   H     H_    0.877186 0.617729 0.324827 0.160547
H18   H     H_    0.121843 0.392502 0.679596 0.156891
H19   H     H_    0.942911 0.501607 0.871225 0.122618
N1    N     N_R   0.499160 0.499140 0.142800 -0.106152
N2    N     N_R   0.499160 0.499180 0.857150 -0.105840
O1    O     O_R   0.500020 0.316790 0.614690 -0.621464
O2    O     O_R   0.500000 0.316760 0.385350 -0.623107
O3    O     O_R   0.316770 0.500030 0.614670 -0.628351
O4    O     O_R   0.316750 0.499990 0.385330 -0.611926
O5    O     O_R   0.500000 0.683240 0.614650 -0.600733
O6    O     O_R   0.499980 0.683210 0.385310 -0.601340
O7    O     O_R   0.683250 0.500010 0.614670 -0.591714
O8    O     O_R   0.683230 0.499970 0.385330 -0.610281
Zn1   Zn    Zn3+2 0.500010 0.500020 0.653130 0.960173
Zn2   Zn    Zn3+2 0.499990 0.499980 0.346870 0.961879
N3    N     N_3   0.721626 0.172241 0.054569 -0.473156
H20   H     H_    0.648096 0.227170 0.088926 0.173465
H21   H     H_    0.682317 0.087368 0.023872 0.181056
N4    N     N_3   0.459132 0.103584 0.861723 -0.469849
H22   H     H_    0.495121 0.193794 0.850129 0.217973
H23   H     H_    0.384958 0.108096 0.929777 0.181560
N5    N     N_3   0.656578 0.661460 0.145504 -0.398568
H24   H     H_    0.749133 0.642603 0.119934 0.149343
H25   H     H_    0.636182 0.753002 0.114547 0.151421
N6    N     N_3   0.655934 0.661817 0.851352 -0.386561
H26   H     H_    0.748774 0.645614 0.879867 0.160591
H27   H     H_    0.633187 0.753591 0.876179 0.157349
H28   H     H_    0.846940 0.388148 0.063088 0.139229

loop_
_geom_bond_atom_site_label_1
_geom_bond_atom_site_label_2
_ccdc_geom_bond_type
C16   C21   A    
C11   C13   A    
C32   H9    S    
C35   C36   A    
C25   N1    A    
N2    Zn1   S    
C7    C8    A    
N6    H26   S    
C25   C28   A    
C26   C27   A    
N5    H25   S    
C29   H11   S    
C30   H12   S    
C28   C29   S    
C18   C19   A    
C1    O2    A    
C5    C6    A    
C2    C32   A    
C34   C35   A    
C18   H4    S    
O2    Zn2   S    
C14   H3    S    
O1    Zn1   S    
C23   O5    A    
C19   C20   A    
C16   C17   A    
O8    Zn2   S    
C9    H19   S    
C9    C10   A    
C36   H16   S    
C23   O6    A    
O3    Zn1   S    
C16   C24   S    
C21   C22   S    
C6    H18   S    
C33   C34   A    
N6    H27   S    
C7    C12   S    
O6    Zn2   S    
N5    H24   S    
O5    Zn1   S    
C3    C8    A    
C27   N2    A    
N4    H23   S    
C10   H28   S    
N3    H20   S    
C33   H14   S    
C28   N2    A    
O7    Zn1   S    
C29   C30   S    
O4    Zn2   S    
C22   H7    S    
C20   C23   S    
C17   C18   A    
C8    C34   S    
C13   H2    S    
C30   H13   S    
C35   H15   S    
C24   H8    S    
C22   C24   S    
C3    C4    A    
C11   N3    S    
C2    C36   A    
C25   C30   S    
C31   O8    A    
C31   O7    A    
C4    C5    A    
C27   N6    S    
C26   N1    A    
C6    C7    A    
N1    Zn2   S    
C1    C17   S    
C29   H10   S    
C32   C33   A    
C9    C15   A    
N4    H22   S    
C1    O1    A    
C12   O4    A    
C3    H17   S    
C2    H1    S    
C22   H6    S    
C26   N5    S    
C5    C15   S    
C4    C31   S    
C10   C11   A    
C12   O3    A    
C20   C21   A    
N3    H21   S    
C14   C15   A    
C13   C14   A    
C19   H5    S    
C24   N4    S    
