data_mof_unit_6913.cif
_audit_creation_date              2012-10-26T20:44:03-0400
_audit_creation_method            fapswitch 2.2
_symmetry_space_group_name_H-M    P1
_symmetry_Int_Tables_number       1
_space_group_crystal_system       triclinic
_cell_length_a                    10.758109
_cell_length_b                    9.630092
_cell_length_c                    19.422138
_cell_angle_alpha                 90.039107
_cell_angle_beta                  92.676416
_cell_angle_gamma                 89.977361
_cell_volume                      2009.96866287

loop_
_atom_site_label
_atom_site_type_symbol
_atom_type_description
_atom_site_fract_x
_atom_site_fract_y
_atom_site_fract_z
_atom_type_partial_charge
C1    C     C_R   0.871258 0.499865 0.500477 0.042606
C2    C     C_R   0.737038 0.499965 0.500199 0.536856
C3    C     C_R   0.500016 0.499938 0.367787 0.526136
C4    C     C_R   0.499987 0.500056 0.632211 0.526537
C5    C     C_R   0.059334 0.490997 0.436107 -0.011503
C6    C     C_R   0.940666 0.508998 0.563894 -0.011436
C7    C     C_R   0.928578 0.490761 0.436723 -0.007882
C8    C     C_R   0.071422 0.509241 0.563279 -0.007864
C9    C     C_R   0.500069 0.374582 0.744274 -0.120027
C10   C     C_R   0.499767 0.625319 0.255637 -0.113038
C11   C     C_R   0.501108 0.373642 0.255888 -0.113595
C12   C     C_R   0.128742 0.500133 0.499524 0.042607
C13   C     C_R   0.499134 0.626104 0.744189 -0.113670
C14   C     C_R   0.500088 0.373029 0.816203 0.032451
C15   C     C_R   0.499787 0.626301 0.183645 0.031363
C16   C     C_R   0.501157 0.371924 0.183916 0.030766
C17   C     C_R   0.499123 0.627599 0.816162 0.029738
C18   C     C_R   0.499673 0.500514 0.852465 0.177205
C19   C     C_R   0.500424 0.498887 0.147617 0.173875
C20   C     C_R   0.438972 0.073330 0.448121 0.360092
C21   C     C_R   0.561028 0.926670 0.551879 0.360142
C22   C     C_R   0.561047 0.073416 0.551872 0.360250
C23   C     C_R   0.386051 0.498297 0.960744 0.174718
C24   C     C_R   0.438953 0.926584 0.448128 0.360194
C25   C     C_R   0.499753 0.500250 0.707928 -0.027504
C26   C     C_R   0.500270 0.499663 0.292067 -0.028375
C27   C     C_3   0.123539 0.482265 0.368130 -0.379792
C28   C     C_3   0.876459 0.517732 0.631872 -0.380044
C29   C     C_3   0.847334 0.481666 0.370530 -0.370917
C30   C     C_3   0.152666 0.518370 0.629471 -0.371148
C31   C     C_3   0.500617 0.233502 0.851616 -0.373304
C32   C     C_3   0.499064 0.763235 0.145975 -0.385954
C33   C     C_3   0.501968 0.234648 0.146508 -0.385312
C34   C     C_R   0.614039 0.501902 0.039292 0.172506
C35   C     C_3   0.498540 0.764939 0.853568 -0.386701
C36   C     C_R   0.386228 0.500007 0.033576 0.173620
C37   C     C_R   0.613868 0.500186 0.966461 0.175941
C38   C     C_R   0.500245 0.498161 0.071813 0.034245
C39   C     C_R   0.499847 0.502176 0.928231 0.033512
C40   C     C_R   0.262962 0.500034 0.499802 0.536881
Cu1   Cu    Cu3+1 0.500000 0.640660 0.500000 0.946808
Cu2   Cu    Cu3+1 0.500000 0.359340 0.500000 0.946701
H1    H     H_    0.500323 0.276660 0.716738 0.174150
H2    H     H_    0.097544 0.383765 0.341456 0.149378
H3    H     H_    0.095472 0.572007 0.335087 0.147180
H4    H     H_    0.773629 0.515811 0.626633 0.135571
H5    H     H_    0.904505 0.427975 0.664909 0.146750
H6    H     H_    0.902475 0.616218 0.658552 0.149176
H7    H     H_    0.787642 0.387778 0.371905 0.151815
H8    H     H_    0.786861 0.574959 0.365762 0.146433
H9    H     H_    0.899155 0.475218 0.322825 0.137110
H10   H     H_    0.212315 0.612293 0.628095 0.151800
H11   H     H_    0.100846 0.524780 0.677176 0.136892
H12   H     H_    0.499342 0.723068 0.283262 0.173176
H13   H     H_    0.213184 0.425112 0.634236 0.146173
H14   H     H_    0.416765 0.173899 0.833868 0.135132
H15   H     H_    0.584749 0.174473 0.838070 0.146091
H16   H     H_    0.500763 0.240984 0.908547 0.135667
H17   H     H_    0.498534 0.852751 0.182066 0.129869
H18   H     H_    0.583257 0.771676 0.115304 0.149335
H19   H     H_    0.414837 0.770587 0.110905 0.153763
H20   H     H_    0.502453 0.145447 0.182756 0.129261
H21   H     H_    0.417822 0.225965 0.111445 0.156367
H22   H     H_    0.586249 0.227116 0.115832 0.151760
H23   H     H_    0.501768 0.276146 0.283693 0.172704
H24   H     H_    0.498166 0.854179 0.817336 0.129814
H25   H     H_    0.414290 0.772659 0.884257 0.151178
H26   H     H_    0.582723 0.773497 0.888610 0.155888
H27   H     H_    0.213997 0.440074 0.945783 0.340338
H28   H     H_    0.786143 0.559777 0.054322 0.339183
H29   H     H_    0.213307 0.554797 0.039913 0.339144
H30   H     H_    0.786740 0.445031 0.960193 0.340282
H31   H     H_    0.498622 0.723665 0.716442 0.172562
H32   H     H_    0.336139 0.222139 0.412454 0.360459
H33   H     H_    0.663863 0.777864 0.587546 0.360434
H34   H     H_    0.664003 0.222187 0.587482 0.361269
H35   H     H_    0.335997 0.777813 0.412519 0.361317
H36   H     H_    0.226370 0.484221 0.373366 0.135636
N1    N     N_R   0.500000 0.852070 0.500000 -0.309578
N2    N     N_R   0.500000 0.147930 0.500000 -0.309570
O1    O     O_R   0.319640 0.618740 0.500000 -0.522219
O2    O     O_3   0.626701 0.862923 0.605444 -0.658951
O3    O     O_3   0.626799 0.137251 0.605408 -0.658354
O4    O     O_3   0.373200 0.862749 0.394592 -0.657742
O5    O     O_3   0.277717 0.489241 0.919876 -0.706516
O6    O     O_3   0.722416 0.510435 0.080150 -0.709291
O7    O     O_3   0.277938 0.506749 0.069000 -0.705677
O8    O     O_3   0.722122 0.492908 0.931026 -0.703175
O9    O     O_R   0.680360 0.381260 0.500000 -0.522215
O10   O     O_R   0.680360 0.618740 0.500000 -0.520505
O11   O     O_R   0.319640 0.381260 0.500000 -0.520559
O12   O     O_R   0.500020 0.618830 0.400190 -0.495644
O13   O     O_R   0.499980 0.381170 0.599810 -0.495605
O14   O     O_R   0.499980 0.618830 0.599810 -0.498292
O15   O     O_R   0.500020 0.381170 0.400190 -0.498234
O16   O     O_3   0.373297 0.137076 0.394557 -0.658611

loop_
_geom_bond_atom_site_label_1
_geom_bond_atom_site_label_2
_ccdc_geom_bond_type
C28   H5    S    
Cu2   N2    S    
C7    C29   S    
C34   C37   A    
Cu1   Cu2   S    
C14   C18   A    
C37   O8    S    
C14   C31   S    
C9    C14   A    
C27   H36   S    
C4    C25   S    
C9    C25   A    
C15   C32   S    
C29   H7    S    
C15   C19   A    
C28   H4    S    
C31   H16   S    
C32   H19   S    
Cu2   O11   S    
C10   C15   A    
C16   C19   A    
Cu2   O13   S    
C1    C2    S    
C34   O6    S    
C2    O10   A    
C5    C27   S    
C27   H2    S    
C6    C28   S    
C20   C24   A    
C33   H20   S    
C31   H14   S    
C8    C12   A    
C27   H3    S    
Cu1   O10   S    
C20   O16   S    
C34   C38   A    
C21   C22   A    
C13   C25   A    
H34   O3    S    
H30   O8    S    
C29   H8    S    
C36   O7    S    
C30   H11   S    
C9    H1    S    
C20   N2    A    
Cu2   O15   S    
H32   O16   S    
C5    C12   A    
C5    C7    A    
C6    C8    A    
C35   H24   S    
C1    C6    A    
C3    O12   A    
C12   C40   S    
C2    O9    A    
C18   C39   S    
C11   C26   A    
C19   C38   S    
C16   C33   S    
C11   C16   A    
C24   N1    A    
Cu1   O14   S    
C35   H25   S    
C33   H21   S    
Cu1   O1    S    
C21   N1    A    
C17   C18   A    
C4    O14   A    
C13   H31   S    
H29   O7    S    
C32   H18   S    
H28   O6    S    
H27   O5    S    
C29   H9    S    
C30   H10   S    
C28   H6    S    
C1    C7    A    
C40   O1    A    
C3    C26   S    
Cu1   N1    S    
H33   O2    S    
C30   H13   S    
H35   O4    S    
C13   C17   A    
Cu2   O9    S    
C8    C30   S    
C22   O3    S    
C31   H15   S    
C36   C38   A    
C24   O4    S    
C22   N2    A    
C37   C39   A    
C10   C26   A    
C35   H26   S    
C33   H22   S    
C23   C39   A    
C40   O11   A    
C10   H12   S    
C4    O13   A    
Cu1   O12   S    
C21   O2    S    
C23   C36   A    
C23   O5    S    
C3    O15   A    
C17   C35   S    
C32   H17   S    
C11   H23   S    
