data_mof_unit_43521.cif
_audit_creation_date              2012-10-26T19:03:29-0400
_audit_creation_method            fapswitch 2.2
_symmetry_space_group_name_H-M    P1
_symmetry_Int_Tables_number       1
_space_group_crystal_system       triclinic
_cell_length_a                    10.825269
_cell_length_b                    13.046919
_cell_length_c                    11.791624
_cell_angle_alpha                 99.763588
_cell_angle_beta                  95.452426
_cell_angle_gamma                 89.416536
_cell_volume                      1633.82870231

loop_
_atom_site_label
_atom_site_type_symbol
_atom_type_description
_atom_site_fract_x
_atom_site_fract_y
_atom_site_fract_z
_atom_type_partial_charge
C1    C     C_R   0.494401 0.298899 0.478397 0.579894
C2    C     C_R   0.409468 0.125222 0.377211 -0.003119
C3    C     C_R   0.573974 0.131322 0.535341 0.036927
C4    C     C_R   0.262389 0.508612 0.499622 0.576632
C5    C     C_R   0.570620 0.021178 0.524062 -0.059628
C6    C     C_R   0.473137 0.966990 0.449451 -0.032684
C7    C     C_R   0.444901 0.864352 0.461182 0.225182
C8    C     C_R   0.636396 0.856028 0.584849 0.175446
C9    C     C_R   0.659975 0.962404 0.583957 0.062708
C10   C     C_R   0.376997 0.407229 0.021017 0.023478
C11   C     C_R   0.386267 0.420077 0.144259 0.390553
C12   C     C_R   0.068540 0.562733 0.595483 -0.049195
C13   C     C_R   0.550594 0.541691 0.157566 0.175296
C14   C     C_R   0.537962 0.538934 0.034257 -0.048344
C15   C     C_R   0.456658 0.464849 0.964365 -0.104608
C16   C     C_R   0.506216 0.699735 0.520752 0.650477
C17   C     C_R   0.457368 0.452634 0.840401 0.379219
C18   C     C_R   0.592345 0.597460 0.856292 0.387801
C19   C     C_R   0.604917 0.607448 0.978767 0.228535
C20   C     C_R   0.738312 0.490893 0.501361 0.582685
C21   C     C_R   0.122859 0.641830 0.683792 0.055678
C22   C     C_R   0.074978 0.659448 0.793068 0.223957
C23   C     C_R   0.127037 0.517157 0.496871 0.018139
C24   C     C_R   0.987177 0.589405 0.817344 0.080047
C25   C     C_R   0.924931 0.520171 0.723851 -0.012730
C26   C     C_R   0.951850 0.523405 0.608842 -0.086925
C27   C     C_2   0.783084 0.006035 0.634238 0.598327
C28   C     C_2   0.320552 0.177038 0.303095 0.661798
C29   C     C_2   0.659609 0.194249 0.623488 0.639776
C30   C     C_2   0.279241 0.336939 0.955225 0.575805
C31   C     C_2   0.647304 0.609130 0.228829 0.706928
C32   C     C_2   0.220143 0.712200 0.660086 0.570539
C33   C     C_2   0.966539 0.587705 0.940707 0.640935
C34   C     C_R   0.056999 0.459178 0.402167 -0.120543
C35   C     C_2   0.867792 0.424660 0.747460 0.672306
C36   C     C_2   0.866740 0.367297 0.306980 0.631527
C37   C     C_2   0.339007 0.953204 0.260171 0.642322
C38   C     C_R   0.931464 0.439511 0.405518 0.030719
C39   C     C_R   0.875066 0.478759 0.507183 0.000609
C40   C     C_R   0.525782 0.810715 0.528871 0.078180
C41   C     C_R   0.491096 0.183560 0.464535 -0.045102
C42   C     C_R   0.405339 0.016316 0.365489 0.020037
Cu1   Cu    Cu3+1 0.509250 0.507730 0.615930 1.184092
Cu2   Cu    Cu3+1 0.490750 0.492270 0.384070 1.162314
H1    H     H_    0.101935 0.424835 0.326893 0.184107
H2    H     H_    0.829302 0.628960 0.282518 0.350060
H3    H     H_    0.369895 0.802695 0.722079 0.343141
H4    H     H_    0.131443 0.801332 0.844597 0.365005
H5    H     H_    0.936873 0.503769 0.064308 0.386363
H6    H     H_    0.000623 0.332829 0.674572 0.314436
H7    H     H_    0.856344 0.307101 0.136941 0.371474
H8    H     H_    0.268457 0.866475 0.419758 0.355868
H9    H     H_    0.805938 0.820057 0.638909 0.353664
H10   H     H_    0.346286 0.832511 0.128953 0.375618
H11   H     H_    0.942175 0.073672 0.607889 0.368320
H12   H     H_    0.157392 0.251152 0.290504 0.358225
H13   H     H_    0.718615 0.235296 0.792639 0.392849
H14   H     H_    0.422127 0.307871 0.795177 0.339892
H15   H     H_    0.641658 0.735742 0.842443 0.344452
H16   H     H_    0.123490 0.320656 0.847948 0.375412
H17   H     H_    0.741542 0.708007 0.998393 0.369819
H18   H     H_    0.222294 0.364118 0.153868 0.332105
N1    N     N_R   0.523180 0.519350 0.790130 -0.177158
N2    N     N_R   0.476820 0.480650 0.209890 -0.260776
O1    O     O_R   0.506570 0.354460 0.582000 -0.456706
O2    O     O_R   0.860917 0.046013 0.564056 -0.636145
O3    O     O_2   0.329526 0.166034 0.199147 -0.395186
O4    O     O_R   0.221538 0.231916 0.351496 -0.673139
O5    O     O_2   0.734985 0.249896 0.592487 -0.431646
O6    O     O_R   0.652708 0.190959 0.740626 -0.660198
O7    O     O_3   0.394070 0.372941 0.768103 -0.613697
O8    O     O_3   0.652959 0.663977 0.801206 -0.621967
O9    O     O_2   0.278878 0.245043 0.964762 -0.432702
O10   O     O_R   0.185827 0.376410 0.885143 -0.646008
O11   O     O_3   0.678603 0.685634 0.044583 -0.634846
O12   O     O_R   0.490940 0.341410 0.386200 -0.445916
O13   O     O_3   0.302958 0.374185 0.201447 -0.621138
O14   O     O_2   0.623363 0.699033 0.268723 -0.425450
O15   O     O_R   0.769931 0.574603 0.235911 -0.668786
O16   O     O_2   0.214678 0.740528 0.566347 -0.505533
O17   O     O_R   0.315347 0.748779 0.745681 -0.658439
O18   O     O_3   0.119222 0.738889 0.879793 -0.598777
O19   O     O_2   0.970955 0.668630 0.010668 -0.421252
O20   O     O_R   0.947781 0.493763 0.978739 -0.640611
O21   O     O_2   0.774326 0.429494 0.798137 -0.448415
O22   O     O_R   0.925604 0.328744 0.718949 -0.629675
O23   O     O_R   0.327470 0.506530 0.597920 -0.474379
O24   O     O_2   0.781848 0.311780 0.322868 -0.452622
O25   O     O_R   0.906819 0.359263 0.196535 -0.686571
O26   O     O_3   0.336341 0.814989 0.410426 -0.608995
O27   O     O_3   0.720799 0.792196 0.634613 -0.657974
O28   O     O_2   0.230930 0.971546 0.230046 -0.438024
O29   O     O_R   0.400581 0.870707 0.197619 -0.589132
O30   O     O_R   0.311840 0.493480 0.402120 -0.463007
O31   O     O_R   0.509060 0.658590 0.613800 -0.450300
O32   O     O_R   0.493430 0.645540 0.418000 -0.463827
O33   O     O_R   0.688160 0.506520 0.597880 -0.452983
O34   O     O_R   0.672530 0.493470 0.402080 -0.497179
O35   O     O_2   0.816887 0.005518 0.736131 -0.447643

loop_
_geom_bond_atom_site_label_1
_geom_bond_atom_site_label_2
_ccdc_geom_bond_type
C36   O25   S    
H18   O13   S    
H8    O26   S    
Cu1   N1    S    
C4    O23   A    
Cu2   N2    S    
C32   O17   S    
C12   C23   A    
C27   O35   D    
C5    C6    A    
C22   O18   S    
H5    O20   S    
C28   O4    S    
C4    C23   S    
C10   C15   A    
C38   C39   A    
C30   O10   S    
C35   O22   S    
C26   C39   A    
C2    C41   A    
Cu2   O12   S    
C18   C19   A    
H16   O10   S    
C37   C42   S    
C3    C29   S    
H10   O29   S    
C11   O13   S    
Cu2   O34   S    
C20   O33   A    
C8    C9    A    
H9    O27   S    
C1    O1    A    
C7    C40   A    
H13   O6    S    
H15   O8    S    
C21   C22   A    
C29   O5    D    
C18   O8    S    
C21   C32   S    
C16   O32   A    
C28   O3    D    
C24   C25   A    
C11   N2    A    
C8    O27   S    
C20   C39   S    
C25   C26   A    
H12   O4    S    
C7    O26   S    
C12   C21   A    
H17   O11   S    
C12   C26   A    
Cu1   Cu2   S    
C5    C9    A    
Cu2   O32   S    
C32   O16   D    
C10   C30   S    
Cu1   O31   S    
C14   C15   A    
Cu1   O1    S    
C23   C34   A    
C37   O29   S    
C34   H1    S    
C33   O19   D    
C25   C35   S    
C4    O30   A    
C1    C41   S    
C16   C40   S    
C17   O7    S    
C22   C24   A    
C30   O9    D    
H11   O2    S    
C9    C27   S    
C31   O14   D    
C29   O6    S    
C15   C17   A    
C3    C41   A    
C16   O31   A    
C37   O28   D    
C34   C38   A    
C1    O12   A    
C14   C19   A    
C13   C31   S    
Cu1   O33   S    
C3    C5    A    
C31   O15   S    
C6    C7    A    
C24   C33   S    
Cu1   O23   S    
C36   C38   S    
C36   O24   D    
C27   O2    S    
H7    O25   S    
C35   O21   D    
H2    O15   S    
C13   N2    A    
C2    C42   A    
C19   O11   S    
H4    O18   S    
H3    O17   S    
C18   N1    A    
C33   O20   S    
Cu2   O30   S    
C10   C11   A    
H6    O22   S    
C20   O34   A    
C6    C42   A    
H14   O7    S    
C2    C28   S    
C8    C40   A    
C13   C14   A    
C17   N1    A    
