data_mof_unit_24787.cif
_audit_creation_date              2012-12-11T14:34:55-0500
_audit_creation_method            fapswitch 2.2
_symmetry_space_group_name_H-M    P1
_symmetry_Int_Tables_number       1
_space_group_crystal_system       triclinic
_cell_length_a                    8.314771
_cell_length_b                    15.233119
_cell_length_c                    16.643744
_cell_angle_alpha                 110.651653
_cell_angle_beta                  97.902549
_cell_angle_gamma                 80.637398
_cell_volume                      1939.01354275

loop_
_atom_site_label
_atom_site_type_symbol
_atom_type_description
_atom_site_fract_x
_atom_site_fract_y
_atom_site_fract_z
_atom_type_partial_charge
Ba1   Ba    Ba6+2 0.364960 0.465930 0.541880 1.751844
Ba2   Ba    Ba6+2 0.824870 0.533990 0.458110 1.745701
C1    C     C_3   0.258328 0.182400 0.754677 -0.296613
C2    C     C_R   0.916701 0.559638 0.764303 -0.259835
C3    C     C_2   0.486234 0.396531 0.138563 -0.127252
C4    C     C_3   0.715580 0.313120 0.774139 0.322583
C5    C     C_2   0.445130 0.413028 0.218440 -0.003998
C6    C     C_2   0.162705 0.480516 0.184538 -0.018655
C7    C     C_3   0.217811 0.484527 0.102729 -0.041665
C8    C     C_3   0.357740 0.406058 0.067790 0.063255
C9    C     C_2   0.081498 0.487521 0.032908 -0.094336
C10   C     C_2   0.112158 0.504522 0.962830 -0.057841
C11   C     C_R   0.821585 0.555729 0.916475 0.088434
C12   C     C_3   0.228173 0.269776 0.728257 0.324466
C13   C     C_R   0.984279 0.522868 0.896785 -0.051921
C14   C     C_R   0.704536 0.582571 0.857460 -0.110883
C15   C     C_R   0.748770 0.582025 0.778826 0.003122
C16   C     C_3   0.714851 0.303121 0.861827 -0.321124
C17   C     C_R   0.028841 0.520014 0.817201 -0.036109
C18   C     C_R   0.251435 0.766243 0.479665 -0.267347
C19   C     C_R   0.345866 0.820020 0.456473 -0.019774
C20   C     C_R   0.301937 0.919081 0.479749 -0.141158
C21   C     C_R   0.147637 0.961166 0.513155 -0.016853
C22   C     C_R   0.061293 0.903993 0.540317 -0.053329
C23   C     C_3   0.138355 0.824952 0.743478 0.219403
C24   C     C_R   0.119459 0.809268 0.529261 -0.023441
C25   C     C_R   0.935555 0.106354 0.563714 -0.047846
C26   C     C_R   0.867685 0.197618 0.569078 -0.037578
C27   C     C_R   0.076526 0.209621 0.485636 -0.008667
C28   C     C_3   0.721385 0.238418 0.346432 0.251381
C29   C     C_R   0.134201 0.113539 0.473411 -0.144016
C30   C     C_R   0.075453 0.062222 0.518691 0.029049
C31   C     C_R   0.948359 0.251832 0.538531 -0.323966
C32   C     C_3   0.773841 0.132499 0.319954 -0.368992
C33   C     C_3   0.533382 0.761237 0.648198 0.310927
C34   C     C_3   0.102522 0.934390 0.769090 -0.210875
C35   C     C_3   0.528872 0.867148 0.668270 -0.350952
C36   C     C_3   0.278194 0.191826 0.276348 0.210407
C37   C     C_3   0.322523 0.089591 0.273060 -0.323698
C38   C     C_2   0.173467 0.794019 0.821569 0.526240
C39   C     C_2   0.928308 0.971517 0.789804 0.536210
C40   C     C_2   0.218686 0.984373 0.843217 0.433804
C41   C     C_2   0.515547 0.624626 0.120880 0.494965
C42   C     C_2   0.358810 0.777764 0.120424 0.565534
C43   C     C_2   0.989290 0.814831 0.168417 0.342621
C44   C     C_2   0.934862 0.906135 0.320579 0.516983
C45   C     C_3   0.367722 0.727109 0.250572 0.159368
C46   C     C_2   0.717450 0.834864 0.208433 0.636568
C47   C     C_2   0.209297 0.428155 0.308187 0.494185
C48   C     C_2   0.987122 0.587548 0.702450 0.563598
C49   C     C_2   0.427949 0.979189 0.484604 0.495665
C50   C     C_2   0.897363 0.352977 0.564843 0.646485
C51   C     C_3   0.369544 0.695460 0.151806 -0.233561
C52   C     C_3   0.932049 0.732264 0.267863 0.185755
C53   C     C_3   0.894021 0.822451 0.241921 -0.208853
C54   C     C_2   0.270325 0.443689 0.236536 -0.292285
H1    H     H_    0.669143 0.093398 0.286367 0.169766
H2    H     H_    0.266982 0.785220 0.271498 0.003208
H3    H     H_    0.058725 0.727876 0.298704 -0.050981
H4    H     H_    0.609955 0.367484 0.121759 0.113781
H5    H     H_    0.237810 0.510034 0.956023 0.153665
H6    H     H_    0.221660 0.079624 0.426852 0.072863
H7    H     H_    0.949297 0.930492 0.571057 0.061422
H8    H     H_    0.288922 0.691150 0.464627 0.084557
H9    H     H_    0.784517 0.234581 0.862347 0.115535
H10   H     H_    0.831861 0.274627 0.369136 0.079122
H11   H     H_    0.638287 0.259077 0.398676 0.077105
H12   H     H_    0.404210 0.903633 0.681713 0.116616
H13   H     H_    0.299931 0.256133 0.672518 0.090963
H14   H     H_    0.873340 0.111705 0.276179 0.146521
H15   H     H_    0.818008 0.112699 0.377805 0.105681
H16   H     H_    0.422638 0.735045 0.608119 -0.064802
H17   H     H_    0.637667 0.726415 0.611476 0.113361
H18   H     H_    0.615997 0.896811 0.724646 0.185346
H19   H     H_    0.257398 0.191751 0.208980 0.045178
H20   H     H_    0.390173 0.168329 0.774859 0.171609
H21   H     H_    0.392346 0.087302 0.334105 0.148919
H22   H     H_    0.095738 0.282023 0.708890 -0.079651
H23   H     H_    0.564157 0.880824 0.612267 0.043219
H24   H     H_    0.222210 0.120217 0.699600 0.058030
H25   H     H_    0.298863 0.773826 0.842846 0.011297
H26   H     H_    0.249949 0.801516 0.709623 -0.062746
H27   H     H_    0.846847 0.002583 0.747473 -0.038962
H28   H     H_    0.208974 0.984822 0.907756 0.070090
H29   H     H_    0.120630 0.952956 0.712527 -0.000134
H30   H     H_    0.612842 0.611315 0.166706 0.086010
H31   H     H_    0.259229 0.659864 0.122870 0.049794
H32   H     H_    0.353832 0.849449 0.165723 0.078063
H33   H     H_    0.848592 0.738219 0.316412 0.144134
H34   H     H_    0.379616 0.234277 0.306636 0.048905
H35   H     H_    0.013618 0.747123 0.118191 0.077152
H36   H     H_    0.042099 0.940418 0.325089 -0.001226
H37   H     H_    0.645563 0.382238 0.775659 0.075741
H38   H     H_    0.674134 0.780469 0.151205 -0.033255
H39   H     H_    0.581316 0.608259 0.875469 0.160502
H40   H     H_    0.116865 0.381452 0.294328 0.028128
H41   H     H_    0.090459 0.627253 0.723794 -0.000456
H42   H     H_    0.957675 0.480059 0.041026 0.112658
H43   H     H_    0.874363 0.071979 0.594952 0.059440
H44   H     H_    0.448653 0.037750 0.543479 0.017382
H45   H     H_    0.400552 0.050315 0.219446 0.133406
H46   H     H_    0.844582 0.311771 0.762687 -0.073521
H47   H     H_    0.919280 0.395116 0.631626 -0.081117
H48   H     H_    0.587262 0.306189 0.876394 0.157122
H49   H     H_    0.210605 0.054351 0.262003 0.140942
H50   H     H_    0.184846 0.193211 0.809059 0.132633
H51   H     H_    0.772829 0.361459 0.912524 0.075135
H52   H     H_    0.343099 0.664970 0.265612 -0.017349
O1    O     O_2   0.426270 0.593440 0.713420 -0.484344
O2    O     O_2   0.685938 0.804455 0.442310 -0.433645
O3    O     O_3   0.515543 0.760460 0.293559 -0.572452
O4    O     O_3   0.647730 0.570260 0.604850 -0.424137
O5    O     O_3   0.070240 0.381690 0.454200 -0.398707
O6    O     O_2   0.845720 0.730180 0.545110 -0.455232
O7    O     O_3   0.005615 0.780474 0.691915 -0.634846
O8    O     O_2   0.827635 0.490039 0.192140 -0.498995
O9    O     O_3   0.910544 0.650043 0.196510 -0.644374
O10   O     O_3   0.203920 0.417520 0.657950 -0.502816
O11   O     O_2   0.367893 0.505909 0.806815 -0.477670
O12   O     O_3   0.132025 0.232786 0.315395 -0.650832
O13   O     O_3   0.549194 0.740362 0.724500 -0.629755
O14   O     O_3   0.277879 0.347249 0.798028 -0.602088
O15   O     O_2   0.343970 0.269780 0.454840 -0.478439
O16   O     O_3   0.615710 0.361880 0.613490 -0.473760
O17   O     O_2   0.530969 0.189221 0.547761 -0.475548
O18   O     O_2   0.062849 0.793435 0.862569 -0.520349
O19   O     O_2   0.876676 0.966736 0.853183 -0.517477
O20   O     O_2   0.324788 0.024242 0.831672 -0.586412
O21   O     O_2   0.525713 0.581718 0.044060 -0.572527
O22   O     O_2   0.350495 0.765030 0.043368 -0.529842
O23   O     O_3   0.642527 0.238701 0.710536 -0.607356
O24   O     O_2   0.024957 0.885358 0.159403 -0.573089
O25   O     O_2   0.851008 0.933722 0.381548 -0.521970
O26   O     O_2   0.624633 0.905782 0.241526 -0.553752
O27   O     O_2   0.240652 0.478710 0.381803 -0.508957
O28   O     O_2   0.949055 0.555029 0.626108 -0.504825
O29   O     O_2   0.503735 0.966625 0.422909 -0.491021
O30   O     O_2   0.806136 0.386629 0.516667 -0.524489
O31   O     O_2   0.763420 0.406520 0.286530 -0.446732
O32   O     O_3   0.541980 0.429670 0.395140 -0.419692
O33   O     O_3   0.985790 0.582400 0.342040 -0.449369
O34   O     O_3   0.641146 0.259706 0.274923 -0.647829
O35   O     O_3   0.119470 0.618230 0.545790 -0.384714
O36   O     O_3   0.574000 0.638040 0.386500 -0.480722
P1    P     P_3+3 0.589930 0.617420 0.700180 1.036061
P2    P     P_3+3 0.161520 0.277720 0.428790 1.007560
P3    P     P_3+3 0.664307 0.244863 0.609681 0.952080
P4    P     P_3+3 0.599780 0.382500 0.299810 1.035165
P5    P     P_3+3 0.530095 0.757648 0.398644 1.025110
P6    P     P_3+3 0.220235 0.449709 0.770880 0.954051
P7    P     P_3+3 0.030868 0.738978 0.580723 0.982115
P8    P     P_3+3 0.970249 0.550428 0.228745 0.950694

loop_
_geom_bond_atom_site_label_1
_geom_bond_atom_site_label_2
_ccdc_geom_bond_type
C46   C53   S    
C35   H18   S    
C50   H47   S    
O12   P2    S    
C12   O14   S    
Ba2   O36   S    
C39   O19   D    
C34   C40   S    
O2    P5    D    
O32   P4    S    
C34   C39   S    
C31   C50   S    
C13   C17   A    
C35   H23   S    
Ba2   O4    S    
C46   H38   S    
C9    H42   S    
Ba2   O31   S    
C37   H21   S    
C46   O26   D    
C24   P7    S    
C6    P8    S    
C22   C24   A    
C23   O7    S    
Ba1   O4    S    
C36   C37   S    
Ba2   O5    S    
C44   H36   S    
C42   O22   D    
C39   H27   S    
C35   H12   S    
C27   C31   A    
C17   P6    S    
O4    P1    S    
Ba1   Ba2   S    
O10   P6    S    
C16   H51   S    
Ba1   O1    S    
C2    C17   A    
Ba1   P1    S    
C42   C51   S    
C41   C51   S    
C6    C7    S    
C14   H39   S    
C44   C53   S    
C32   H1    S    
C50   O30   D    
C21   C22   A    
C10   C13   S    
O23   P3    S    
C19   P5    S    
C7    C8    S    
C32   H14   S    
C28   H11   S    
C40   O20   D    
C36   H19   S    
C36   O12   S    
O11   P6    D    
O35   P7    S    
C47   O27   D    
C38   O18   D    
C19   C20   A    
Ba2   O35   S    
C29   H6    S    
C6    C54   D    
Ba1   P2    S    
Ba1   O5    S    
C5    C54   S    
C1    H24   S    
O3    P5    S    
C37   H45   S    
C52   H3    S    
C1    H50   S    
C4    C16   S    
O16   P3    S    
O31   P4    D    
C28   C32   S    
O34   P4    S    
C41   O21   D    
C40   H28   S    
C52   H33   S    
O17   P3    D    
C27   P2    S    
C3    C5    D    
C14   C15   A    
C2    C48   S    
C16   H9    S    
O5    P2    S    
C18   H8    S    
C15   P1    S    
Ba1   O15   S    
O36   P5    S    
Ba1   O35   S    
O6    P7    D    
C12   H22   S    
C29   C30   A    
O15   P2    D    
C33   O13   S    
C4    H37   S    
C25   H43   S    
C51   H31   S    
C16   H48   S    
C1    H20   S    
C7    C9    S    
C28   H10   S    
C1    C12   S    
C2    C15   A    
C49   O29   D    
C33   H16   S    
C22   H7    S    
C11   C13   A    
C23   H26   S    
C12   H13   S    
O13   P1    S    
C52   O9    S    
O14   P6    S    
O8    P8    D    
C5    P4    S    
C49   H44   S    
C37   H49   S    
C52   C53   S    
C33   H17   S    
C26   P3    S    
C48   H41   S    
C3    H4    S    
C33   C35   S    
C25   C30   A    
C41   H30   S    
C38   H25   S    
O1    P1    D    
C4    O23   S    
C26   C31   A    
C9    C10   D    
C34   H29   S    
C47   C54   S    
C36   H34   S    
C28   O34   S    
C45   C51   S    
Ba2   O32   S    
C21   C30   S    
Ba1   O16   S    
C3    C8    S    
C23   C38   S    
C48   O28   D    
C45   H2    S    
C10   H5    S    
Ba2   O6    S    
C18   C24   A    
C45   O3    S    
O9    P8    S    
Ba1   O10   S    
C4    H46   S    
C47   H40   S    
C43   H35   S    
C23   C34   S    
C18   C19   A    
C43   C53   S    
C43   O24   D    
C27   C29   A    
C45   H52   S    
C11   C14   A    
O7    P7    S    
C25   C26   A    
Ba2   O33   S    
C20   C21   A    
Ba1   O32   S    
C42   H32   S    
Ba2   P4    S    
C32   H15   S    
O33   P8    S    
C20   C49   S    
C44   O25   D    
