data_mof_unit_30695.cif
_audit_creation_date              2012-12-11T15:42:49-0500
_audit_creation_method            fapswitch 2.2
_symmetry_space_group_name_H-M    P1
_symmetry_Int_Tables_number       1
_space_group_crystal_system       triclinic
_cell_length_a                    6.935415
_cell_length_b                    14.515216
_cell_length_c                    16.263147
_cell_angle_alpha                 90.417794
_cell_angle_beta                  89.930119
_cell_angle_gamma                 90.320002
_cell_volume                      1637.1253084

loop_
_atom_site_label
_atom_site_type_symbol
_atom_type_description
_atom_site_fract_x
_atom_site_fract_y
_atom_site_fract_z
_atom_type_partial_charge
O1    O     O_R   0.505810 0.583360 0.413880 -0.543928
O2    O     O_R   0.175870 0.595480 0.585520 -0.508528
O3    O     O_R   0.005540 0.416640 0.586120 -0.546679
C1    C     C_R   0.344522 0.616885 0.615277 0.737686
O4    O     O_R   0.176100 0.594390 0.414490 -0.545791
O5    O     O_R   0.005770 0.415540 0.413870 -0.546791
C2    C     C_R   0.345423 0.616455 0.385741 0.670492
O6    O     O_R   0.505580 0.584460 0.586130 -0.539711
O7    O     O_3   0.339190 0.441320 0.500000 -0.376498
V1    V     V_3+5 0.064350 0.510890 0.500000 1.433021
O8    O     O_R   0.676050 0.404520 0.414480 -0.548585
C3    C     C_R   0.843524 0.380677 0.386565 0.661216
O9    O     O_R   0.675830 0.405610 0.585510 -0.509478
C4    C     C_R   0.844224 0.383468 0.613535 0.754401
V2    V     V_3+5 0.564340 0.489110 0.500000 1.431145
O10   O     O_3   0.839370 0.558680 0.500000 -0.364154
C5    C     C_2   0.727109 0.206909 0.785403 -0.312882
C6    C     C_2   0.886845 0.191032 0.830809 0.247338
H1    H     H_    0.598902 0.165930 0.797512 0.127739
C7    C     C_2   0.706499 0.280996 0.722514 0.499332
C8    C     C_2   0.857459 0.311779 0.677435 -0.387011
H2    H     H_    0.997348 0.280774 0.684645 0.148821
C9    C     C_R   0.034615 0.240173 0.206334 -0.179507
H3    H     H_    0.167599 0.237374 0.171441 0.121293
C10   C     C_R   0.018890 0.303640 0.271156 -0.183626
H4    H     H_    0.139893 0.349004 0.283257 0.120287
C11   C     C_R   0.849107 0.310607 0.318490 -0.060678
C12   C     C_R   0.689689 0.251946 0.297272 0.081037
C13   C     C_R   0.709093 0.189070 0.231663 -0.176985
H5    H     H_    0.589414 0.143714 0.216524 0.120183
C14   C     C_R   0.879462 0.182325 0.185936 -0.062879
C15   C     C_R   0.189166 0.704308 0.734226 0.471435
C16   C     C_R   0.202398 0.768755 0.799104 -0.234226
H6    H     H_    0.073031 0.785380 0.833405 0.135661
C17   C     C_R   0.379396 0.810250 0.820278 -0.118881
C18   C     C_R   0.543759 0.786863 0.774137 -0.147463
H7    H     H_    0.682424 0.817732 0.788313 0.141172
C19   C     C_R   0.530711 0.725039 0.707696 -0.213305
H8    H     H_    0.659504 0.710649 0.672411 0.193787
C20   C     C_R   0.353922 0.683340 0.686075 -0.160245
C21   C     C_R   0.188747 0.723078 0.284075 -0.157142
H9    H     H_    0.048047 0.704605 0.307927 0.116461
C22   C     C_R   0.199744 0.786196 0.219373 -0.154518
H10   H     H_    0.067055 0.814491 0.195609 0.118092
C23   C     C_R   0.379130 0.812464 0.185968 -0.046124
C24   C     C_R   0.547207 0.773789 0.219278 -0.158404
H11   H     H_    0.687901 0.792272 0.195428 0.116405
C25   C     C_R   0.536209 0.710667 0.283984 -0.153750
H12   H     H_    0.668891 0.682372 0.307755 0.117858
C26   C     C_R   0.356814 0.684379 0.317370 -0.043390
O11   O     O_R   0.230120 0.912300 0.917180 -0.540442
O12   O     O_R   0.559740 0.902430 0.088770 -0.544176
O13   O     O_R   0.729930 0.081310 0.089370 -0.541593
C27   C     C_R   0.390456 0.880348 0.117561 0.680620
O14   O     O_R   0.559840 0.901330 0.917750 -0.543933
O15   O     O_R   0.730030 0.080210 0.917120 -0.553501
C28   C     C_R   0.390699 0.878850 0.888968 0.710596
O16   O     O_R   0.230020 0.913400 0.089430 -0.541970
O17   O     O_3   0.396460 0.055470 0.003290 -0.365411
V3    V     V_3+5 0.671360 0.985960 0.003250 1.393155
O18   O     O_R   0.059740 0.091300 0.917690 -0.522076
C29   C     C_R   0.891406 0.115072 0.891168 0.674764
O19   O     O_R   0.059640 0.092400 0.088720 -0.545288
C30   C     C_R   0.891027 0.114716 0.117252 0.685243
V4    V     V_3+5 0.171350 0.007820 0.003190 1.418741
O20   O     O_3   0.896380 0.938200 0.003220 -0.372784
O21   O     O_3   0.050811 0.245000 0.822087 -0.553528
C31   C     C_3   0.049126 0.314110 0.883417 -0.221805
H13   H     H_    0.055885 0.283976 0.946088 0.120007
H14   H     H_    0.920269 0.359019 0.877592 0.126421
H15   H     H_    0.178674 0.358331 0.875398 0.168105
O22   O     O_3   0.525009 0.317320 0.709425 -0.540117
C32   C     C_3   0.413460 0.252797 0.664608 -0.193653
H16   H     H_    0.337569 0.205388 0.707196 0.160081
H17   H     H_    0.499408 0.212298 0.619173 0.096723
H18   H     H_    0.304069 0.290883 0.629053 0.167514
C33   C     C_3   0.495390 0.252114 0.340485 -0.351110
C34   C     C_3   0.501222 0.201117 0.422585 -0.283935
C35   C     C_3   0.297864 0.188935 0.457393 -0.781315
H19   H     H_    0.234189 0.257004 0.472501 0.238542
H20   H     H_    0.203549 0.152706 0.412273 0.230469
H21   H     H_    0.302935 0.146761 0.513933 0.198775
H22   H     H_    0.565472 0.131830 0.413075 0.186438
H23   H     H_    0.591534 0.239571 0.467672 0.190103
H24   H     H_    0.437743 0.322608 0.347557 0.189111
H25   H     H_    0.387063 0.216518 0.301053 0.164862
O23   O     O_3   0.011893 0.665445 0.715979 -0.559008
C36   C     C_3   0.980911 0.589881 0.768464 -0.250195
H26   H     H_    0.969995 0.612507 0.833818 0.123824
H27   H     H_    0.095956 0.537194 0.761140 0.133494
H28   H     H_    0.841980 0.556548 0.751593 0.164549

loop_
_geom_bond_atom_site_label_1
_geom_bond_atom_site_label_2
_ccdc_geom_bond_type
O23   C36   S    
O19   V4    S    
C21   C22   A    
C21   H9    S    
C17   C18   A    
C1    O6    A    
C33   C34   S    
C4    C8    S    
C12   C13   A    
C33   H25   S    
O5    C3    A    
C19   H8    S    
O13   C30   A    
V2    O10   S    
C5    C7    S    
O11   V4    S    
O12   V3    S    
C16   C17   A    
O8    V2    S    
C34   H22   S    
C1    C20   S    
C31   H13   S    
C9    H3    S    
O11   C28   A    
O9    C4    A    
O7    V1    S    
C25   C26   A    
V3    O20   S    
O17   V3    S    
O19   C30   A    
O14   V3    S    
C32   H17   S    
C10   H4    S    
O13   V3    S    
O12   C27   A    
C16   H6    S    
C32   H16   S    
C24   C25   A    
C3    C11   S    
O21   C31   S    
O4    C2    A    
C34   C35   S    
C6    C29   S    
C6    O21   S    
C23   C24   A    
C15   O23   S    
O15   V3    S    
C9    C14   A    
O2    C1    A    
C22   H10   S    
C13   H5    S    
O18   V4    S    
O16   V4    S    
C36   H28   S    
C5    C6    D    
C36   H26   S    
C12   C33   S    
C22   C23   A    
O3    C4    A    
O1    V2    S    
C25   H12   S    
C36   H27   S    
C23   C27   S    
O6    V2    S    
O9    V2    S    
C32   H18   S    
O15   C29   A    
O2    V1    S    
C21   C26   A    
C15   C20   A    
C35   H20   S    
C27   O16   A    
C24   H11   S    
C18   H7    S    
O1    C2    A    
C14   C30   S    
C2    C26   S    
O22   C32   S    
O5    V1    S    
C35   H21   S    
O8    C3    A    
C10   C11   A    
C17   C28   S    
C15   C16   A    
O14   C28   A    
O7    V2    S    
O4    V1    S    
C13   C14   A    
O3    V1    S    
V1    O10   S    
O17   V4    S    
C19   C20   A    
C31   H15   S    
C18   C19   A    
C5    H1    S    
C9    C10   A    
O18   C29   A    
C33   H24   S    
C35   H19   S    
C34   H23   S    
C7    C8    D    
C31   H14   S    
V4    O20   S    
C11   C12   A    
C7    O22   S    
C8    H2    S    
