data_mof_unit_11327.cif
_audit_creation_date              2013-03-05T15:51:13-0500
_audit_creation_method            fapswitch 2.2
_symmetry_space_group_name_H-M    P1
_symmetry_Int_Tables_number       1
_space_group_crystal_system       triclinic
_cell_length_a                    23.016528
_cell_length_b                    6.956373
_cell_length_c                    20.707314
_cell_angle_alpha                 90.106728
_cell_angle_beta                  93.261767
_cell_angle_gamma                 90.158041
_cell_volume                      3310.08979982

loop_
_atom_site_label
_atom_site_type_symbol
_atom_site_description
_atom_site_fract_x
_atom_site_fract_y
_atom_site_fract_z
_atom_type_partial_charge
O1    O     O_R   0.188030 0.379840 0.189340 -0.561444
O2    O     O_R   0.811970 0.620160 0.810660 -0.561471
O3    O     O_R   0.311970 0.879840 0.310660 -0.600871
O4    O     O_R   0.688030 0.120160 0.689340 -0.600873
O5    O     O_R   0.307090 0.708420 0.185790 -0.589581
O6    O     O_R   0.692910 0.291580 0.814210 -0.589581
O7    O     O_R   0.192910 0.208420 0.314210 -0.583524
O8    O     O_R   0.807090 0.791580 0.685790 -0.583527
C1    C     C_R   0.326684 0.540845 0.170712 0.994417
C2    C     C_R   0.673315 0.459155 0.829288 0.994432
C3    C     C_R   0.173318 0.040719 0.329292 0.990351
C4    C     C_R   0.826682 0.959281 0.670708 0.990342
O9    O     O_R   0.188180 0.709480 0.181650 -0.588387
O10   O     O_R   0.811820 0.290520 0.818350 -0.588372
O11   O     O_R   0.311820 0.209480 0.318350 -0.553442
O12   O     O_R   0.688180 0.790520 0.681650 -0.553436
O13   O     O_R   0.192210 0.880960 0.306500 -0.599026
O14   O     O_R   0.807790 0.119040 0.693500 -0.599028
O15   O     O_R   0.307790 0.380960 0.193500 -0.589799
O16   O     O_R   0.692210 0.619040 0.806500 -0.589795
C5    C     C_R   0.168035 0.540152 0.165164 1.027640
C6    C     C_R   0.831965 0.459848 0.834835 1.027663
C7    C     C_R   0.332101 0.040967 0.334746 1.026161
C8    C     C_R   0.667899 0.959033 0.665254 1.026157
O17   O     O_3   0.251460 0.546730 0.290970 -0.264033
O18   O     O_3   0.748540 0.453270 0.709030 -0.264035
O19   O     O_3   0.248540 0.046730 0.209030 -0.253406
O20   O     O_3   0.751460 0.953270 0.790970 -0.253409
V1    V     V_3+5 0.249730 0.821120 0.242400 1.262453
V2    V     V_3+5 0.750270 0.178880 0.757600 1.262458
V3    V     V_3+5 0.250270 0.321120 0.257600 1.290242
V4    V     V_3+5 0.749730 0.678880 0.742400 1.290239
C9    C     C_R   0.576344 0.111671 0.620641 -0.091687
C10   C     C_R   0.423660 0.888339 0.379354 -0.091694
C11   C     C_R   0.926398 0.338729 0.883772 -0.082027
C12   C     C_R   0.073612 0.661312 0.116212 -0.082047
C13   C     C_R   0.618507 0.968356 0.615991 -0.402697
C14   C     C_R   0.381494 0.031644 0.384007 -0.402694
C15   C     C_R   0.880940 0.471675 0.884493 -0.392614
C16   C     C_R   0.119062 0.528332 0.115503 -0.392613
C17   C     C_R   0.613394 0.835606 0.564612 0.841969
C18   C     C_R   0.386605 0.164384 0.435389 0.841978
C19   C     C_R   0.882702 0.617259 0.931822 0.832653
C20   C     C_R   0.117296 0.382734 0.068178 0.832592
C21   C     C_R   0.565601 0.843516 0.518231 -0.236131
C22   C     C_R   0.434399 0.156483 0.481767 -0.236133
C23   C     C_R   0.930562 0.633386 0.977895 -0.231205
C24   C     C_R   0.069444 0.366650 0.022093 -0.231203
C25   C     C_R   0.523618 0.991684 0.523358 -0.042452
C26   C     C_R   0.476384 0.008319 0.476640 -0.042461
C27   C     C_R   0.976132 0.495933 0.976782 -0.047359
C28   C     C_R   0.023876 0.504109 0.023205 -0.047312
C29   C     C_R   0.529071 0.124541 0.575001 -0.014915
C30   C     C_R   0.470932 0.875467 0.424994 -0.014915
C31   C     C_R   0.973819 0.349144 0.929444 -0.025493
C32   C     C_R   0.026192 0.650904 0.070540 -0.025467
C33   C     C_R   0.559096 0.711240 0.465976 0.188709
C34   C     C_R   0.440906 0.288767 0.534019 0.188715
C35   C     C_R   0.933862 0.779770 0.025899 0.198533
C36   C     C_R   0.066153 0.220302 0.974078 0.198556
C37   C     C_R   0.512271 0.729185 0.420027 0.656281
C38   C     C_R   0.487733 0.270828 0.579967 0.656275
C39   C     C_R   0.981305 0.786615 0.071481 0.637532
C40   C     C_R   0.018712 0.213460 0.928494 0.637540
H1    H     H_    0.580474 0.213369 0.660384 0.199301
H2    H     H_    0.419530 0.786649 0.339608 0.199298
H3    H     H_    0.924719 0.227155 0.847082 0.196350
H4    H     H_    0.075295 0.772900 0.152897 0.196358
C41   C     C_3   0.050998 0.043010 0.532744 -0.210561
C42   C     C_3   0.949002 0.956990 0.467257 -0.210569
C43   C     C_3   0.449034 0.542029 0.967242 -0.208546
C44   C     C_3   0.550966 0.457971 0.032758 -0.208548
C45   C     C_3   0.012570 0.864764 0.542487 0.392995
C46   C     C_3   0.987430 0.135236 0.457514 0.392996
C47   C     C_3   0.487339 0.364048 0.957546 0.391586
C48   C     C_3   0.512661 0.635952 0.042454 0.391587
H5    H     H_    0.092747 0.075129 0.560178 0.206254
H6    H     H_    0.907254 0.924871 0.439823 0.206251
H7    H     H_    0.407311 0.573336 0.939794 0.207046
H8    H     H_    0.592689 0.426664 0.060206 0.207044
H9    H     H_    0.009558 0.688881 0.444717 0.215746
H10   H     H_    0.990443 0.311119 0.555284 0.215745
H11   H     H_    0.490228 0.189534 0.055361 0.215841
H12   H     H_    0.509772 0.810466 0.944639 0.215841
C49   C     C_1   0.872064 0.968827 0.624988 -0.227151
C50   C     C_1   0.127936 0.031173 0.375013 -0.227150
C51   C     C_1   0.627933 0.468498 0.875017 -0.222040
C52   C     C_1   0.372067 0.531502 0.124983 -0.222043
C53   C     C_3   0.995044 0.170064 0.531022 -0.253460
C54   C     C_3   0.004956 0.829936 0.468979 -0.253463
C55   C     C_3   0.505078 0.669689 0.968935 -0.252050
C56   C     C_3   0.494922 0.330311 0.031065 -0.252050
C57   C     C_3   0.957498 0.988588 0.541286 -0.023007
C58   C     C_3   0.042502 0.011412 0.458715 -0.023009
C59   C     C_3   0.542500 0.488456 0.958719 -0.024602
C60   C     C_3   0.457500 0.511544 0.041281 -0.024603
C61   C     C_1   0.910410 0.977390 0.587133 0.178003
C62   C     C_1   0.089590 0.022610 0.412867 0.178004
C63   C     C_1   0.589588 0.477096 0.912873 0.180824
C64   C     C_1   0.410411 0.522904 0.087127 0.180825
F1    F     F_    0.656951 0.706673 0.558625 -0.648066
F2    F     F_    0.343043 0.293295 0.441382 -0.648066
F3    F     F_    0.836102 0.735867 0.934066 -0.650035
F4    F     F_    0.163880 0.264049 0.065956 -0.650050
N1    N     N_R   0.598908 0.555401 0.458939 0.301628
O21   O     O_R   0.623919 0.532356 0.404687 -0.249762
O22   O     O_R   0.601709 0.417883 0.501444 -0.344865
N2    N     N_R   0.401098 0.444617 0.541052 0.301623
O23   O     O_R   0.376094 0.467698 0.595308 -0.249754
O24   O     O_R   0.398290 0.582106 0.498538 -0.344875
N3    N     N_R   0.889950 0.924759 0.029052 0.301105
O25   O     O_R   0.864773 0.953681 0.082891 -0.251990
O26   O     O_R   0.883082 0.050114 0.982770 -0.338627
N4    N     N_R   0.110083 0.075387 0.970901 0.301151
O27   O     O_R   0.135319 0.046769 0.917080 -0.251989
O28   O     O_R   0.116918 0.949817 0.017120 -0.338579
F5    F     F_    0.506312 0.598669 0.371104 -0.647159
F6    F     F_    0.493695 0.401356 0.628887 -0.647162
F7    F     F_    0.984104 0.930366 0.116160 -0.648313
F8    F     F_    0.015927 0.069746 0.883802 -0.648305
N5    N     N_R   0.027905 0.713175 0.588774 0.242025
O29   O     O_R   0.076045 0.618140 0.584007 -0.355309
O30   O     O_R   0.993729 0.671025 0.634618 -0.381157
N6    N     N_R   0.972095 0.286825 0.411227 0.242023
O31   O     O_R   0.923956 0.381860 0.415994 -0.355316
O32   O     O_R   0.006271 0.328975 0.365383 -0.381161
N7    N     N_R   0.471904 0.211672 0.911290 0.242744
O33   O     O_R   0.423736 0.116014 0.916124 -0.352723
O34   O     O_R   0.505999 0.169528 0.865381 -0.378909
N8    N     N_R   0.528096 0.788328 0.088710 0.242744
O35   O     O_R   0.576264 0.883986 0.083876 -0.352729
O36   O     O_R   0.494001 0.830472 0.134619 -0.378908

loop_
_geom_bond_atom_site_label_1
_geom_bond_atom_site_label_2
_geom_bond_distance
_ccdc_geom_bond_type
C34   C38   1.402485 A    
C46   N6    1.456911 S    
C25   C29   1.412065 A    
O1    C5    1.297986 A    
C54   C58   1.549689 S    
O19   V1    1.715650 S    
O13   V1    1.972004 S    
C41   H5    1.110050 S    
C46   C58   1.533555 S    
C33   N1    1.433946 S    
N3    O25   1.300969 A    
C45   C57   1.533555 S    
C44   C48   1.541344 S    
O15   V3    1.971506 S    
C10   H2    1.084146 S    
C43   H7    1.110046 S    
N4    O27   1.300994 A    
C20   F4    1.357856 S    
C47   C59   1.533561 S    
O7    C3    1.294721 A    
H11   C56   1.109617 S    
N1    O22   1.300372 A    
C21   C33   1.420226 A    
O5    C1    1.295121 A    
C26   C30   1.412068 A    
H10   C53   1.109601 S    
C4    C49   1.450582 S    
C46   C53   1.540904 S    
O9    V1    1.995003 S    
C45   C54   1.540904 S    
C14   C18   1.407134 A    
C24   C28   1.422348 A    
C1    C52   1.450748 S    
C11   C15   1.399031 A    
C44   C56   1.562764 S    
C59   C63   1.483056 S    
C42   H6    1.110050 S    
C58   C62   1.482878 S    
C3    C50   1.450585 S    
C56   C60   1.549761 S    
N2    O23   1.301001 A    
O2    V4    1.997983 S    
C18   C22   1.419784 A    
O3    V1    1.995290 S    
C44   C59   1.549502 S    
C36   N4    1.433826 S    
C1    O15   1.292854 A    
C2    O16   1.292853 A    
O2    C6    1.297978 A    
C35   N3    1.433854 S    
C41   C45   1.541318 S    
O14   V2    1.972004 S    
H12   C55   1.109615 S    
C21   C25   1.422730 A    
C9    H1    1.084145 S    
C34   N2    1.433944 S    
O11   C7    1.301457 A    
O12   C8    1.301454 A    
C22   C34   1.420225 A    
O17   V1    2.158590 S    
C42   C54   1.562756 S    
C48   N8    1.456937 S    
O10   V2    1.995005 S    
C41   C53   1.562755 S    
C18   F2    1.357780 S    
C38   F6    1.359971 S    
C24   C36   1.420547 A    
O5    V1    1.977418 S    
O1    V3    1.997983 S    
C9    C29   1.403171 A    
C2    C51   1.450748 S    
O7    V3    1.976261 S    
C37   F5    1.359968 S    
C27   C28   1.419208 A    
O8    V4    1.976262 S    
C12   C16   1.399037 A    
C42   C57   1.549471 S    
C41   C58   1.549471 S    
O18   V4    1.713156 S    
C15   C19   1.406890 A    
C43   C60   1.549502 S    
C27   C31   1.412950 A    
O3    C7    1.299433 A    
C11   C31   1.404569 A    
C53   C57   1.549691 S    
C9    C13   1.400207 A    
N8    O36   1.300262 A    
N7    O34   1.300263 A    
C42   C46   1.541317 S    
C12   C32   1.404572 A    
C39   F7    1.359958 S    
C29   C38   1.402663 A    
N4    O28   1.300201 A    
O20   V4    2.155078 S    
O8    C4    1.294722 A    
C31   C40   1.402338 A    
C8    C13   1.485223 S    
C32   C39   1.402348 A    
O9    C5    1.302490 A    
N3    O26   1.300184 A    
C33   C37   1.402483 A    
N5    O29   1.300268 A    
C52   C64   1.214831 T    
C47   C56   1.540936 S    
H9    C54   1.109600 S    
O6    V2    1.977416 S    
C10   C30   1.403173 A    
C45   N5    1.456912 S    
O19   V3    2.155078 S    
N7    O33   1.300273 A    
C57   C61   1.482873 S    
N6    O32   1.300256 A    
O16   V4    1.971506 S    
C3    O13   1.292661 A    
C10   C14   1.400206 A    
O17   V3    1.713156 S    
N2    O24   1.300363 A    
O6    C2    1.295121 A    
C23   C27   1.422357 A    
C12   H4    1.084169 S    
O11   V3    1.999866 S    
C30   C37   1.402661 A    
O12   V4    1.999870 S    
C7    C14   1.485218 S    
N1    O21   1.300998 A    
C22   C26   1.422724 A    
C35   C39   1.402806 A    
C40   F8    1.359950 S    
C36   C40   1.402786 A    
O10   C6    1.302488 A    
O20   V2    1.715651 S    
N8    O35   1.300273 A    
C44   H8    1.110047 S    
C48   C60   1.533563 S    
C43   C47   1.541345 S    
C5    C16   1.483935 S    
O4    C8    1.299436 A    
C6    C15   1.483928 S    
C60   C64   1.483056 S    
C17   F1    1.357789 S    
C47   N7    1.456938 S    
C13   C17   1.407143 A    
C50   C62   1.214726 T    
C19   F3    1.357847 S    
N5    O30   1.300258 A    
C49   C61   1.214730 T    
C11   H3    1.084176 S    
C48   C55   1.540939 S    
C23   C35   1.420572 A    
C51   C63   1.214831 T    
C28   C32   1.412938 A    
C16   C20   1.406901 A    
C43   C55   1.562765 S    
C55   C59   1.549761 S    
C25   C26   1.418668 A    
C4    O14   1.292661 A    
C17   C21   1.419790 A    
C19   C23   1.419713 A    
O4    V2    1.995289 S    
C20   C24   1.419702 A    
N6    O31   1.300270 A    
O18   V2    2.158589 S    
