data_mof_unit_53604.cif
_audit_creation_date              2012-10-26T19:39:05-0400
_audit_creation_method            fapswitch 2.2
_symmetry_space_group_name_H-M    P1
_symmetry_Int_Tables_number       1
_space_group_crystal_system       triclinic
_cell_length_a                    11.918929
_cell_length_b                    12.665073
_cell_length_c                    7.577597
_cell_angle_alpha                 89.999906
_cell_angle_beta                  109.7522
_cell_angle_gamma                 90.00001
_cell_volume                      1076.56758223

loop_
_atom_site_label
_atom_site_type_symbol
_atom_type_description
_atom_site_fract_x
_atom_site_fract_y
_atom_site_fract_z
_atom_type_partial_charge
C1    C     C_R   0.347356 0.852429 0.452105 0.545026
C2    C     C_2   0.737985 0.769135 0.573706 -0.138780
C3    C     C_2   0.737985 0.230865 0.573706 -0.138781
C4    C     C_2   0.262015 0.769135 0.426294 -0.138779
C5    C     C_2   0.762015 0.730865 0.426294 -0.138780
C6    C     C_2   0.237985 0.269135 0.573706 -0.138781
C7    C     C_2   0.237985 0.730865 0.573706 -0.138780
C8    C     C_2   0.762015 0.269135 0.426293 -0.138780
C9    C     C_2   0.335284 0.999993 0.908889 0.410847
C10   C     C_2   0.664716 0.999997 0.091111 0.410846
C11   C     C_2   0.835284 0.499999 0.908888 0.410848
C12   C     C_R   0.652644 0.147571 0.547895 0.545025
C13   C     C_2   0.164715 0.499998 0.091112 0.410848
C14   C     C_R   0.652644 0.852429 0.547895 0.545024
C15   C     C_R   0.347356 0.147571 0.452105 0.545024
C16   C     C_R   0.847356 0.352429 0.452105 0.545024
C17   C     C_R   0.152644 0.647571 0.547895 0.545025
C18   C     C_R   0.152644 0.352429 0.547895 0.545024
C19   C     C_R   0.847356 0.647571 0.452105 0.545025
C20   C     C_2   0.262015 0.230865 0.426294 -0.138781
Cu1   Cu    Cu3+1 0.517640 1.000000 0.687200 1.027764
Cu2   Cu    Cu3+1 0.482360 1.000000 0.312800 1.027764
Cu3   Cu    Cu3+1 0.017640 0.500000 0.687200 1.027764
Cu4   Cu    Cu3+1 0.982360 0.500000 0.312800 1.027764
H1    H     H_    0.718897 0.760868 0.285046 0.147079
H2    H     H_    0.691100 0.000001 0.240027 0.136618
H3    H     H_    0.808900 0.500000 0.759972 0.136618
H4    H     H_    0.191100 0.500001 0.240028 0.136619
H5    H     H_    0.281102 0.239132 0.714954 0.147074
H6    H     H_    0.281102 0.760868 0.714954 0.147081
H7    H     H_    0.718897 0.239132 0.285045 0.147076
H8    H     H_    0.218897 0.260868 0.285046 0.147077
H9    H     H_    0.781103 0.739132 0.714954 0.147078
H10   H     H_    0.781102 0.260868 0.714955 0.147077
H11   H     H_    0.218898 0.739132 0.285046 0.147078
H12   H     H_    0.308900 0.000001 0.759971 0.136618
N1    N     N_2   0.455760 1.000000 0.031460 -0.179622
N2    N     N_2   0.544240 1.000000 0.968540 -0.179623
N3    N     N_2   0.955760 0.500000 0.031460 -0.179622
N4    N     N_2   0.044240 0.500000 0.968540 -0.179622
O1    O     O_R   0.398880 0.887420 0.621600 -0.551103
O2    O     O_R   0.630920 0.112580 0.694560 -0.451202
O3    O     O_R   0.630920 0.887420 0.694560 -0.451193
O4    O     O_R   0.369080 0.112580 0.305440 -0.451207
O5    O     O_R   0.869080 0.387420 0.305440 -0.451197
O6    O     O_R   0.130920 0.612580 0.694560 -0.451200
O7    O     O_R   0.130920 0.387420 0.694560 -0.451195
O8    O     O_R   0.869080 0.612580 0.305440 -0.451198
O9    O     O_2   0.255200 0.999975 0.975033 -0.497648
O10   O     O_2   0.744801 0.999989 0.024967 -0.497648
O11   O     O_2   0.755200 0.499997 0.975032 -0.497650
O12   O     O_R   0.601120 0.112580 0.378400 -0.551103
O13   O     O_2   0.244800 0.499990 0.024969 -0.497651
O14   O     O_R   0.601120 0.887420 0.378400 -0.551103
O15   O     O_R   0.398880 0.112580 0.621600 -0.551104
O16   O     O_R   0.898880 0.387420 0.621600 -0.551103
O17   O     O_R   0.101120 0.612580 0.378400 -0.551103
O18   O     O_R   0.101120 0.387420 0.378400 -0.551103
O19   O     O_R   0.898880 0.612580 0.621600 -0.551103
O20   O     O_R   0.369080 0.887420 0.305440 -0.451188

loop_
_geom_bond_atom_site_label_1
_geom_bond_atom_site_label_2
_ccdc_geom_bond_type
C16   O5    A    
C9    H12   S    
C11   N3    S    
Cu3   Cu4   S    
C16   O16   A    
C13   H4    S    
N1    N2    D    
C5    C19   S    
C6    C20   D    
C11   H3    S    
C10   N2    S    
C1    C4    S    
C18   O7    A    
C10   H2    S    
C9    N1    S    
C4    H11   S    
C9    O9    D    
Cu3   O16   S    
Cu2   O14   S    
C7    H6    S    
Cu1   Cu2   S    
C15   O15   A    
Cu3   O19   S    
C8    H7    S    
C4    C7    D    
Cu1   O1    S    
Cu4   O5    S    
C2    H9    S    
C1    O1    A    
C12   O12   A    
C20   H8    S    
C15   O4    A    
Cu2   O12   S    
C13   O13   D    
Cu2   O20   S    
C15   C20   S    
C6    C18   S    
C5    H1    S    
C2    C5    D    
C11   O11   D    
Cu1   O2    S    
Cu4   O8    S    
C6    H5    S    
Cu3   O7    S    
C17   O6    A    
Cu4   O18   S    
C3    C8    D    
C8    C16   S    
C1    O20   A    
C2    C14   S    
N3    N4    D    
Cu3   O6    S    
C19   O8    A    
Cu4   O17   S    
Cu1   O15   S    
C12   O2    A    
C3    C12   S    
C3    H10   S    
C19   O19   A    
Cu1   O3    S    
Cu2   N1    S    
Cu4   N3    S    
C18   O18   A    
Cu2   O4    S    
Cu1   N2    S    
Cu3   N4    S    
C14   O14   A    
C17   O17   A    
C14   O3    A    
C13   N4    S    
C7    C17   S    
C10   O10   D    
