data_mof_unit_12658.cif
_audit_creation_date              2012-10-26T21:08:06-0400
_audit_creation_method            fapswitch 2.2
_symmetry_space_group_name_H-M    P1
_symmetry_Int_Tables_number       1
_space_group_crystal_system       triclinic
_cell_length_a                    15.843794
_cell_length_b                    10.862901
_cell_length_c                    9.634664
_cell_angle_alpha                 90.83
_cell_angle_beta                  90.19934
_cell_angle_gamma                 93.548841
_cell_volume                      1654.84847083

loop_
_atom_site_label
_atom_site_type_symbol
_atom_type_description
_atom_site_fract_x
_atom_site_fract_y
_atom_site_fract_z
_atom_type_partial_charge
C1    C     C_R   0.506602 0.263507 0.499722 0.539922
C2    C     C_R   0.564901 0.072924 0.873753 -0.139761
C3    C     C_R   0.523551 0.957381 0.887169 -0.133739
C4    C     C_R   0.340065 0.500159 0.499890 0.540358
C5    C     C_R   0.493989 0.892122 0.769248 -0.104083
C6    C     C_R   0.505764 0.941906 0.634686 0.023017
C7    C     C_R   0.530477 0.068383 0.626350 0.028616
C8    C     C_R   0.515086 0.130176 0.500959 -0.010171
C9    C     C_R   0.496268 0.062002 0.379356 -0.168460
C10   C     C_R   0.489626 0.934614 0.382029 -0.164784
C11   C     C_R   0.493902 0.872572 0.508213 -0.009628
C12   C     C_3   0.083071 0.501052 0.500837 0.030260
C13   C     C_R   0.614141 0.663854 0.146568 -0.081913
C14   C     C_R   0.669842 0.744022 0.075853 -0.173392
C15   C     C_R   0.669578 0.744045 0.932739 -0.162302
C16   C     C_R   0.496320 0.737603 0.502050 0.532513
C17   C     C_R   0.613221 0.664467 0.859391 -0.082852
C18   C     C_R   0.555262 0.581366 0.926970 0.101921
C19   C     C_R   0.556055 0.580312 0.076164 0.117075
C20   C     C_R   0.443875 0.425810 0.071362 0.247493
C21   C     C_R   0.448141 0.419929 0.923463 0.266487
C22   C     C_R   0.659985 0.500526 0.500247 0.532513
C23   C     C_3   0.973413 0.504737 0.628610 0.181101
C24   C     C_3   0.967680 0.397553 0.436495 -0.119505
C25   C     C_3   0.028072 0.497176 0.368755 -0.114850
C26   C     C_1   0.250337 0.500777 0.500114 -0.064272
C27   C     C_1   0.749755 0.500726 0.500659 -0.034443
C28   C     C_3   0.024397 0.400806 0.568524 -0.072277
C29   C     C_3   0.292798 0.391679 0.125709 -0.295332
C30   C     C_3   0.321849 0.318501 0.808531 -0.247019
C31   C     C_3   0.004232 0.506191 0.876866 -0.317360
C32   C     C_3   0.917144 0.500906 0.499903 0.057417
C33   C     C_3   0.032998 0.605057 0.564383 -0.093943
C34   C     C_3   0.976210 0.600550 0.432380 -0.129217
C35   C     C_1   0.174746 0.501000 0.500444 -0.079447
C36   C     C_1   0.825379 0.500829 0.500538 -0.055075
C37   C     C_R   0.568256 0.128700 0.744533 -0.090908
Cu1   Cu    Cu3+1 0.499990 0.499990 0.640660 0.926074
Cu2   Cu    Cu3+1 0.500010 0.500010 0.359340 0.920150
H1    H     H_    0.052327 0.494026 0.260857 0.100251
H2    H     H_    0.955221 0.681725 0.375976 0.103028
H3    H     H_    0.060568 0.689206 0.618390 0.098333
H4    H     H_    0.045115 0.319672 0.625310 0.095560
H5    H     H_    0.486284 0.107034 0.281562 0.132557
H6    H     H_    0.601254 0.218568 0.738347 0.149684
H7    H     H_    0.591566 0.121365 0.964237 0.115203
H8    H     H_    0.391329 0.307773 0.226953 0.287560
H9    H     H_    0.267047 0.412749 0.229216 0.159015
H10   H     H_    0.250976 0.315480 0.081527 0.122967
H11   H     H_    0.289564 0.475011 0.060756 0.134185
H12   H     H_    0.515819 0.916994 0.988792 0.118290
H13   H     H_    0.422484 0.232060 0.895200 0.241876
H14   H     H_    0.281666 0.249259 0.865753 0.100065
H15   H     H_    0.316686 0.291880 0.697118 0.160067
H16   H     H_    0.297286 0.411249 0.824199 0.146724
H17   H     H_    0.899953 0.578240 0.783671 0.249326
H18   H     H_    0.972857 0.503813 0.979763 0.141501
H19   H     H_    0.048298 0.589697 0.872677 0.130057
H20   H     H_    0.040417 0.422287 0.865538 0.146110
H21   H     H_    0.459016 0.805733 0.787576 0.151277
H22   H     H_    0.479190 0.884707 0.284680 0.137233
H23   H     H_    0.619186 0.671926 0.256271 0.184024
H24   H     H_    0.713433 0.806878 0.132841 0.115145
H25   H     H_    0.712906 0.806936 0.877829 0.120836
H26   H     H_    0.617450 0.672402 0.749887 0.186784
H27   H     H_    0.939743 0.313143 0.383469 0.105089
N1    N     N_R   0.500800 0.501210 0.147910 -0.251789
N2    N     N_R   0.500830 0.501290 0.852040 -0.251155
N3    N     N_2   0.378421 0.352193 0.137263 -0.510477
N4    N     N_2   0.409193 0.315165 0.852316 -0.447138
N5    N     N_2   0.940970 0.509225 0.768702 -0.511206
O1    O     O_R   0.499990 0.319640 0.618810 -0.474506
O2    O     O_R   0.500000 0.319660 0.381240 -0.522345
O3    O     O_R   0.379070 0.499980 0.618770 -0.488308
O4    O     O_R   0.379080 0.500000 0.381190 -0.487760
O5    O     O_R   0.500000 0.680340 0.618760 -0.536706
O6    O     O_R   0.500010 0.680360 0.381190 -0.521758
O7    O     O_R   0.620920 0.500000 0.618810 -0.518266
O8    O     O_R   0.620930 0.500020 0.381230 -0.511520

loop_
_geom_bond_atom_site_label_1
_geom_bond_atom_site_label_2
_ccdc_geom_bond_type
C1    C8    S    
C20   N1    A    
C7    C8    A    
C29   H10   S    
C2    H7    S    
C30   H15   S    
C12   C28   S    
C33   H3    S    
C32   C36   S    
C31   H19   S    
C22   O8    A    
C18   C19   A    
C25   H1    S    
Cu1   Cu2   S    
C18   N2    A    
C16   O6    A    
C31   H20   S    
H8    N3    S    
C4    O4    A    
C13   H23   S    
C8    C9    A    
C23   C33   S    
C15   H25   S    
C19   N1    A    
Cu2   O4    S    
C9    C10   A    
C4    O3    A    
C24   H27   S    
C25   C34   S    
C31   N5    S    
C13   C14   A    
C34   H2    S    
C30   N4    S    
C17   C18   A    
C29   N3    S    
C29   H11   S    
C30   H14   S    
Cu1   O1    S    
C1    O1    A    
C13   C19   A    
C29   H9    S    
C23   N5    S    
C24   C25   S    
C22   O7    A    
C6    C11   A    
C3    H12   S    
Cu1   O5    S    
Cu1   O7    S    
C32   C34   S    
C24   C32   S    
C11   C16   S    
H17   N5    S    
C33   C34   S    
C7    C37   A    
C23   C28   S    
C12   C35   S    
Cu1   N2    S    
C22   C27   S    
C21   N2    A    
C20   N3    S    
C10   H22   S    
C37   H6    S    
Cu2   O6    S    
Cu1   O3    S    
C15   C17   A    
C9    H5    S    
C5    H21   S    
C16   O5    A    
Cu2   N1    S    
C24   C28   S    
C3    C5    A    
C4    C26   S    
C6    C7    A    
C27   C36   T    
C30   H16   S    
C12   C25   S    
C28   H4    S    
C17   H26   S    
C21   N4    S    
C1    O2    A    
C23   C32   S    
C31   H18   S    
C2    C3    A    
C2    C37   A    
C5    C6    A    
C14   H24   S    
Cu2   O2    S    
H13   N4    S    
C10   C11   A    
C26   C35   T    
C20   C21   A    
C14   C15   A    
C12   C33   S    
Cu2   O8    S    
