data_mof_unit_59012.cif
_audit_creation_date              2012-12-10T16:38:31-0500
_audit_creation_method            fapswitch 2.2
_symmetry_space_group_name_H-M    P1
_symmetry_Int_Tables_number       1
_space_group_crystal_system       triclinic
_cell_length_a                    10.843631
_cell_length_b                    10.84997
_cell_length_c                    17.841951
_cell_angle_alpha                 98.154216
_cell_angle_beta                  73.128885
_cell_angle_gamma                 98.789225
_cell_volume                      1974.64654829

loop_
_atom_site_label
_atom_site_type_symbol
_atom_type_description
_atom_site_fract_x
_atom_site_fract_y
_atom_site_fract_z
_atom_type_partial_charge
C1    C     C_R   0.157494 0.479578 0.517347 0.860100
C2    C     C_R   0.528598 0.342184 0.928002 0.200431
C3    C     C_R   0.589160 0.282877 0.969787 -0.297988
C4    C     C_R   0.843241 0.520567 0.482293 0.883836
C5    C     C_R   0.588703 0.326994 0.047043 0.099109
C6    C     C_R   0.523464 0.431853 0.085519 0.066208
C7    C     C_R   0.648269 0.263141 0.087322 -0.195993
C8    C     C_R   0.642151 0.300970 0.165833 -0.242485
C9    C     C_R   0.534771 0.480391 0.162049 0.136341
C10   C     C_2   0.981261 0.528561 0.475052 -0.357042
C11   C     C_2   0.021341 0.471896 0.523927 -0.305411
C12   C     C_R   0.302715 0.657007 0.840210 -0.275517
C13   C     C_2   0.541713 0.965817 0.472322 -0.178097
C14   C     C_2   0.457702 0.036562 0.524035 -0.355480
C15   C     C_R   0.465963 0.168712 0.518951 0.869075
C16   C     C_R   0.530112 0.832812 0.481737 0.836555
C17   C     C_R   0.564562 0.435368 0.288044 0.788745
C18   C     C_R   0.436344 0.563322 0.712366 0.813586
C19   C     C_R   0.400729 0.583276 0.798973 -0.072758
C20   C     C_R   0.586057 0.408923 0.203246 -0.043795
C21   C     C_R   0.266083 0.673948 0.922531 0.221778
C22   C     C_3   0.231711 0.803932 0.138429 -0.734768
C23   C     C_R   0.460595 0.523610 0.840579 -0.207365
C24   C     C_R   0.644001 0.017949 0.405102 0.143466
C25   C     C_R   0.639256 0.977455 0.327576 -0.096032
C26   C     C_R   0.734380 0.026623 0.264124 -0.163413
C27   C     C_R   0.834852 0.116303 0.277660 -0.130635
C28   C     C_R   0.840813 0.156400 0.354652 -0.149128
C29   C     C_R   0.746199 0.107016 0.418230 -0.141176
C30   C     C_3   0.597437 0.704152 0.162238 -0.772472
C31   C     C_3   0.214777 0.886948 0.955789 -0.777321
C32   C     C_3   0.389455 0.211170 0.857318 -0.778155
C33   C     C_R   0.416020 0.525649 0.922984 -0.001241
C34   C     C_R   0.322425 0.608038 0.965357 0.056567
C35   C     C_R   0.467084 0.451409 0.964145 0.028730
C36   C     C_R   0.449751 0.483636 0.046006 -0.003395
C37   C     C_R   0.350459 0.557285 0.087262 -0.240991
C38   C     C_R   0.287187 0.619247 0.048648 0.179023
H1    H     H_    0.695021 0.180656 0.058994 0.140383
H2    H     H_    0.111188 0.638319 0.130088 0.220692
H3    H     H_    0.150573 0.861897 0.163994 0.240090
H4    H     H_    0.312464 0.860151 0.099077 0.245458
H5    H     H_    0.265338 0.779685 0.187121 0.224514
H6    H     H_    0.561321 0.908670 0.316519 0.116874
H7    H     H_    0.729947 0.995631 0.204468 0.128886
H8    H     H_    0.908120 0.154603 0.228490 0.129620
H9    H     H_    0.918880 0.225553 0.365088 0.140350
H10   H     H_    0.752768 0.137856 0.477525 0.148098
H11   H     H_    0.469568 0.616453 0.255754 0.213009
H12   H     H_    0.050522 0.580811 0.429894 0.146418
H13   H     H_    0.558123 0.794921 0.185068 0.224483
H14   H     H_    0.618831 0.694315 0.097035 0.250519
H15   H     H_    0.688505 0.704816 0.179084 0.249707
H16   H     H_    0.084717 0.729426 0.945276 0.218960
H17   H     H_    0.139513 0.943345 0.995198 0.239896
H18   H     H_    0.232909 0.909909 0.894475 0.222800
H19   H     H_    0.305512 0.912734 0.974303 0.246399
H20   H     H_    0.590375 0.228818 0.823611 0.223995
H21   H     H_    0.386086 0.171187 0.797007 0.238183
H22   H     H_    0.311761 0.273557 0.881201 0.251588
H23   H     H_    0.954061 0.419293 0.569534 0.159433
H24   H     H_    0.371288 0.133318 0.894880 0.236493
H25   H     H_    0.384026 0.998038 0.573296 0.154631
H26   H     H_    0.681236 0.245897 0.197675 0.151310
H27   H     H_    0.633978 0.198990 0.942117 0.143833
H28   H     H_    0.255170 0.703844 0.808537 0.173894
H29   H     H_    0.544319 0.477615 0.807664 0.193306
H30   H     H_    0.315170 0.562706 0.150640 0.177596
N1    N     N_2   0.187234 0.691408 0.094836 -0.276989
N2    N     N_2   0.502802 0.603057 0.195252 -0.326424
N3    N     N_2   0.170062 0.754964 0.961104 -0.274074
N4    N     N_2   0.515610 0.280531 0.854165 -0.313404
O1    O     O_3   0.500000 0.500000 0.500000 -0.485050
O2    O     O_R   0.470800 0.371790 0.332500 -0.636167
O3    O     O_R   0.380610 0.619380 0.674980 -0.650419
O4    O     O_R   0.632640 0.524780 0.317540 -0.639624
O5    O     O_R   0.515950 0.484050 0.674980 -0.643274
O6    O     O_R   0.535460 0.243030 0.556410 -0.646347
O7    O     O_R   0.437420 0.784080 0.535340 -0.644186
O8    O     O_R   0.223560 0.397520 0.472140 -0.639582
O9    O     O_R   0.803560 0.575360 0.436110 -0.643477
O10   O     O_R   0.209690 0.568800 0.556400 -0.636246
O11   O     O_R   0.763190 0.458310 0.535350 -0.642607
O12   O     O_R   0.414000 0.207090 0.472140 -0.630164
O13   O     O_R   0.613120 0.765800 0.436110 -0.639816
Zn1   Zn    Zn3+2 0.577310 0.422690 0.565550 0.957690
Zn2   Zn    Zn3+2 0.403760 0.371330 0.445150 0.970176
Zn3   Zn    Zn3+2 0.634990 0.589920 0.423760 0.968876
Zn4   Zn    Zn3+2 0.383940 0.616050 0.565540 0.956801

loop_
_geom_bond_atom_site_label_1
_geom_bond_atom_site_label_2
_ccdc_geom_bond_type
C2    C35   A    
C30   H13   S    
C28   H9    S    
C18   O3    A    
C35   C36   A    
C1    C11   S    
O12   Zn2   S    
C6    C9    A    
C7    C8    A    
C32   N4    S    
C26   C27   A    
C8    C20   A    
O10   Zn4   S    
C21   N3    S    
C28   C29   A    
O8    Zn2   S    
C5    C6    A    
C22   H3    S    
C37   H30   S    
C17   C20   S    
C18   C19   S    
C23   H29   S    
C24   C29   A    
O1    Zn2   S    
C26   H7    S    
H16   N3    S    
C23   C33   A    
C17   O4    A    
C31   H18   S    
O4    Zn3   S    
C22   N1    S    
O6    Zn1   S    
C31   N3    S    
C38   N1    S    
C13   C14   D    
C3    H27   S    
C2    N4    S    
C25   H6    S    
C30   N2    S    
C30   H15   S    
H2    N1    S    
C4    O9    A    
C29   H10   S    
C9    N2    S    
C5    C7    A    
C21   C34   A    
C3    C5    A    
C1    O10   A    
C12   H28   S    
C12   C21   A    
C13   C24   S    
C19   C23   A    
O1    Zn3   S    
C37   C38   A    
C9    C20   A    
C22   H5    S    
C33   C34   A    
C24   C25   A    
C8    H26   S    
C27   H8    S    
O5    Zn1   S    
H11   N2    S    
C16   O13   A    
O2    Zn2   S    
C32   H22   S    
C4    C10   S    
C10   H12   S    
O13   Zn3   S    
C30   H14   S    
C36   C37   A    
C17   O2    A    
C34   C38   A    
C11   H23   S    
C15   O12   A    
C16   O7    A    
C31   H19   S    
C2    C3    A    
C25   C26   A    
C32   H24   S    
H20   N4    S    
C22   H4    S    
C4    O11   A    
C18   O5    A    
C14   H25   S    
C12   C19   A    
C33   C35   A    
C6    C36   A    
O1    Zn1   S    
O7    Zn4   S    
O9    Zn3   S    
C10   C11   D    
O3    Zn4   S    
O1    Zn4   S    
C15   O6    A    
O11   Zn1   S    
C13   C16   S    
C27   C28   A    
C1    O8    A    
C7    H1    S    
C14   C15   S    
C32   H21   S    
C31   H17   S    
