data_mof_unit_24321.cif
_audit_creation_date              2012-12-10T17:44:20-0500
_audit_creation_method            fapswitch 2.2
_symmetry_space_group_name_H-M    P1
_symmetry_Int_Tables_number       1
_space_group_crystal_system       triclinic
_cell_length_a                    13.751128
_cell_length_b                    15.034423
_cell_length_c                    17.198427
_cell_angle_alpha                 88.741346
_cell_angle_beta                  86.342257
_cell_angle_gamma                 88.893405
_cell_volume                      3546.93671349

loop_
_atom_site_label
_atom_site_type_symbol
_atom_type_description
_atom_site_fract_x
_atom_site_fract_y
_atom_site_fract_z
_atom_type_partial_charge
C1    C     C_R   0.499373 0.671324 0.501165 0.787448
C2    C     C_R   0.500673 0.328679 0.500932 0.808561
C3    C     C_R   0.421078 0.186661 0.537060 -0.249853
C4    C     C_R   0.580415 0.813578 0.470150 -0.244778
C5    C     C_R   0.501804 0.231980 0.503195 -0.061807
C6    C     C_R   0.499438 0.768036 0.503214 -0.077444
C7    C     C_R   0.582981 0.184935 0.471114 -0.244042
C8    C     C_R   0.420668 0.814797 0.539513 -0.280753
C9    C     C_R   0.583205 0.092268 0.471245 0.110743
C10   C     C_R   0.420897 0.907514 0.540590 0.117964
C11   C     C_R   0.502137 0.046547 0.505713 0.058410
C12   C     C_R   0.501729 0.953340 0.505850 0.060330
C13   C     C_R   0.421101 0.093987 0.539339 0.110486
C14   C     C_R   0.582036 0.906043 0.470936 0.110550
C15   C     C_R   0.662559 0.044633 0.436779 -0.209637
C16   C     C_R   0.341620 0.955208 0.575292 -0.218234
C17   C     C_R   0.662107 0.951955 0.436717 -0.217575
C18   C     C_R   0.341444 0.048004 0.574247 -0.214408
C19   C     C_R   0.208559 0.552032 0.445980 0.609225
C20   C     C_R   0.792642 0.449761 0.554671 0.603986
C21   C     C_R   0.204232 0.442489 0.548174 -0.057489
C22   C     C_R   0.796893 0.543329 0.441379 -0.068710
C23   C     C_R   0.487040 0.501179 0.649963 0.834436
C24   C     C_R   0.512490 0.502091 0.349819 0.841113
C25   C     C_R   0.102023 0.437023 0.545681 -0.033386
C26   C     C_R   0.900216 0.539907 0.436671 -0.024274
C27   C     C_R   0.052923 0.489032 0.490861 -0.025595
C28   C     C_R   0.949589 0.488563 0.491294 -0.023752
C29   C     C_R   0.107046 0.541409 0.435832 -0.145765
C30   C     C_R   0.895642 0.436362 0.546292 -0.165099
C31   C     C_R   0.048475 0.377482 0.594363 -0.309594
C32   C     C_R   0.954716 0.582570 0.375758 -0.329330
C33   C     C_R   0.946355 0.372237 0.591132 0.466144
C34   C     C_R   0.058827 0.581061 0.372327 0.462163
C35   C     C_R   0.477033 0.510481 0.734216 -0.131978
C36   C     C_R   0.518251 0.506933 0.264646 -0.115715
C37   C     C_R   0.534867 0.572458 0.768353 -0.380120
C38   C     C_R   0.443946 0.468155 0.225778 -0.336409
C39   C     C_R   0.521378 0.589839 0.847428 0.497836
C40   C     C_R   0.442446 0.474227 0.144452 0.486654
C41   C     C_R   0.450765 0.542286 0.893397 0.001301
C42   C     C_R   0.519852 0.517238 0.102026 0.030380
C43   C     C_R   0.390045 0.483161 0.859081 -0.283651
C44   C     C_R   0.596130 0.552985 0.140494 -0.309150
C45   C     C_R   0.403117 0.465861 0.779621 0.269937
C46   C     C_R   0.595153 0.550118 0.221684 0.266679
C47   C     C_2   0.445308 0.546252 0.978209 -0.157670
C48   C     C_2   0.524149 0.525449 0.016890 -0.110137
Cu1   Cu    Cu3+1 0.402580 0.500010 0.500000 0.968696
Cu2   Cu    Cu3+1 0.597420 0.499990 0.500000 0.965585
H1    H     H_    0.589131 0.609295 0.733162 0.160536
H2    H     H_    0.387653 0.431930 0.259080 0.172156
H3    H     H_    0.242514 0.400625 0.588650 0.166270
H4    H     H_    0.758844 0.581339 0.398406 0.180391
H5    H     H_    0.085922 0.334437 0.634521 0.137959
H6    H     H_    0.914307 0.614472 0.330745 0.144152
H7    H     H_    0.594429 0.515526 0.985245 0.164670
H8    H     H_    0.374636 0.556959 0.008687 0.155695
H9    H     H_    0.335666 0.447050 0.894916 0.161169
H10   H     H_    0.655032 0.586223 0.107273 0.157686
H11   H     H_    0.358660 0.223579 0.562165 0.144235
H12   H     H_    0.641773 0.777016 0.442984 0.147061
H13   H     H_    0.644909 0.220498 0.444572 0.148374
H14   H     H_    0.359693 0.779055 0.567208 0.140012
H15   H     H_    0.724315 0.079142 0.409123 0.144725
H16   H     H_    0.279456 0.920785 0.602555 0.142257
H17   H     H_    0.724000 0.916220 0.409511 0.140403
H18   H     H_    0.279052 0.083806 0.600594 0.137708
N1    N     N_R   0.256180 0.500070 0.500030 -0.238119
N2    N     N_R   0.743820 0.499930 0.499970 -0.236957
O1    O     O_R   0.417720 0.629750 0.499980 -0.590040
O2    O     O_R   0.582280 0.370250 0.500020 -0.561790
O3    O     O_R   0.582260 0.629730 0.499990 -0.588387
O4    O     O_R   0.417740 0.370270 0.500010 -0.590918
O5    O     O_R   0.408190 0.500030 0.613590 -0.560465
O6    O     O_R   0.591810 0.499970 0.386410 -0.564352
O7    O     O_R   0.572730 0.500000 0.613600 -0.582148
O8    O     O_R   0.427270 0.500000 0.386400 -0.552081
O9    O     O_3   0.259041 0.616225 0.401625 -0.559770
C49   C     C_3   0.251579 0.699304 0.439950 0.108586
H19   H     H_    0.320983 0.733970 0.425276 0.184136
H20   H     H_    0.242443 0.692210 0.504780 0.112670
C50   C     C_3   0.171144 0.761000 0.410729 -0.389783
H21   H     H_    0.179976 0.767774 0.346335 0.242454
H22   H     H_    0.098502 0.733997 0.428436 0.212764
C51   C     C_3   0.176039 0.853500 0.445036 -0.936454
H23   H     H_    0.166615 0.849217 0.509616 0.252871
H24   H     H_    0.116818 0.896615 0.423157 0.259528
H25   H     H_    0.247080 0.884400 0.427581 0.269685
O10   O     O_3   0.742615 0.413336 0.619791 -0.559522
C52   C     C_3   0.741856 0.473705 0.682639 0.109065
H26   H     H_    0.676947 0.457576 0.721454 0.187757
H27   H     H_    0.734165 0.544627 0.662954 0.120850
C53   C     C_3   0.829256 0.463513 0.733482 -0.393754
H28   H     H_    0.838642 0.392844 0.751990 0.269433
H29   H     H_    0.896393 0.486774 0.700755 0.213495
C54   C     C_3   0.813933 0.519415 0.806532 -0.904160
H30   H     H_    0.803963 0.590800 0.790306 0.266229
H31   H     H_    0.878649 0.512200 0.841760 0.255053
H32   H     H_    0.748805 0.496879 0.842688 0.268154
O11   O     O_3   0.894858 0.307439 0.634154 -0.598027
C55   C     C_3   0.922828 0.221112 0.608695 0.073760
H33   H     H_    0.890749 0.172655 0.652300 0.167714
H34   H     H_    0.003028 0.209385 0.607240 0.118662
C56   C     C_3   0.883672 0.201550 0.529256 -0.348157
H35   H     H_    0.803136 0.210866 0.532517 0.236935
H36   H     H_    0.915607 0.248284 0.484073 0.207960
C57   C     C_3   0.909853 0.106604 0.504895 -0.929407
H37   H     H_    0.989871 0.094755 0.504723 0.255888
H38   H     H_    0.887027 0.096069 0.445142 0.250253
H39   H     H_    0.872201 0.058017 0.545448 0.262186
O12   O     O_3   0.117388 0.609869 0.307268 -0.592751
C58   C     C_3   0.070051 0.664302 0.252530 0.051689
H40   H     H_    0.126180 0.707474 0.222731 0.155511
H41   H     H_    0.015952 0.711612 0.280416 0.121902
C59   C     C_3   0.028054 0.607836 0.189827 -0.362243
H42   H     H_    0.089064 0.577799 0.153212 0.212548
H43   H     H_    0.984304 0.552658 0.216779 0.224303
C60   C     C_3   0.963943 0.664049 0.137951 -0.935909
H44   H     H_    0.900697 0.692502 0.173095 0.253406
H45   H     H_    0.936196 0.621787 0.092377 0.257244
H46   H     H_    0.006551 0.718920 0.109081 0.257464
N3    N     N_2   0.670013 0.593059 0.259330 -0.423180
H47   H     H_    0.737102 0.590141 0.228881 0.245550
C61   C     C_3   0.644401 0.682533 0.283435 -0.704969
H48   H     H_    0.631093 0.725793 0.231810 0.225747
H49   H     H_    0.705219 0.710444 0.314069 0.205015
H50   H     H_    0.578161 0.682442 0.323934 0.232422
N4    N     N_2   0.342400 0.403247 0.746104 -0.424747
H51   H     H_    0.274614 0.397110 0.774880 0.242107
C62   C     C_3   0.388628 0.317632 0.730595 -0.685258
H52   H     H_    0.337066 0.274364 0.702615 0.209595
H53   H     H_    0.454612 0.324997 0.690451 0.229670
H54   H     H_    0.409192 0.284963 0.785930 0.228196
O13   O     O_3   0.373829 0.429278 0.104884 -0.615056
C63   C     C_3   0.276996 0.447827 0.134397 0.017517
H55   H     H_    0.234519 0.470701 0.084650 0.146605
H56   H     H_    0.270127 0.502449 0.177484 0.158945
C64   C     C_3   0.231157 0.362570 0.169086 -0.316412
H57   H     H_    0.228499 0.312645 0.122581 0.223436
H58   H     H_    0.276330 0.334000 0.215030 0.216477
C65   C     C_3   0.128130 0.380099 0.204398 -0.922689
H59   H     H_    0.129266 0.428702 0.252044 0.283027
H60   H     H_    0.097250 0.317039 0.228959 0.255655
H61   H     H_    0.080585 0.406264 0.159007 0.248966
O14   O     O_3   0.581176 0.650044 0.879795 -0.624972
C66   C     C_3   0.531281 0.732820 0.888765 0.059636
H62   H     H_    0.564125 0.767924 0.936573 0.169363
H63   H     H_    0.452344 0.725839 0.906932 0.124759
C67   C     C_3   0.543946 0.790109 0.813959 -0.363446
H64   H     H_    0.622805 0.795538 0.796242 0.228901
H65   H     H_    0.507320 0.758439 0.766223 0.212748
C68   C     C_3   0.500038 0.883212 0.825544 -0.906951
H66   H     H_    0.420878 0.879297 0.842436 0.252617
H67   H     H_    0.509646 0.922538 0.770249 0.263480
H68   H     H_    0.536978 0.917822 0.871531 0.254556

loop_
_geom_bond_atom_site_label_1
_geom_bond_atom_site_label_2
_ccdc_geom_bond_type
C25   C31   A    
C38   C40   A    
C26   C32   A    
O11   C55   S    
C27   C29   A    
C34   O12   S    
C57   H37   S    
C66   H62   S    
C65   H61   S    
C9    C15   A    
C62   H54   S    
C54   H30   S    
C48   H7    S    
C39   C41   A    
C20   C30   A    
Cu1   O8    S    
C45   N4    S    
C56   H36   S    
C1    O1    A    
C13   C18   A    
C33   O11   S    
C66   H63   S    
N4    H51   S    
C49   C50   S    
C52   C53   S    
C37   H1    S    
C64   C65   S    
C51   H24   S    
N3    C61   S    
C38   H2    S    
C3    H11   S    
C18   H18   S    
C15   H15   S    
C4    H12   S    
C59   H42   S    
C55   C56   S    
C15   C17   A    
Cu2   O2    S    
C58   H40   S    
C50   H21   S    
C57   H38   S    
C67   C68   S    
C61   H50   S    
Cu1   O5    S    
C36   C46   A    
C68   H67   S    
O13   C63   S    
C3    C13   A    
C43   H9    S    
C58   C59   S    
C64   H58   S    
C40   C42   A    
Cu1   O4    S    
Cu1   N1    S    
C41   C43   A    
C14   C17   A    
C20   N2    A    
C53   H28   S    
C42   C44   A    
C63   C64   S    
C2    O2    A    
O12   C58   S    
C54   H31   S    
C44   C46   A    
C60   H45   S    
C40   O13   S    
C17   H17   S    
C1    C6    S    
N3    H47   S    
C66   C67   S    
C63   H56   S    
Cu2   O3    S    
C52   H26   S    
C5    C7    A    
C51   H23   S    
C24   O6    A    
C6    C8    A    
C53   C54   S    
C3    C5    A    
C20   O10   S    
C29   C34   A    
C21   N1    A    
C32   C34   A    
C53   H29   S    
Cu2   O6    S    
C52   H27   S    
C43   C45   A    
C47   C48   D    
C64   H57   S    
C31   C33   A    
C41   C47   S    
C16   C18   A    
C42   C48   S    
C56   C57   S    
C23   O7    A    
C68   H68   S    
C55   H34   S    
C9    C11   A    
C7    H13   S    
C10   C12   A    
C8    H14   S    
C31   H5    S    
C4    C6    A    
C50   H22   S    
C12   C14   A    
C23   C35   S    
C22   H4    S    
C22   C26   A    
C61   H48   S    
C65   H60   S    
C46   N3    S    
C19   N1    A    
C2    C5    S    
C16   H16   S    
C62   H52   S    
C19   C29   A    
Cu2   O7    S    
C54   H32   S    
C22   N2    A    
O14   C66   S    
C60   H46   S    
C24   O8    A    
C7    C9    A    
C21   C25   A    
C30   C33   A    
C35   C37   A    
C67   H64   S    
C23   O5    A    
C49   H19   S    
C62   H53   S    
C51   H25   S    
C2    O4    A    
C60   H44   S    
C57   H39   S    
C25   C27   A    
C56   H35   S    
C26   C28   A    
C24   C36   S    
C59   C60   S    
C1    O3    A    
C28   C30   A    
Cu2   N2    S    
C37   C39   A    
C10   C16   A    
C47   H8    S    
C21   H3    S    
C11   C13   A    
O10   C52   S    
C44   H10   S    
C39   O14   S    
C36   C38   A    
C49   H20   S    
C59   H43   S    
C67   H65   S    
C4    C14   A    
C55   H33   S    
O9    C49   S    
C50   C51   S    
C8    C10   A    
Cu1   Cu2   S    
Cu1   O1    S    
C27   C28   A    
C61   H49   S    
C65   H59   S    
C63   H55   S    
C58   H41   S    
C68   H66   S    
C32   H6    S    
C19   O9    S    
C11   C12   A    
N4    C62   S    
C35   C45   A    
