data_mof_unit_12396.cif
_audit_creation_date              2012-12-10T17:49:34-0500
_audit_creation_method            fapswitch 2.2
_symmetry_space_group_name_H-M    P1
_symmetry_Int_Tables_number       1
_space_group_crystal_system       triclinic
_cell_length_a                    10.48054
_cell_length_b                    10.62164
_cell_length_c                    9.987632
_cell_angle_alpha                 89.155498
_cell_angle_beta                  91.952962
_cell_angle_gamma                 91.774258
_cell_volume                      1110.54566329

loop_
_atom_site_label
_atom_site_type_symbol
_atom_type_description
_atom_site_fract_x
_atom_site_fract_y
_atom_site_fract_z
_atom_type_partial_charge
C1    C     C_R   0.501511 0.261031 0.501089 0.885284
C2    C     C_3   0.957492 0.613306 0.452469 -0.180629
C3    C     C_3   0.034016 0.520093 0.372622 -0.120447
C4    C     C_3   0.122384 0.504337 0.496001 0.035627
C5    C     C_R   0.738184 0.135309 0.555974 -0.184776
C6    C     C_R   0.850913 0.071316 0.581087 -0.100207
C7    C     C_R   0.849584 0.940357 0.579456 -0.107217
C8    C     C_R   0.735529 0.873022 0.552476 -0.196209
C9    C     C_R   0.620167 0.936459 0.526656 0.103271
C10   C     C_R   0.621761 0.068191 0.528850 0.098585
C11   C     C_R   0.506026 0.128799 0.503795 -0.140972
C12   C     C_R   0.257690 0.501827 0.498198 0.856586
C13   C     C_R   0.390968 0.063705 0.479747 -0.184963
C14   C     C_R   0.387533 0.934117 0.474683 -0.034895
C15   C     C_R   0.502832 0.871775 0.498181 -0.177209
C16   C     C_R   0.369759 0.300217 0.131712 0.052267
C17   C     C_R   0.351026 0.186910 0.062662 -0.166067
C18   C     C_R   0.344730 0.191316 0.923870 -0.257431
C19   C     C_R   0.375245 0.303580 0.857752 -0.145093
C20   C     C_R   0.439322 0.402624 0.926350 0.165531
C21   C     C_R   0.438590 0.401762 0.070048 0.031358
C22   C     C_R   0.558967 0.593162 0.072039 -0.099887
C23   C     C_R   0.499641 0.738967 0.499176 0.836168
C24   C     C_R   0.558885 0.593133 0.929453 -0.110933
C25   C     C_R   0.742339 0.500608 0.501911 0.833048
C26   C     C_3   0.042400 0.392826 0.548654 -0.154574
C27   C     C_3   0.951653 0.408211 0.425013 -0.126231
C28   C     C_3   0.877625 0.501619 0.504725 -0.003463
C29   C     C_3   0.965732 0.486255 0.628466 -0.165383
C30   C     C_3   0.048520 0.597919 0.575925 -0.175275
H1    H     H_    0.907939 0.330437 0.364246 0.158043
H2    H     H_    0.937076 0.890766 0.599293 0.160640
H3    H     H_    0.738580 0.771417 0.552288 0.130661
H4    H     H_    0.607566 0.669414 0.125592 0.149553
H5    H     H_    0.309234 0.104636 0.111917 0.192711
H6    H     H_    0.304493 0.111864 0.868411 0.168827
H7    H     H_    0.343077 0.312276 0.755549 0.201682
H8    H     H_    0.607510 0.669408 0.877040 0.149646
H9    H     H_    0.083406 0.303755 0.587289 0.133765
H10   H     H_    0.933580 0.472247 0.732543 0.152009
H11   H     H_    0.092585 0.675594 0.636565 0.141943
H12   H     H_    0.919045 0.703097 0.412700 0.156500
H13   H     H_    0.061970 0.538416 0.268026 0.130981
H14   H     H_    0.303674 0.114861 0.465963 0.222668
H15   H     H_    0.742805 0.237011 0.558644 0.128899
H16   H     H_    0.939429 0.123246 0.602349 0.141827
N1    N     N_R   0.498800 0.498800 0.142780 -0.122378
N2    N     N_R   0.498760 0.498720 0.857170 -0.115083
O1    O     O_R   0.500000 0.316780 0.614690 -0.638060
O2    O     O_R   0.499990 0.316750 0.385360 -0.598588
O3    O     O_R   0.313960 0.499980 0.614650 -0.641373
O4    O     O_R   0.313940 0.499960 0.385310 -0.641272
O5    O     O_R   0.500010 0.683250 0.614640 -0.616158
O6    O     O_R   0.500000 0.683220 0.385310 -0.621815
O7    O     O_R   0.686060 0.500040 0.614690 -0.622223
O8    O     O_R   0.686040 0.500020 0.385350 -0.612601
Zn1   Zn    Zn3+2 0.500010 0.500020 0.653130 0.932863
Zn2   Zn    Zn3+2 0.499990 0.499980 0.346870 0.948294
C31   C     C_2   0.263430 0.865590 0.446445 0.385860
H17   H     H_    0.258627 0.763906 0.440095 0.052635
O9    O     O_2   0.164420 0.922310 0.429363 -0.583553
C32   C     C_2   0.258301 0.328761 0.208814 0.474296
H18   H     H_    0.212157 0.417069 0.189062 0.043250
O10   O     O_2   0.211152 0.252000 0.286267 -0.610314

loop_
_geom_bond_atom_site_label_1
_geom_bond_atom_site_label_2
_ccdc_geom_bond_type
C24   H8    S    
C18   H6    S    
C30   H11   S    
C29   C30   S    
O3    Zn1   S    
C26   C29   S    
C4    C12   S    
C19   H7    S    
C1    O2    A    
C4    C26   S    
C19   C20   A    
C1    C11   S    
C25   O8    A    
C32   O10   D    
C2    C30   S    
C12   O3    A    
C32   H18   S    
C15   C23   S    
C17   C18   A    
C9    C15   A    
C31   H17   S    
C17   H5    S    
C13   C14   A    
C13   H14   S    
N1    Zn2   S    
C14   C31   S    
C11   C13   A    
C3    H13   S    
C26   C27   S    
C20   N2    A    
C1    O1    A    
C2    H12   S    
C22   H4    S    
C29   H10   S    
C3    C27   S    
C28   C29   S    
C12   O4    A    
O8    Zn2   S    
C23   O5    A    
C6    C7    A    
C2    C3    S    
C8    H3    S    
O7    Zn1   S    
C27   H1    S    
C5    C6    A    
O4    Zn2   S    
C22   C24   A    
C26   H9    S    
C31   O9    D    
C10   C11   A    
C5    C10   A    
C3    C4    S    
O2    Zn2   S    
C9    C10   A    
C7    C8    A    
N2    Zn1   S    
O1    Zn1   S    
C20   C21   A    
C23   O6    A    
C18   C19   A    
O6    Zn2   S    
C27   C28   S    
C16   C21   A    
O5    Zn1   S    
C14   C15   A    
C16   C17   A    
C2    C28   S    
C7    H2    S    
C6    H16   S    
C21   N1    A    
C5    H15   S    
C16   C32   S    
C22   N1    A    
C4    C30   S    
C25   O7    A    
C8    C9    A    
C25   C28   S    
C24   N2    A    
