data_mof_unit_28011.cif
_audit_creation_date              2012-10-26T21:24:45-0400
_audit_creation_method            fapswitch 2.2
_symmetry_space_group_name_H-M    P1
_symmetry_Int_Tables_number       1
_space_group_crystal_system       triclinic
_cell_length_a                    9.54424
_cell_length_b                    10.807222
_cell_length_c                    15.48733
_cell_angle_alpha                 89.911919
_cell_angle_beta                  74.434067
_cell_angle_gamma                 90.011523
_cell_volume                      1538.87372784

loop_
_atom_site_label
_atom_site_type_symbol
_atom_type_description
_atom_site_fract_x
_atom_site_fract_y
_atom_site_fract_z
_atom_type_partial_charge
Br1   Br    Br    0.775929 0.140206 0.391469 -0.516284
C1    C     C_R   0.001478 0.262416 0.496154 0.571706
C2    C     C_R   0.222732 0.481248 0.042694 0.050245
C3    C     C_R   0.323939 0.512995 0.091410 0.035684
C4    C     C_R   0.918278 0.501609 0.672062 0.538948
C5    C     C_R   0.075572 0.462173 0.087205 -0.137548
C6    C     C_R   0.027492 0.471801 0.180064 -0.126396
C7    C     C_R   0.273061 0.519033 0.185276 -0.128061
C8    C     C_R   0.115718 0.064019 0.511373 0.009103
C9    C     C_R   0.007047 0.129206 0.485839 0.017705
C10   C     C_R   0.910921 0.062858 0.447214 0.134306
C11   C     C_R   0.911601 0.933549 0.449517 -0.127264
C12   C     C_R   0.670920 0.523239 0.905814 0.035689
C13   C     C_R   0.007222 0.870499 0.488935 -0.025562
C14   C     C_R   0.116204 0.936942 0.512635 0.012460
C15   C     C_3   0.165110 0.932112 0.596452 -0.264474
C16   C     C_R   0.001010 0.737590 0.498241 0.547138
C17   C     C_3   0.164850 0.072672 0.594985 -0.266963
C18   C     C_R   0.603549 0.553815 0.431296 0.169457
C19   C     C_R   0.546991 0.436078 0.562826 0.015226
C20   C     C_R   0.398048 0.436240 0.562916 -0.005666
C21   C     C_R   0.456292 0.553386 0.431106 0.166660
C22   C     C_3   0.462136 0.685241 0.402150 -0.271081
C23   C     C_R   0.769820 0.566261 0.952961 0.049402
C24   C     C_3   0.620463 0.686311 0.403550 -0.280951
C25   C     C_R   0.081724 0.499916 0.327888 0.552416
C26   C     C_R   0.872723 0.514459 0.769852 -0.001255
C27   C     C_R   0.126715 0.498216 0.229584 0.001571
C28   C     C_R   0.917358 0.583234 0.908397 -0.144270
C29   C     C_R   0.968509 0.558032 0.817210 -0.144874
C30   C     C_R   0.726802 0.493558 0.814734 -0.128500
C31   C     C_R   0.520204 0.511624 0.951042 0.035542
C32   C     C_R   0.472847 0.533488 0.045086 0.035897
C33   C     C_R   0.575433 0.576825 0.089321 -0.130283
C34   C     C_R   0.720577 0.593341 0.043819 -0.133908
C35   C     C_R   0.414856 0.481799 0.905046 -0.136200
C36   C     C_R   0.269262 0.467609 0.950160 -0.137702
Cu1   Cu    Cu3+1 0.140670 0.499980 0.500000 0.946711
Cu2   Cu    Cu3+1 0.859330 0.500020 0.500000 0.977525
H1    H     H_    0.795021 0.627533 0.080279 0.110604
H2    H     H_    0.447405 0.695315 0.333685 0.123973
H3    H     H_    0.346060 0.536038 0.226075 0.121098
H4    H     H_    0.392764 0.746790 0.453565 0.159851
H5    H     H_    0.697365 0.698759 0.336113 0.129496
H6    H     H_    0.639863 0.746941 0.456993 0.153294
H7    H     H_    0.913819 0.455137 0.213158 0.147451
H8    H     H_    0.192711 0.444113 0.912193 0.108338
H9    H     H_    0.992656 0.618486 0.943788 0.112746
H10   H     H_    0.081720 0.575585 0.783448 0.124689
H11   H     H_    0.659265 0.453698 0.776525 0.111250
H12   H     H_    0.997972 0.437714 0.050267 0.118141
H13   H     H_    0.546908 0.602703 0.158948 0.099903
H14   H     H_    0.440077 0.471486 0.833410 0.096388
H15   H     H_    0.835616 0.883002 0.422251 0.147889
H16   H     H_    0.081600 0.891820 0.654031 0.137974
H17   H     H_    0.275865 0.892062 0.584806 0.141738
H18   H     H_    0.081307 0.114328 0.651780 0.129299
H19   H     H_    0.275452 0.113532 0.582257 0.155289
H20   H     H_    0.580035 0.385991 0.614585 0.114421
H21   H     H_    0.319571 0.386558 0.614778 0.107491
N1    N     N_R   0.648210 0.500930 0.499430 -0.222335
N2    N     N_R   0.352300 0.500890 0.499430 -0.232531
O1    O     O_R   0.118810 0.319640 0.500000 -0.500092
O2    O     O_R   0.881230 0.319680 0.499990 -0.454643
O3    O     O_R   0.055580 0.499970 0.629840 -0.513692
O4    O     O_R   0.818000 0.500010 0.629830 -0.515296
O5    O     O_R   0.118770 0.680320 0.500010 -0.503421
O6    O     O_R   0.881190 0.680360 0.500000 -0.512300
O7    O     O_R   0.182000 0.499990 0.370170 -0.503531
O8    O     O_R   0.944420 0.500030 0.370160 -0.489630

loop_
_geom_bond_atom_site_label_1
_geom_bond_atom_site_label_2
_ccdc_geom_bond_type
C7    C27   A    
Cu1   O5    S    
C10   C11   A    
C15   H17   S    
C28   C29   A    
C30   H11   S    
C26   C29   A    
C5    H12   S    
C21   N2    A    
C8    C9    A    
C12   C31   A    
C25   C27   S    
C22   H2    S    
Cu1   O3    S    
C11   C13   A    
C28   H9    S    
C3    C7    A    
C2    C5    A    
C31   C32   A    
Cu1   O1    S    
C32   C33   A    
C8    C14   A    
Cu1   O7    S    
C19   C20   A    
C19   H20   S    
C23   C28   A    
Cu2   O2    S    
C13   C16   S    
C20   N2    A    
C5    C6    A    
C18   N1    A    
C25   O8    A    
C31   C35   A    
C24   H5    S    
C4    O3    A    
C35   C36   A    
C29   H10   S    
C7    H3    S    
C36   H8    S    
C22   C24   S    
Cu2   O8    S    
Cu1   Cu2   S    
Cu2   N1    S    
Cu2   O4    S    
C15   H16   S    
C23   C34   A    
C16   O5    A    
C9    C10   A    
C3    C32   A    
C18   C24   S    
C26   C30   A    
C14   C15   S    
C1    C9    S    
C6    H7    S    
C24   H6    S    
C8    C17   S    
C19   N1    A    
C18   C21   A    
C22   H4    S    
C1    O1    A    
C2    C36   A    
C20   H21   S    
C15   C17   S    
C33   C34   A    
Cu2   O6    S    
C34   H1    S    
C25   O7    A    
C12   C30   A    
C13   C14   A    
C16   O6    A    
C35   H14   S    
C17   H18   S    
C4    C26   S    
C33   H13   S    
C17   H19   S    
C21   C22   S    
C11   H15   S    
C6    C27   A    
C2    C3    A    
C12   C23   A    
C1    O2    A    
C4    O4    A    
Cu1   N2    S    
Br1   C10   S    
