data_mof_unit_58830.cif
_audit_creation_date              2012-12-10T17:04:37-0500
_audit_creation_method            fapswitch 2.2
_symmetry_space_group_name_H-M    P1
_symmetry_Int_Tables_number       1
_space_group_crystal_system       triclinic
_cell_length_a                    14.985201
_cell_length_b                    10.67657
_cell_length_c                    10.014137
_cell_angle_alpha                 89.570434
_cell_angle_beta                  90.043636
_cell_angle_gamma                 90.195934
_cell_volume                      1602.11243023

loop_
_atom_site_label
_atom_site_type_symbol
_atom_type_description
_atom_site_fract_x
_atom_site_fract_y
_atom_site_fract_z
_atom_type_partial_charge
C1    C     C_R   0.491858 0.262690 0.500372 0.834319
C2    C     C_R   0.185018 0.460985 0.609699 -0.316986
C3    C     C_R   0.230941 0.510447 0.500060 -0.184714
C4    C     C_R   0.326743 0.502635 0.499885 0.921923
C5    C     C_R   0.185482 0.567650 0.392720 0.463898
C6    C     C_2   0.472936 0.932626 0.390181 -0.127656
C7    C     C_2   0.504514 0.870803 0.496319 -0.265046
C8    C     C_2   0.475737 0.067504 0.389012 -0.174741
C9    C     C_2   0.461961 0.134453 0.500257 -0.163847
C10   C     C_2   0.552445 0.570701 0.924414 -0.118523
C11   C     C_2   0.555948 0.565222 0.074591 -0.133051
C12   C     C_R   0.906259 0.557319 0.389935 0.127826
C13   C     C_R   0.501503 0.737837 0.499289 0.911521
C14   C     C_R   0.673232 0.500292 0.500047 0.893547
C15   C     C_R   0.813962 0.552623 0.389792 -0.263078
C16   C     C_R   0.768907 0.502950 0.500243 -0.073476
C17   C     C_R   0.815002 0.457149 0.611453 -0.264751
C18   C     C_R   0.907323 0.459601 0.612542 0.117483
C19   C     C_R   0.953313 0.510120 0.501402 0.093865
C20   C     C_2   0.408987 0.088821 0.617463 0.392267
C21   C     C_3   0.250804 0.747470 0.319652 -0.259820
C22   C     C_R   0.954211 0.411915 0.722434 -0.222540
C23   C     C_R   0.046863 0.412961 0.721868 -0.180927
C24   C     C_R   0.092914 0.462692 0.611916 0.120546
C25   C     C_R   0.046273 0.512787 0.501514 -0.013109
C26   C     C_R   0.092401 0.564757 0.391053 0.005088
C27   C     C_R   0.044643 0.612375 0.281265 -0.178536
C28   C     C_R   0.952025 0.608229 0.280624 -0.241385
H1    H     H_    0.777166 0.589118 0.304708 0.153359
H2    H     H_    0.082493 0.374611 0.806997 0.150237
H3    H     H_    0.221101 0.418900 0.692542 0.181427
H4    H     H_    0.078563 0.652020 0.195262 0.191349
H5    H     H_    0.916209 0.644760 0.194776 0.148528
H6    H     H_    0.450444 0.884833 0.300762 0.159547
H7    H     H_    0.416254 0.133902 0.713640 0.071002
H8    H     H_    0.287689 0.791068 0.235226 0.188786
H9    H     H_    0.294015 0.754110 0.409781 0.173892
H10   H     H_    0.188478 0.802055 0.334438 0.158177
H11   H     H_    0.531243 0.918451 0.583192 0.141003
H12   H     H_    0.502019 0.110343 0.298385 0.161126
H13   H     H_    0.597187 0.635736 0.874197 0.157412
H14   H     H_    0.462042 0.434759 0.898335 0.159764
H15   H     H_    0.607125 0.620137 0.123935 0.153119
H16   H     H_    0.449365 0.454813 0.102453 0.173094
H17   H     H_    0.779041 0.418179 0.696196 0.160816
H18   H     H_    0.919282 0.373070 0.808052 0.148238
N1    N     N_2   0.500970 0.501330 0.852150 -0.189924
N2    N     N_2   0.500990 0.501360 0.147810 -0.186826
O1    O     O_R   0.499990 0.319060 0.613040 -0.634905
O2    O     O_3   0.231857 0.621741 0.287332 -0.607073
O3    O     O_R   0.500010 0.319100 0.386900 -0.607788
O4    O     O_R   0.367830 0.499950 0.613080 -0.625074
O5    O     O_R   0.367860 0.499990 0.386940 -0.565699
O6    O     O_R   0.499990 0.680900 0.613100 -0.602787
O7    O     O_R   0.500010 0.680940 0.386960 -0.619843
O8    O     O_R   0.632140 0.500010 0.613060 -0.620201
O9    O     O_R   0.632170 0.500050 0.386920 -0.620254
O10   O     O_2   0.353864 0.004987 0.606300 -0.561492
Zn1   Zn    Zn3+2 0.499980 0.499970 0.650990 0.946132
Zn2   Zn    Zn3+2 0.500020 0.500030 0.349010 0.964762

loop_
_geom_bond_atom_site_label_1
_geom_bond_atom_site_label_2
_ccdc_geom_bond_type
C14   O8    A    
C23   C24   A    
O8    Zn1   S    
C11   H15   S    
C6    C7    D    
O4    Zn1   S    
C4    O5    A    
C9    C20   S    
C21   H10   S    
O1    Zn1   S    
C12   C15   A    
O6    Zn1   S    
N2    Zn2   S    
C2    C3    A    
C26   C27   A    
C21   H9    S    
C21   H8    S    
O7    Zn2   S    
C10   H13   S    
C1    O3    A    
C11   N2    D    
C16   C17   A    
C1    O1    A    
C12   C28   A    
C12   C19   A    
C21   O2    S    
C22   H18   S    
O5    Zn2   S    
C17   H17   S    
C28   H5    S    
C15   H1    S    
C5    C26   A    
H14   N1    S    
C2    H3    S    
C2    C24   A    
C19   C25   A    
C14   C16   S    
C5    O2    S    
C10   N1    D    
C10   C11   S    
C27   H4    S    
N1    Zn1   S    
C15   C16   A    
C23   H2    S    
H16   N2    S    
C7    C13   S    
C1    C9    S    
C24   C25   A    
C17   C18   A    
C13   O6    A    
C27   C28   A    
C14   O9    A    
C7    H11   S    
C22   C23   A    
C18   C19   A    
O9    Zn2   S    
C6    C8    S    
O3    Zn2   S    
C8    H12   S    
C3    C5    A    
C25   C26   A    
C18   C22   A    
C20   H7    S    
C20   O10   D    
C4    O4    A    
C3    C4    S    
C6    H6    S    
C8    C9    D    
C13   O7    A    
