data_mof_unit_22692.cif
_audit_creation_date              2012-12-10T18:33:31-0500
_audit_creation_method            fapswitch 2.2
_symmetry_space_group_name_H-M    P1
_symmetry_Int_Tables_number       1
_space_group_crystal_system       triclinic
_cell_length_a                    8.883915
_cell_length_b                    15.233275
_cell_length_c                    14.15115
_cell_angle_alpha                 89.088423
_cell_angle_beta                  96.785226
_cell_angle_gamma                 91.882662
_cell_volume                      1900.5115922

loop_
_atom_site_label
_atom_site_type_symbol
_atom_type_description
_atom_site_fract_x
_atom_site_fract_y
_atom_site_fract_z
_atom_type_partial_charge
C1    C     C_R   0.514255 0.330757 0.502039 0.752374
C2    C     C_R   0.487523 0.669417 0.497787 0.754107
C3    C     C_R   0.596979 0.557328 0.118921 -0.300951
C4    C     C_R   0.452058 0.429392 0.887594 -0.295666
C5    C     C_R   0.586265 0.559645 0.216666 0.006821
C6    C     C_R   0.444266 0.430786 0.788071 0.001548
C7    C     C_R   0.417762 0.436661 0.204966 0.598979
C8    C     C_R   0.573434 0.568375 0.792813 0.603953
C9    C     C_R   0.411242 0.438584 0.103510 -0.146797
C10   C     C_R   0.590605 0.566882 0.894358 -0.149086
C11   C     C_R   0.508890 0.497891 0.056219 0.048786
C12   C     C_R   0.517975 0.498824 0.946023 0.035955
C13   C     C_R   0.205204 0.503425 0.476415 0.803430
C14   C     C_R   0.794309 0.496389 0.523672 0.781689
C15   C     C_2   0.042594 0.519583 0.468438 -0.223230
C16   C     C_2   0.956536 0.481588 0.532399 -0.228509
C17   C     C_R   0.519823 0.092864 0.586215 -0.209616
C18   C     C_R   0.482281 0.906583 0.410244 -0.213084
C19   C     C_R   0.534049 0.184262 0.591301 -0.005622
C20   C     C_R   0.468605 0.814999 0.405945 -0.007901
C21   C     C_R   0.541648 0.234417 0.506075 -0.147177
C22   C     C_R   0.460476 0.765764 0.491912 -0.145438
C23   C     C_R   0.574801 0.189393 0.423830 -0.002511
C24   C     C_R   0.424238 0.811435 0.572629 -0.010410
C25   C     C_R   0.558662 0.097537 0.421937 -0.223052
C26   C     C_R   0.440369 0.903109 0.574144 -0.225630
C27   C     C_R   0.516025 0.048732 0.500238 0.094441
C28   C     C_R   0.484618 0.951355 0.495874 0.095246
Cu1   Cu    Cu3+1 0.500000 0.499990 0.596430 0.969116
Cu2   Cu    Cu3+1 0.500000 0.500010 0.403570 0.974691
H1    H     H_    0.521758 0.056307 0.652086 0.126011
H2    H     H_    0.481814 0.942644 0.344191 0.123662
H3    H     H_    0.589316 0.064764 0.360509 0.115286
H4    H     H_    0.407482 0.936075 0.634911 0.117007
H5    H     H_    0.675629 0.605247 0.097833 0.181868
H6    H     H_    0.415080 0.368756 0.915829 0.179558
H7    H     H_    0.650404 0.608526 0.260210 0.184394
H8    H     H_    0.396259 0.374878 0.748032 0.184849
N1    N     N_R   0.500000 0.500020 0.258690 -0.218257
N2    N     N_R   0.500000 0.499980 0.741310 -0.222065
O1    O     O_R   0.500010 0.371450 0.581430 -0.588510
O2    O     O_R   0.499990 0.628550 0.418570 -0.589284
O3    O     O_R   0.500010 0.371460 0.418560 -0.509289
O4    O     O_R   0.499990 0.628540 0.581440 -0.525674
O5    O     O_R   0.274840 0.499990 0.562640 -0.557199
O6    O     O_R   0.725160 0.500010 0.437360 -0.565080
O7    O     O_R   0.274840 0.500000 0.399770 -0.604986
O8    O     O_R   0.725160 0.500000 0.600230 -0.624714
C29   C     C_R   0.986261 0.593874 0.405293 0.128085
C30   C     C_R   0.929795 0.669070 0.444147 -0.146641
C31   C     C_R   0.883548 0.740366 0.385771 -0.131331
C32   C     C_R   0.890552 0.736695 0.287976 -0.116804
C33   C     C_R   0.939446 0.660932 0.248588 -0.203288
C34   C     C_R   0.988516 0.590125 0.306616 -0.139656
H9    H     H_    0.923182 0.673010 0.519774 0.098115
H10   H     H_    0.842451 0.798353 0.416365 0.131890
H11   H     H_    0.856828 0.791921 0.242329 0.129996
H12   H     H_    0.939245 0.656820 0.172948 0.159721
H13   H     H_    0.028128 0.532984 0.274176 0.109668
C35   C     C_R   0.013282 0.410229 0.598826 0.140195
C36   C     C_R   0.030551 0.422806 0.697415 -0.101899
C37   C     C_R   0.089695 0.356573 0.758608 -0.193720
C38   C     C_R   0.123667 0.275659 0.723041 -0.124536
C39   C     C_R   0.106183 0.262278 0.625019 -0.129907
C40   C     C_R   0.052588 0.329638 0.563141 -0.176092
H14   H     H_    0.999400 0.483448 0.727328 0.105660
H15   H     H_    0.109782 0.368295 0.833680 0.172586
H16   H     H_    0.164677 0.223964 0.771633 0.132027
H17   H     H_    0.134860 0.200085 0.596984 0.132300
H18   H     H_    0.040405 0.318947 0.487551 0.110458
C41   C     C_R   0.562981 0.220682 0.688880 0.132231
C42   C     C_R   0.690805 0.275813 0.714106 -0.070645
C43   C     C_R   0.730363 0.299891 0.808731 -0.135378
C44   C     C_R   0.648661 0.265432 0.879837 -0.152419
C45   C     C_R   0.522575 0.209809 0.856040 -0.167689
C46   C     C_R   0.478718 0.188369 0.761075 -0.182352
H19   H     H_    0.760312 0.299462 0.660640 0.132384
H20   H     H_    0.824037 0.345444 0.827041 0.134789
H21   H     H_    0.680051 0.284268 0.952961 0.119356
H22   H     H_    0.458369 0.183627 0.911025 0.124978
H23   H     H_    0.381832 0.144079 0.744133 0.114416
C47   C     C_R   0.444546 0.777016 0.308574 0.133447
C48   C     C_R   0.530132 0.809579 0.237341 -0.179288
C49   C     C_R   0.493996 0.783948 0.143077 -0.151836
C50   C     C_R   0.376585 0.722529 0.118852 -0.132875
C51   C     C_R   0.292515 0.688398 0.188887 -0.139081
C52   C     C_R   0.322072 0.718082 0.282451 -0.060916
H24   H     H_    0.621865 0.857356 0.254112 0.111437
H25   H     H_    0.556373 0.812730 0.088982 0.126837
H26   H     H_    0.351741 0.700771 0.046151 0.119522
H27   H     H_    0.204582 0.639019 0.170398 0.115226
H28   H     H_    0.250869 0.694663 0.335011 0.135271
C53   C     C_R   0.644522 0.234321 0.344085 0.167361
C54   C     C_R   0.609259 0.206850 0.249198 -0.108206
C55   C     C_R   0.681856 0.246959 0.176598 -0.144913
C56   C     C_R   0.782958 0.318022 0.196597 -0.130712
C57   C     C_R   0.818906 0.345687 0.290045 -0.128832
C58   C     C_R   0.755161 0.301783 0.363540 -0.078138
H29   H     H_    0.525816 0.154628 0.230964 0.104728
H30   H     H_    0.658748 0.223266 0.104664 0.104954
H31   H     H_    0.834375 0.351216 0.140096 0.131182
H32   H     H_    0.899021 0.399685 0.306130 0.127431
H33   H     H_    0.788132 0.322296 0.435790 0.092108
C59   C     C_R   0.345826 0.767303 0.648701 0.173767
C60   C     C_R   0.229815 0.704354 0.623404 -0.080855
C61   C     C_R   0.152544 0.662930 0.692419 -0.136766
C62   C     C_R   0.185744 0.685997 0.787555 -0.127779
C63   C     C_R   0.294366 0.752156 0.813476 -0.141728
C64   C     C_R   0.376074 0.792009 0.744780 -0.095081
H34   H     H_    0.200487 0.686830 0.549816 0.093274
H35   H     H_    0.064057 0.614792 0.671331 0.112945
H36   H     H_    0.124988 0.653700 0.840494 0.134741
H37   H     H_    0.314514 0.772689 0.886747 0.106056
H38   H     H_    0.462891 0.841487 0.766725 0.109170
O9    O     O_3   0.377788 0.358892 0.249691 -0.555663
C65   C     C_3   0.220640 0.348728 0.256640 0.082799
H39   H     H_    0.157511 0.324662 0.190131 0.171336
H40   H     H_    0.168869 0.410111 0.274757 0.131543
C66   C     C_3   0.197053 0.277211 0.330240 -0.774904
H41   H     H_    0.237254 0.300864 0.402455 0.238360
H42   H     H_    0.075523 0.257555 0.327233 0.195576
H43   H     H_    0.260595 0.218182 0.315977 0.251198
O10   O     O_3   0.601655 0.647909 0.747761 -0.562134
C67   C     C_3   0.754391 0.660587 0.729510 0.114553
H44   H     H_    0.767830 0.638397 0.657661 0.178049
H45   H     H_    0.837781 0.626027 0.780024 0.109226
C68   C     C_3   0.793631 0.758728 0.727549 -0.827278
H46   H     H_    0.778715 0.789432 0.795808 0.262687
H47   H     H_    0.912680 0.770206 0.713281 0.214184
H48   H     H_    0.718980 0.791474 0.670116 0.245692
C69   C     C_R   0.289015 0.382854 0.053261 0.100825
C70   C     C_R   0.145364 0.417873 0.028833 -0.200643
C71   C     C_R   0.020391 0.362144 0.000718 -0.210665
C72   C     C_R   0.038908 0.271770 0.993344 -0.123258
C73   C     C_R   0.182042 0.236709 0.015132 -0.167696
C74   C     C_R   0.305943 0.291577 0.046944 -0.142034
H49   H     H_    0.129024 0.487204 0.037275 0.121851
H50   H     H_    0.908888 0.388785 0.985421 0.125276
H51   H     H_    0.942557 0.228628 0.971449 0.137919
H52   H     H_    0.196217 0.166720 0.010038 0.122760
H53   H     H_    0.414198 0.263122 0.067701 0.132719
C75   C     C_R   0.706499 0.629786 0.939194 0.129240
C76   C     C_R   0.673667 0.717919 0.951970 -0.107156
C77   C     C_R   0.789238 0.778147 0.985820 -0.194520
C78   C     C_R   0.938443 0.751096 0.005285 -0.105170
C79   C     C_R   0.971830 0.663460 0.992661 -0.181609
C80   C     C_R   0.856429 0.602816 0.960871 -0.214290
H54   H     H_    0.559946 0.740114 0.934450 0.122380
H55   H     H_    0.763765 0.846291 0.994691 0.118965
H56   H     H_    0.028141 0.797896 0.030142 0.130903
H57   H     H_    0.087345 0.642556 0.006995 0.116539
H58   H     H_    0.884427 0.535865 0.948626 0.119458

loop_
_geom_bond_atom_site_label_1
_geom_bond_atom_site_label_2
_ccdc_geom_bond_type
C60   H34   S    
C4    H6    S    
C1    C21   S    
C53   C54   A    
C33   H12   S    
C5    H7    S    
C62   H36   S    
C19   C41   S    
C55   C56   A    
C57   C58   A    
C73   C74   A    
C14   O6    A    
C50   C51   A    
C65   H39   S    
C74   H53   S    
C37   H15   S    
C19   C21   A    
C24   C26   A    
C20   C47   S    
C51   H27   S    
C47   C52   A    
C16   C35   S    
C41   C46   A    
C61   C62   A    
C58   H33   S    
C63   C64   A    
C31   H10   S    
C43   C44   A    
C7    O9    S    
C42   H19   S    
C36   H14   S    
C26   H4    S    
C2    O4    A    
C70   C71   A    
C2    C22   S    
C43   H20   S    
C6    H8    S    
C10   C75   S    
C4    C12   A    
C45   H22   S    
C18   C20   A    
C78   H56   S    
C61   H35   S    
C9    C69   S    
C48   H24   S    
C71   H50   S    
C56   H31   S    
C36   C37   A    
C59   C60   A    
C1    O3    A    
C78   C79   A    
C34   H13   S    
C66   H42   S    
C73   H52   S    
C44   C45   A    
Cu1   O8    S    
C31   C32   A    
C17   C27   A    
Cu2   O7    S    
O10   C67   S    
C6    N2    A    
C18   C28   A    
C49   C50   A    
C4    C6    A    
C69   C74   A    
C72   H51   S    
C13   O7    A    
C51   C52   A    
C42   C43   A    
C14   O8    A    
C70   H49   S    
C33   C34   A    
C23   C53   S    
Cu1   O5    S    
C35   C36   A    
C24   C59   S    
C63   H37   S    
C45   C46   A    
C68   H47   S    
Cu1   Cu2   S    
C79   H57   S    
C48   C49   A    
C13   C15   S    
C3    H5    S    
C62   C63   A    
C56   C57   A    
C37   C38   A    
C30   C31   A    
C39   H17   S    
C66   H41   S    
C9    C11   A    
C10   C12   A    
C64   H38   S    
C67   C68   S    
C1    O1    A    
C20   C22   A    
C35   C40   A    
C47   C48   A    
C44   H21   S    
C21   C23   A    
Cu1   O4    S    
C71   C72   A    
C17   H1    S    
C14   C16   S    
Cu2   O3    S    
C18   H2    S    
C49   H25   S    
C68   H46   S    
C32   C33   A    
C67   H45   S    
C79   C80   A    
C66   H43   S    
C7    C9    A    
C38   H16   S    
C77   H55   S    
Cu1   O1    S    
C55   H30   S    
C75   C80   A    
Cu2   O6    S    
C57   H32   S    
C77   C78   A    
C3    C5    A    
C46   H23   S    
C50   H26   S    
C8    O10   S    
C72   C73   A    
C25   C27   A    
C60   C61   A    
C26   C28   A    
C30   H9    S    
C65   C66   S    
C39   C40   A    
C5    N1    A    
C76   C77   A    
C68   H48   S    
C41   C42   A    
C69   C70   A    
C13   O5    A    
O9    C65   S    
C59   C64   A    
C54   H29   S    
C2    O2    A    
C15   C16   D    
Cu1   N2    S    
C17   C19   A    
C65   H40   S    
Cu2   N1    S    
C80   H58   S    
C22   C24   A    
C15   C29   S    
C54   C55   A    
C76   H54   S    
C3    C11   A    
C32   H11   S    
C38   C39   A    
C23   C25   A    
C8    C10   A    
C29   C30   A    
C27   C28   S    
C7    N1    A    
C75   C76   A    
Cu2   O2    S    
C8    N2    A    
C40   H18   S    
C52   H28   S    
C53   C58   A    
C29   C34   A    
C11   C12   S    
C25   H3    S    
C67   H44   S    
