data_mof_unit_43847.cif
_audit_creation_date              2012-12-10T17:48:38-0500
_audit_creation_method            fapswitch 2.2
_symmetry_space_group_name_H-M    P1
_symmetry_Int_Tables_number       1
_space_group_crystal_system       triclinic
_cell_length_a                    15.721399
_cell_length_b                    10.688373
_cell_length_c                    10.031709
_cell_angle_alpha                 89.09509
_cell_angle_beta                  90.800203
_cell_angle_gamma                 93.350848
_cell_volume                      1682.45454278

loop_
_atom_site_label
_atom_site_type_symbol
_atom_type_description
_atom_site_fract_x
_atom_site_fract_y
_atom_site_fract_z
_atom_type_partial_charge
C1    C     C_R   0.509473 0.262001 0.502344 0.969364
C2    C     C_R   0.493343 0.044858 0.869181 -0.298141
C3    C     C_R   0.438869 0.939031 0.851391 -0.303404
C4    C     C_R   0.338653 0.500734 0.498850 0.941980
C5    C     C_R   0.429735 0.884208 0.725085 0.505302
C6    C     C_R   0.477361 0.937666 0.616615 -0.080838
C7    C     C_R   0.512829 0.059820 0.628666 -0.028044
C8    C     C_R   0.524180 0.130240 0.508731 -0.165954
C9    C     C_R   0.530391 0.070609 0.387510 -0.298544
C10   C     C_R   0.521569 0.942548 0.381733 0.463839
C11   C     C_R   0.492412 0.874563 0.496327 -0.180590
C12   C     C_3   0.949044 0.447961 0.625275 0.742345
C13   C     C_R   0.362233 0.371255 0.134840 0.373562
C14   C     C_R   0.285773 0.342012 0.064030 0.192110
C15   C     C_R   0.284690 0.356478 0.925895 0.170082
C16   C     C_R   0.495214 0.739767 0.498625 0.904949
C17   C     C_R   0.362672 0.375634 0.861608 0.454646
C18   C     C_R   0.432315 0.439925 0.927442 -0.110190
C19   C     C_R   0.431871 0.439933 0.071241 -0.036098
C20   C     C_R   0.566053 0.550788 0.072296 -0.129505
C21   C     C_R   0.564952 0.556172 0.930698 0.475485
C22   C     C_R   0.661245 0.504169 0.500792 0.844745
C23   C     C_3   0.917144 0.520750 0.496725 -0.185885
C24   C     C_3   0.049383 0.445748 0.621147 -0.018937
C25   C     C_3   0.041333 0.437347 0.365484 0.786260
C26   C     C_3   0.941611 0.454254 0.362667 0.730359
C27   C     C_1   0.750102 0.515483 0.502688 -0.134932
C28   C     C_3   0.082267 0.508701 0.488612 -0.148445
C29   C     C_3   0.964311 0.584583 0.821268 -0.005355
C30   C     C_3   0.014473 0.518897 0.931460 -0.325984
C31   C     C_3   0.096934 0.595516 0.967324 -0.795145
C32   C     C_3   0.922716 0.858525 0.423930 0.165948
C33   C     C_3   0.839464 0.883496 0.494677 -0.481865
C34   C     C_3   0.958473 0.656961 0.496080 0.257669
C35   C     C_3   0.830466 0.023527 0.512887 -0.829496
C36   C     C_3   0.611887 0.855974 0.235026 0.137436
C37   C     C_3   0.672528 0.968509 0.198630 -0.440559
C38   C     C_3   0.754119 0.924717 0.137744 -0.908774
C39   C     C_3   0.211715 0.155534 0.108297 0.088269
C40   C     C_3   0.133277 0.095420 0.177622 -0.312874
C41   C     C_3   0.121816 0.955600 0.148901 -0.950030
C42   C     C_3   0.897394 0.283592 0.222737 0.111005
C43   C     C_3   0.810522 0.286543 0.151625 -0.382409
C44   C     C_3   0.817016 0.257155 0.003736 -0.890874
C45   C     C_3   0.057055 0.649314 0.485569 0.140182
C46   C     C_1   0.825474 0.522538 0.502033 0.162859
C47   C     C_1   0.174458 0.507143 0.489336 0.034106
C48   C     C_1   0.249768 0.504301 0.494405 -0.169253
C49   C     C_R   0.531478 0.106395 0.758398 0.533833
H1    H     H_    0.082413 0.499269 0.701114 0.155971
H2    H     H_    0.007114 0.647873 0.761748 0.087484
H3    H     H_    0.974296 0.506132 0.020755 0.275171
H4    H     H_    0.029990 0.423984 0.899892 0.228186
H5    H     H_    0.132019 0.628649 0.876946 0.221112
H6    H     H_    0.140466 0.536695 0.024712 0.281959
H7    H     H_    0.082263 0.677899 0.027200 0.294632
H8    H     H_    0.925652 0.914176 0.329480 0.161299
H9    H     H_    0.979115 0.891486 0.485260 0.134230
H10   H     H_    0.784219 0.844248 0.435665 0.231500
H11   H     H_    0.837760 0.836779 0.594316 0.223623
H12   H     H_    0.540918 0.123263 0.295370 0.192385
H13   H     H_    0.884630 0.064192 0.573395 0.287959
H14   H     H_    0.770120 0.038469 0.565042 0.270215
H15   H     H_    0.828920 0.072470 0.414595 0.272244
H16   H     H_    0.596449 0.224819 0.871532 0.318793
H17   H     H_    0.343507 0.760072 0.789301 0.321743
H18   H     H_    0.608455 0.793513 0.148206 0.186818
H19   H     H_    0.638616 0.802434 0.320529 0.109326
H20   H     H_    0.641136 0.031010 0.125876 0.236863
H21   H     H_    0.689495 0.022197 0.289995 0.216010
H22   H     H_    0.779966 0.847355 0.198070 0.272231
H23   H     H_    0.504330 0.080402 0.968847 0.163205
H24   H     H_    0.803318 0.003070 0.134225 0.260073
H25   H     H_    0.741002 0.891175 0.034832 0.283228
H26   H     H_    0.136874 0.321671 0.637604 0.400595
H27   H     H_    0.319845 0.279441 0.293454 0.353384
H28   H     H_    0.269578 0.113331 0.150511 0.146338
H29   H     H_    0.206637 0.133395 0.000326 0.175257
H30   H     H_    0.140225 0.108234 0.287024 0.259668
H31   H     H_    0.075551 0.142069 0.142235 0.237122
H32   H     H_    0.113381 0.940368 0.040114 0.260568
H33   H     H_    0.064267 0.915097 0.200208 0.299895
H34   H     H_    0.405473 0.898013 0.936634 0.169292
H35   H     H_    0.178096 0.906438 0.185633 0.275925
H36   H     H_    0.161649 0.329113 0.908761 0.377947
H37   H     H_    0.324558 0.255010 0.724867 0.351344
H38   H     H_    0.611129 0.650736 0.782121 0.367998
H39   H     H_    0.135653 0.464869 0.241555 0.374713
H40   H     H_    0.021388 0.260520 0.427790 0.386850
H41   H     H_    0.913288 0.184185 0.235583 0.135406
H42   H     H_    0.948430 0.328100 0.159071 0.187684
H43   H     H_    0.765024 0.217362 0.200071 0.220353
H44   H     H_    0.784076 0.379921 0.160295 0.238207
H45   H     H_    0.621095 0.590009 0.125983 0.144060
H46   H     H_    0.854679 0.333743 0.951670 0.294694
H47   H     H_    0.752262 0.249006 0.958043 0.284087
H48   H     H_    0.848235 0.167916 0.989726 0.250264
H49   H     H_    0.859375 0.542291 0.250823 0.335660
H50   H     H_    0.147089 0.740186 0.385559 0.332944
H51   H     H_    0.086663 0.698308 0.573706 0.047077
H52   H     H_    0.942475 0.698746 0.591778 0.041702
H53   H     H_    0.920694 0.282476 0.704700 0.371426
H54   H     H_    0.920698 0.647636 0.869680 0.193349
N1    N     N_R   0.499210 0.498800 0.142780 -0.101332
N2    N     N_R   0.499180 0.498720 0.857170 -0.123051
O1    O     O_R   0.500000 0.316780 0.614690 -0.508835
O2    O     O_3   0.913520 0.497391 0.744384 -0.651367
O3    O     O_3   0.924583 0.730356 0.390332 -0.547415
O4    O     O_3   0.591993 0.204142 0.775548 -0.740165
O5    O     O_3   0.370836 0.785131 0.703668 -0.765242
O6    O     O_3   0.527380 0.888862 0.257735 -0.629690
O7    O     O_3   0.073956 0.321407 0.637823 -0.728497
O8    O     O_3   0.374487 0.311753 0.254537 -0.707280
O9    O     O_3   0.215413 0.286650 0.128773 -0.640922
O10   O     O_3   0.212012 0.330325 0.850567 -0.798011
O11   O     O_3   0.375880 0.308599 0.749166 -0.710165
O12   O     O_R   0.499990 0.316750 0.385360 -0.565823
O13   O     O_3   0.631645 0.622323 0.870149 -0.773929
O14   O     O_3   0.076250 0.490594 0.247901 -0.694861
O15   O     O_3   0.061322 0.309779 0.369308 -0.798451
O16   O     O_3   0.893351 0.336864 0.351421 -0.654961
O17   O     O_3   0.921700 0.532733 0.252755 -0.710187
O18   O     O_3   0.086693 0.711670 0.368997 -0.659091
O19   O     O_R   0.377150 0.500020 0.614720 -0.549700
O20   O     O_R   0.377140 0.499990 0.385380 -0.580565
O21   O     O_R   0.500010 0.683250 0.614640 -0.619455
O22   O     O_R   0.500000 0.683220 0.385310 -0.599732
O23   O     O_R   0.622860 0.500010 0.614620 -0.587148
O24   O     O_R   0.622850 0.499980 0.385280 -0.650494
O25   O     O_3   0.914559 0.323483 0.615778 -0.697471
Zn1   Zn    Zn3+2 0.500010 0.500020 0.653130 1.034170
Zn2   Zn    Zn3+2 0.499990 0.499980 0.346870 0.985393

loop_
_geom_bond_atom_site_label_1
_geom_bond_atom_site_label_2
_ccdc_geom_bond_type
C25   O15   S    
C28   C47   S    
C37   H20   S    
C1    C8    S    
C24   O7    S    
C32   H9    S    
C36   H18   S    
C7    C8    A    
N2    Zn1   S    
C45   O18   S    
C25   C28   S    
C12   C23   S    
C29   H54   S    
H26   O7    S    
C37   C38   S    
C12   O25   S    
C4    O20   A    
C9    H12   S    
C39   H28   S    
C49   O4    S    
C36   C37   S    
C18   C19   A    
C29   H2    S    
C30   C31   S    
C5    O5    S    
N1    Zn2   S    
C4    O19   A    
H37   O11   S    
C42   H42   S    
C11   C16   S    
C23   C26   S    
O12   Zn2   S    
O22   Zn2   S    
C20   H45   S    
C33   C35   S    
C8    C9    A    
C40   H31   S    
C35   H15   S    
C26   O16   S    
C31   H7    S    
C29   C30   S    
C9    C10   A    
C1    O1    A    
O24   Zn2   S    
C23   C34   S    
C33   H10   S    
C23   C46   S    
C13   C14   A    
C32   H8    S    
C2    H23   S    
C25   O14   S    
C17   C18   A    
C24   H1    S    
O1    Zn1   S    
C30   H4    S    
C28   C45   S    
C34   H52   S    
C13   C19   A    
C39   H29   S    
C24   C28   S    
H36   O10   S    
C7    C49   A    
H38   O13   S    
C6    C11   A    
C25   C26   S    
C14   O9    S    
C41   H35   S    
C45   H51   S    
O19   Zn1   S    
C42   H41   S    
C43   C44   S    
C21   O13   S    
C44   H47   S    
C2    C49   A    
C44   H48   S    
C22   O23   A    
C47   C48   T    
H40   O15   S    
C39   O9    S    
C41   H32   S    
C36   O6    S    
H27   O8    S    
C40   H30   S    
C10   O6    S    
C34   C45   S    
C1    O12   A    
H17   O5    S    
H39   O14   S    
H16   O4    S    
C27   C46   T    
C40   C41   S    
C33   H11   S    
C22   C27   S    
C22   O24   A    
C3    H34   S    
C15   O10   S    
C42   C43   S    
O23   Zn1   S    
C39   C40   S    
H50   O18   S    
C4    C48   S    
H49   O17   S    
C30   H3    S    
C38   H22   S    
H53   O25   S    
C3    C5    A    
C19   N1    A    
C12   O2    S    
C36   H19   S    
C15   C17   A    
C6    C7    A    
C20   N1    A    
C12   C24   S    
C43   H43   S    
C34   O3    S    
C32   C33   S    
C2    C3    A    
C18   N2    A    
C44   H46   S    
O20   Zn2   S    
C5    C6    A    
O21   Zn1   S    
C41   H33   S    
C43   H44   S    
C38   H25   S    
C35   H13   S    
C31   H5    S    
C16   O22   A    
C13   O8    S    
C10   C11   A    
C20   C21   A    
C17   O11   S    
C32   O3    S    
C14   C15   A    
C29   O2    S    
C35   H14   S    
C26   O17   S    
C31   H6    S    
C37   H21   S    
C16   O21   A    
C21   N2    A    
C42   O16   S    
C38   H24   S    
