data_mof_unit_37892.cif
_audit_creation_date              2012-12-10T17:26:25-0500
_audit_creation_method            fapswitch 2.2
_symmetry_space_group_name_H-M    P1
_symmetry_Int_Tables_number       1
_space_group_crystal_system       triclinic
_cell_length_a                    10.447807
_cell_length_b                    10.789775
_cell_length_c                    27.737119
_cell_angle_alpha                 92.428541
_cell_angle_beta                  79.759107
_cell_angle_gamma                 96.042827
_cell_volume                      3058.98665587

loop_
_atom_site_label
_atom_site_type_symbol
_atom_type_description
_atom_site_fract_x
_atom_site_fract_y
_atom_site_fract_z
_atom_type_partial_charge
C1    C     C_R   0.556056 0.731624 0.497971 0.915435
C2    C     C_R   0.475398 0.617100 0.130151 -0.030989
C3    C     C_R   0.496140 0.498263 0.646865 -0.171133
C4    C     C_R   0.503859 0.501739 0.353135 -0.171138
C5    C     C_R   0.491048 0.613834 0.027066 0.017034
C6    C     C_R   0.508945 0.386173 0.972934 0.017034
C7    C     C_R   0.486452 0.384930 0.024917 0.044275
C8    C     C_R   0.513540 0.615077 0.975082 0.044275
C9    C     C_R   0.487763 0.500705 0.051355 0.034533
C10   C     C_R   0.512230 0.499302 0.948645 0.034533
C11   C     C_R   0.459075 0.720440 0.055769 -0.213649
C12   C     C_R   0.443944 0.268376 0.502029 0.915442
C13   C     C_R   0.540919 0.279567 0.944231 -0.213649
C14   C     C_R   0.456152 0.725858 0.106341 0.183854
C15   C     C_R   0.543845 0.274149 0.893659 0.183854
C16   C     C_R   0.497984 0.498945 0.593782 0.901535
C17   C     C_R   0.502016 0.501055 0.406218 0.901529
C18   C     C_R   0.542561 0.726898 0.947727 0.182085
C19   C     C_R   0.457429 0.273109 0.052272 0.182084
C20   C     C_2   0.590117 0.863608 0.493221 -0.342228
C21   C     C_2   0.409883 0.136392 0.506780 -0.342226
C22   C     C_2   0.502855 0.942096 0.512897 0.210380
C23   C     C_R   0.517535 0.496794 0.897254 -0.092288
C24   C     C_2   0.497145 0.057904 0.487103 0.210377
C25   C     C_2   0.928389 0.511602 0.503266 0.305637
C26   C     C_2   0.071611 0.488397 0.496734 0.305636
C27   C     C_R   0.509201 0.605564 0.823550 0.526121
C28   C     C_R   0.490790 0.394442 0.176450 0.526120
C29   C     C_R   0.517589 0.385047 0.819440 0.521839
C30   C     C_R   0.482410 0.614960 0.180560 0.521839
C31   C     C_R   0.386429 0.469957 0.730877 -0.184874
C32   C     C_R   0.613573 0.530027 0.269122 -0.184874
C33   C     C_R   0.380169 0.470506 0.681151 0.372907
C34   C     C_R   0.482459 0.503213 0.102746 -0.092288
C35   C     C_R   0.619835 0.529475 0.318847 0.372912
C36   C     C_R   0.615913 0.523376 0.663532 -0.256445
C37   C     C_R   0.384081 0.476648 0.336468 -0.256439
C38   C     C_R   0.622123 0.521499 0.713226 0.227797
C39   C     C_R   0.377871 0.478528 0.286774 0.227786
C40   C     C_R   0.506090 0.495263 0.746889 0.251744
C41   C     C_R   0.493908 0.504743 0.253110 0.251748
C42   C     C_3   0.119630 0.385562 0.461854 -0.851530
C43   C     C_3   0.880370 0.614437 0.538147 -0.851532
C44   C     C_3   0.132835 0.629278 0.563766 -0.577240
C45   C     C_R   0.516033 0.608916 0.873300 -0.062079
C46   C     C_3   0.867164 0.370720 0.436235 -0.577230
C47   C     C_3   0.751963 0.546518 0.730067 -0.817720
C48   C     C_3   0.248027 0.453529 0.269934 -0.817706
C49   C     C_3   0.428924 0.848055 0.132987 -0.759527
C50   C     C_3   0.571074 0.151953 0.867013 -0.759526
C51   C     C_3   0.607458 0.847616 0.965795 -0.951616
C52   C     C_3   0.392532 0.152391 0.034204 -0.951616
C53   C     C_3   0.588034 0.086957 0.438613 -0.845137
C54   C     C_3   0.411965 0.913042 0.561387 -0.845137
C55   C     C_R   0.483958 0.391090 0.126700 -0.062080
C56   C     C_R   0.530835 0.722706 0.898455 -0.144435
C57   C     C_R   0.469154 0.277301 0.101545 -0.144435
C58   C     C_R   0.524598 0.382907 0.869849 -0.030989
Cl1   Cl    Cl    0.774129 0.569998 0.335661 -0.608960
Cl2   Cl    Cl    0.225885 0.429952 0.664335 -0.608945
H1    H     H_    0.705362 0.544849 0.637768 0.177447
H2    H     H_    0.566837 0.199499 0.960980 0.172287
H3    H     H_    0.071316 0.294122 0.475310 0.217089
H4    H     H_    0.111871 0.404536 0.423842 0.202382
H5    H     H_    0.221448 0.374902 0.458019 0.292087
H6    H     H_    0.928685 0.705877 0.524690 0.217087
H7    H     H_    0.778552 0.625097 0.541981 0.292086
H8    H     H_    0.888128 0.595462 0.576158 0.202384
H9    H     H_    0.226809 0.658358 0.575859 0.252443
H10   H     H_    0.098854 0.719017 0.556524 0.174579
H11   H     H_    0.073081 0.575889 0.594612 0.221530
H12   H     H_    0.294629 0.455193 0.362233 0.177455
H13   H     H_    0.773191 0.341640 0.424142 0.252448
H14   H     H_    0.926919 0.424107 0.405388 0.221535
H15   H     H_    0.901144 0.280981 0.443477 0.174578
H16   H     H_    0.833869 0.562550 0.698743 0.240018
H17   H     H_    0.751943 0.630649 0.754509 0.251465
H18   H     H_    0.770051 0.465402 0.750353 0.250464
H19   H     H_    0.166120 0.437507 0.301259 0.240025
H20   H     H_    0.229952 0.534652 0.249649 0.250469
H21   H     H_    0.248033 0.369399 0.245492 0.251456
H22   H     H_    0.407925 0.918845 0.108275 0.200388
H23   H     H_    0.327100 0.108674 0.535038 0.150365
H24   H     H_    0.341959 0.833553 0.162394 0.264782
H25   H     H_    0.515582 0.888012 0.148511 0.276398
H26   H     H_    0.592072 0.081162 0.891726 0.200387
H27   H     H_    0.484418 0.111995 0.851488 0.276398
H28   H     H_    0.658041 0.166455 0.837607 0.264784
H29   H     H_    0.536651 0.918703 0.972747 0.233366
H30   H     H_    0.650991 0.835253 0.998711 0.261697
H31   H     H_    0.690367 0.883834 0.937402 0.250419
H32   H     H_    0.349001 0.164754 0.001288 0.261697
H33   H     H_    0.463338 0.081304 0.027253 0.233365
H34   H     H_    0.672900 0.891326 0.464962 0.150361
H35   H     H_    0.309622 0.116173 0.062598 0.250419
H36   H     H_    0.580296 0.006711 0.412524 0.240908
H37   H     H_    0.562082 0.168149 0.420354 0.233753
H38   H     H_    0.690548 0.105691 0.444706 0.236627
H39   H     H_    0.419703 0.993289 0.587476 0.240911
H40   H     H_    0.309451 0.894308 0.555294 0.236627
H41   H     H_    0.437917 0.831850 0.579646 0.233752
H42   H     H_    0.544192 0.809271 0.878818 0.195216
H43   H     H_    0.455796 0.190735 0.121182 0.195216
H44   H     H_    0.701930 0.551136 0.242598 0.179616
H45   H     H_    0.298076 0.448831 0.757400 0.179617
H46   H     H_    0.433157 0.800508 0.039021 0.172287
N1    N     N_R   0.509061 0.494920 0.798094 -0.342167
N2    N     N_R   0.490935 0.505087 0.201906 -0.342167
N3    N     N_2   0.842700 0.448890 0.480020 -0.067771
N4    N     N_2   0.157300 0.551110 0.519980 -0.067769
O1    O     O_R   0.431060 0.692470 0.504020 -0.593236
O2    O     O_2   0.496571 0.287953 0.199526 -0.553981
O3    O     O_2   0.481593 0.720477 0.208360 -0.550307
O4    O     O_2   0.518413 0.279531 0.791640 -0.550306
O5    O     O_R   0.568940 0.307530 0.495980 -0.593237
O6    O     O_R   0.651120 0.659650 0.491200 -0.616508
O7    O     O_R   0.348880 0.340350 0.508800 -0.616504
O8    O     O_R   0.389980 0.516390 0.577660 -0.568656
O9    O     O_R   0.610020 0.483610 0.422340 -0.568652
O10   O     O_R   0.610040 0.483570 0.564830 -0.636978
O11   O     O_R   0.389960 0.516430 0.435170 -0.636982
O12   O     O_2   0.503414 0.712052 0.800475 -0.553984
Zn1   Zn    Zn3+2 0.353060 0.521910 0.508560 0.968925
Zn2   Zn    Zn3+2 0.646940 0.478090 0.491440 0.968926

loop_
_geom_bond_atom_site_label_1
_geom_bond_atom_site_label_2
_ccdc_geom_bond_type
C23   C58   A    
C29   O4    S    
C23   C45   A    
C41   N2    S    
C54   H41   S    
C25   C43   S    
C39   C41   A    
O9    Zn2   S    
C48   H21   S    
C26   C42   S    
C44   H11   S    
C48   H19   S    
C47   H16   S    
C5    C11   A    
C16   O10   A    
C51   H30   S    
C11   C14   A    
C14   C49   S    
C3    C33   A    
C31   C40   A    
C52   H35   S    
C35   Cl1   S    
C15   C50   S    
C51   H31   S    
C19   C52   S    
C28   C55   A    
C13   H2    S    
C21   H23   S    
C45   C56   A    
C43   H8    S    
C42   H5    S    
C32   C41   A    
C31   C33   A    
C44   H10   S    
C1    O6    A    
C26   N4    D    
C25   N3    D    
C12   O5    A    
C2    C34   A    
C4    C35   A    
C34   C55   A    
C53   H36   S    
C31   H45   S    
C54   H40   S    
C19   C57   A    
C46   H15   S    
C27   O12   S    
C18   C51   S    
C57   H43   S    
O1    Zn1   S    
C32   C35   A    
C49   H25   S    
C44   H9    S    
C22   C54   S    
C17   O9    A    
C53   H37   S    
C25   C26   S    
C12   C21   S    
C8    C18   A    
C49   H22   S    
C5    C9    A    
C16   O8    A    
N4    Zn1   S    
C27   N1    A    
C11   H46   S    
C32   H44   S    
C21   C24   D    
C52   H33   S    
C29   C58   A    
C38   C47   S    
C50   H27   S    
C40   N1    S    
C4    C17   S    
C17   O11   A    
C20   C22   D    
C33   Cl2   S    
C7    C19   A    
C55   C57   A    
C9    C34   A    
C53   H38   S    
C15   C58   A    
C22   C24   S    
C54   H39   S    
C46   N3    S    
C47   H17   S    
C36   H1    S    
C42   H4    S    
C46   H14   S    
C49   H24   S    
C7    C9    A    
C20   H34   S    
C1    C20   S    
O5    Zn2   S    
O6    Zn2   S    
C30   N2    A    
C8    C10   A    
C6    C10   A    
C5    C8    A    
N3    Zn2   S    
C6    C7    A    
C18   C56   A    
C10   C23   A    
C2    C30   A    
C48   H20   S    
C13   C15   A    
C24   C53   S    
C56   H42   S    
C37   C39   A    
C1    O1    A    
C6    C13   A    
C38   C40   A    
C27   C45   A    
C3    C36   A    
C28   N2    A    
C43   H6    S    
C36   C38   A    
O8    Zn1   S    
O7    Zn1   S    
C2    C14   A    
O11   Zn1   S    
C52   H32   S    
C50   H26   S    
C12   O7    A    
C4    C37   A    
C43   H7    S    
C37   H12   S    
C29   N1    A    
C50   H28   S    
C47   H18   S    
C42   H3    S    
C28   O2    S    
C46   H13   S    
C51   H29   S    
C3    C16   S    
O10   Zn2   S    
C39   C48   S    
C30   O3    S    
C44   N4    S    
