data_mof_unit_59684.cif
_audit_creation_date              2012-12-10T17:43:33-0500
_audit_creation_method            fapswitch 2.2
_symmetry_space_group_name_H-M    P1
_symmetry_Int_Tables_number       1
_space_group_crystal_system       triclinic
_cell_length_a                    14.909842
_cell_length_b                    10.742558
_cell_length_c                    10.105315
_cell_angle_alpha                 89.295093
_cell_angle_beta                  88.851977
_cell_angle_gamma                 93.264045
_cell_volume                      1615.4700822

loop_
_atom_site_label
_atom_site_type_symbol
_atom_type_description
_atom_site_fract_x
_atom_site_fract_y
_atom_site_fract_z
_atom_type_partial_charge
C1    C     C_R   0.506915 0.261605 0.499880 0.970087
C2    C     C_R   0.911083 0.613530 0.480961 -0.084948
C3    C     C_R   0.941065 0.272044 0.529476 0.400247
C4    C     C_R   0.034275 0.269078 0.528202 0.384671
C5    C     C_R   0.088537 0.381266 0.508001 -0.046159
C6    C     C_R   0.046827 0.496311 0.490641 -0.128207
C7    C     C_R   0.098677 0.610230 0.472908 -0.064489
C8    C     C_R   0.056387 0.720369 0.437608 0.443493
C9    C     C_R   0.963189 0.722715 0.444198 0.298600
C10   C     C_R   0.182821 0.382658 0.506395 0.471746
C11   C     C_R   0.232334 0.498395 0.503200 -0.264059
C12   C     C_R   0.327938 0.500294 0.501122 0.848082
C13   C     C_R   0.191183 0.612272 0.491670 0.384353
C14   C     C_R   0.570792 0.104498 0.731275 0.416530
C15   C     C_R   0.566457 0.026922 0.845349 0.177240
C16   C     C_R   0.499125 0.929491 0.855885 0.114676
C17   C     C_R   0.455384 0.889291 0.739856 0.412756
C18   C     C_R   0.487265 0.941400 0.617966 -0.082878
C19   C     C_R   0.523700 0.063227 0.618539 -0.099412
C20   C     C_R   0.521603 0.130269 0.498527 -0.152982
C21   C     C_R   0.527689 0.065252 0.378435 0.279334
C22   C     C_R   0.534936 0.938463 0.386359 0.273206
C23   C     C_R   0.498454 0.739707 0.499877 0.932984
C24   C     C_R   0.500103 0.874129 0.499652 -0.186678
C25   C     C_R   0.352657 0.381395 0.140289 0.431090
C26   C     C_R   0.270297 0.365677 0.075630 0.095745
C27   C     C_R   0.270894 0.365487 0.938417 0.113816
C28   C     C_R   0.353778 0.380706 0.869974 0.421568
C29   C     C_R   0.427708 0.443951 0.931124 -0.071990
C30   C     C_R   0.427125 0.445144 0.074271 -0.044633
C31   C     C_R   0.571117 0.547304 0.066141 0.358515
C32   C     C_R   0.568656 0.554084 0.925538 0.429103
C33   C     C_R   0.672226 0.500302 0.498713 0.958847
C34   C     C_R   0.818070 0.613107 0.504375 0.252689
C35   C     C_R   0.767722 0.500171 0.495179 -0.169471
C36   C     C_R   0.808019 0.387073 0.481295 0.214917
C37   C     C_R   0.900290 0.384422 0.501286 -0.090893
C38   C     C_R   0.952925 0.498038 0.490917 -0.039822
N1    N     N_R   0.499150 0.498800 0.142780 -0.134011
N2    N     N_R   0.499120 0.498720 0.857170 -0.153811
O1    O     O_R   0.500000 0.316780 0.614690 -0.533190
O2    O     O_R   0.499990 0.316750 0.385360 -0.535266
O3    O     O_R   0.367850 0.499980 0.614680 -0.557109
O4    O     O_R   0.367840 0.499960 0.385350 -0.571590
O5    O     O_R   0.500010 0.683250 0.614640 -0.614970
O6    O     O_R   0.500000 0.683220 0.385310 -0.580754
O7    O     O_R   0.632160 0.500040 0.614650 -0.596993
O8    O     O_R   0.632150 0.500020 0.385320 -0.570059
Zn1   Zn    Zn3+2 0.500010 0.500020 0.653130 1.052316
Zn2   Zn    Zn3+2 0.499990 0.499980 0.346870 1.099143
Br1   Br    Br    0.759074 0.757331 0.569350 -0.333767
O9    O     O_3   0.631190 0.206631 0.719966 -0.706076
H1    H     H_    0.645907 0.236387 0.809733 0.367895
Br2   Br    Br    0.665669 0.033260 0.964047 -0.219889
Br3   Br    Br    0.474465 0.844378 0.021884 -0.418342
O10   O     O_3   0.384131 0.801065 0.740654 -0.716646
H2    H     H_    0.362236 0.784189 0.832351 0.372369
Br4   Br    Br    0.625988 0.872027 0.275263 -0.205307
Br5   Br    Br    0.683233 0.604122 0.139479 -0.233265
O11   O     O_3   0.365931 0.312923 0.252783 -0.684611
H3    H     H_    0.316913 0.247535 0.265930 0.371487
Br6   Br    Br    0.160466 0.324553 0.174222 -0.359260
Br7   Br    Br    0.161695 0.326859 0.845222 -0.362357
O12   O     O_3   0.367725 0.313896 0.757596 -0.706890
H4    H     H_    0.318414 0.249264 0.747121 0.362549
Br8   Br    Br    0.738510 0.242949 0.417875 -0.316783
O13   O     O_3   0.638318 0.618988 0.859517 -0.665188
H5    H     H_    0.613724 0.653982 0.778158 0.383917
O14   O     O_3   0.891822 0.165356 0.570445 -0.625425
H6    H     H_    0.842337 0.190853 0.629403 0.378488
Br9   Br    Br    0.079452 0.107180 0.568112 -0.141850
O15   O     O_3   0.224501 0.270605 0.505564 -0.702518
H7    H     H_    0.290557 0.282235 0.508277 0.343417
O16   O     O_3   0.238722 0.726658 0.501074 -0.694296
H8    H     H_    0.300802 0.716678 0.529722 0.358933
O17   O     O_3   0.104059 0.825363 0.388534 -0.617901
H9    H     H_    0.150394 0.797354 0.325559 0.374954
Br10  Br    Br    0.912607 0.868453 0.367769 -0.152081
Br11  Br    Br    0.532916 0.139215 0.202995 -0.312938

loop_
_geom_bond_atom_site_label_1
_geom_bond_atom_site_label_2
_ccdc_geom_bond_type
C8    C9    A    
C23   O5    A    
C35   C36   A    
C7    C8    A    
O7    Zn1   S    
C34   Br1   S    
C29   C30   A    
C18   C24   A    
C36   C37   A    
C3    O14   S    
C34   C35   A    
C12   O3    A    
C5    C6    A    
C36   Br8   S    
N2    Zn1   S    
C8    O17   S    
O10   H2    S    
C18   C19   A    
C31   Br5   S    
C14   O9    S    
C19   C20   A    
C16   C17   A    
C23   C24   S    
C6    C38   A    
C25   O11   S    
C2    C34   A    
O8    Zn2   S    
C23   O6    A    
C21   C22   A    
O1    Zn1   S    
O16   H8    S    
O13   H5    S    
C15   Br2   S    
O17   H9    S    
C4    C5    A    
C25   C26   A    
O11   H3    S    
C37   C38   A    
C2    C38   A    
C31   C32   A    
O5    Zn1   S    
C21   Br11  S    
C17   C18   A    
C26   C27   A    
C20   C21   A    
C17   O10   S    
C27   Br7   S    
O2    Zn2   S    
C32   O13   S    
C28   O12   S    
C1    O1    A    
C33   O7    A    
C22   C24   A    
C3    C4    A    
O9    H1    S    
O4    Zn2   S    
C25   C30   A    
C28   C29   A    
C1    C20   S    
C14   C19   A    
O3    Zn1   S    
O15   H7    S    
C22   Br4   S    
C11   C12   S    
C6    C7    A    
O6    Zn2   S    
O12   H4    S    
C26   Br6   S    
C16   Br3   S    
C5    C10   A    
C12   O4    A    
C11   C13   A    
C29   N2    A    
C33   C35   S    
C31   N1    A    
C30   N1    A    
C9    Br10  S    
C32   N2    A    
O14   H6    S    
C10   C11   A    
C1    O2    A    
C7    C13   A    
N1    Zn2   S    
C13   O16   S    
C3    C37   A    
C27   C28   A    
C33   O8    A    
C14   C15   A    
C2    C9    A    
C4    Br9   S    
C15   C16   A    
C10   O15   S    
