data_mof_unit_60706.cif
_audit_creation_date              2012-12-10T20:48:47-0500
_audit_creation_method            fapswitch 2.2
_symmetry_space_group_name_H-M    P1
_symmetry_Int_Tables_number       1
_space_group_crystal_system       triclinic
_cell_length_a                    15.77624
_cell_length_b                    8.886223
_cell_length_c                    8.30883
_cell_angle_alpha                 90.000063
_cell_angle_beta                  90.051604
_cell_angle_gamma                 90.000041
_cell_volume                      1164.82426569

loop_
_atom_site_label
_atom_site_type_symbol
_atom_type_description
_atom_site_fract_x
_atom_site_fract_y
_atom_site_fract_z
_atom_type_partial_charge
C1    C     C_R   0.500000 0.218893 0.500000 0.917866
C2    C     C_3   0.047260 0.408436 0.361328 -0.006228
C3    C     C_3   0.952739 0.408435 0.638672 -0.006229
C4    C     C_3   0.949979 0.434442 0.341542 -0.049207
C5    C     C_1   0.750025 0.502842 0.500247 -0.083696
C6    C     C_1   0.249975 0.502842 0.499753 -0.083696
C7    C     C_3   0.083562 0.509852 0.500532 -0.076944
C8    C     C_3   0.916438 0.509852 0.499468 -0.076943
C9    C     C_3   0.950325 0.677903 0.516494 0.241819
C10   C     C_3   0.049675 0.677903 0.483506 0.241819
C11   C     C_1   0.825115 0.505949 0.500346 0.084645
C12   C     C_1   0.174885 0.505949 0.499654 0.084646
C13   C     C_R   0.338539 0.500134 0.499929 0.881519
C14   C     C_R   0.661461 0.500135 0.500071 0.881519
C15   C     C_1   0.500000 0.934504 0.500000 -0.146078
C16   C     C_1   0.500000 0.065466 0.500000 -0.147931
C17   C     C_R   0.500000 0.781080 0.500000 0.922546
C18   C     C_3   0.050020 0.434442 0.658458 -0.049206
H1    H     H_    0.950345 0.291923 0.589572 0.129375
H2    H     H_    0.919346 0.322108 0.326632 0.161847
H3    H     H_    0.080654 0.322108 0.673368 0.161847
H4    H     H_    0.049655 0.291923 0.410428 0.129375
I1    I     I_    0.118383 0.853536 0.613626 -0.208672
I2    I     I_    0.088319 0.764065 0.250245 -0.124346
I3    I     I_    0.911681 0.764065 0.749755 -0.124346
I4    I     I_    0.881617 0.853537 0.386375 -0.208672
I5    I     I_    0.126172 0.303483 0.184208 -0.195257
I6    I     I_    0.093800 0.545537 0.868078 -0.132090
I7    I     I_    0.906200 0.545538 0.131922 -0.132090
I8    I     I_    0.873828 0.303484 0.815792 -0.195256
N1    N     N_1   0.500000 0.500030 0.073640 -0.012689
N2    N     N_1   0.500000 0.500030 0.926360 -0.012689
O1    O     O_R   0.500000 0.285340 0.636850 -0.609819
O2    O     O_R   0.500000 0.285340 0.363150 -0.609819
O3    O     O_R   0.377140 0.500000 0.636930 -0.604515
O4    O     O_R   0.377140 0.500000 0.363070 -0.600426
O5    O     O_R   0.622860 0.500000 0.636930 -0.600426
O6    O     O_R   0.622860 0.500000 0.363070 -0.604514
O7    O     O_R   0.500000 0.714650 0.636900 -0.608854
O8    O     O_R   0.500000 0.714650 0.363100 -0.608854
Zn1   Zn    Zn3+2 0.500000 0.499990 0.682780 1.040335
Zn2   Zn    Zn3+2 0.500000 0.499990 0.317220 1.040335

loop_
_geom_bond_atom_site_label_1
_geom_bond_atom_site_label_2
_ccdc_geom_bond_type
C2    H4    S    
C7    C10   S    
C2    C4    S    
N2    Zn1   S    
C3    H1    S    
C2    I5    S    
N1    Zn2   S    
C10   I1    S    
C3    I8    S    
C18   H3    S    
C9    C10   S    
O4    Zn2   S    
C4    I7    S    
O2    Zn2   S    
C4    C8    S    
C7    C18   S    
O1    Zn1   S    
O8    Zn2   S    
C9    I3    S    
O7    Zn1   S    
C1    C16   S    
C14   O5    A    
O5    Zn1   S    
C5    C14   S    
C13   O4    A    
C8    C11   S    
C9    I4    S    
C13   O3    A    
C5    C11   T    
C6    C12   T    
C7    C12   S    
O3    Zn1   S    
C14   O6    A    
C1    O1    A    
C15   C16   T    
C4    H2    S    
O6    Zn2   S    
C18   I6    S    
C1    O2    A    
C3    C18   S    
C3    C8    S    
C17   O7    A    
C15   C17   S    
C10   I2    S    
N1    N2    T    
C2    C7    S    
C8    C9    S    
C6    C13   S    
C17   O8    A    
