data_mof_unit_33302.cif
_audit_creation_date              2013-03-05T16:19:44-0500
_audit_creation_method            fapswitch 2.2
_symmetry_space_group_name_H-M    P1
_symmetry_Int_Tables_number       1
_space_group_crystal_system       triclinic
_cell_length_a                    10.620078
_cell_length_b                    9.676231
_cell_length_c                    27.613535
_cell_angle_alpha                 90.245796
_cell_angle_beta                  90.126872
_cell_angle_gamma                 89.868609
_cell_volume                      2837.59067217

loop_
_atom_site_label
_atom_site_type_symbol
_atom_site_description
_atom_site_fract_x
_atom_site_fract_y
_atom_site_fract_z
_atom_type_partial_charge
O1    O     O_R   0.314910 0.616040 0.499990 -0.636408
O2    O     O_R   0.314910 0.383960 0.499990 -0.635720
C1    C     C_R   0.257602 0.500456 0.500072 0.868079
O3    O     O_R   0.500140 0.616020 0.428740 -0.640078
O4    O     O_R   0.500140 0.383980 0.428740 -0.591776
C2    C     C_R   0.500576 0.499877 0.405742 0.928304
Zn1   Zn    Zn3+2 0.500150 0.654960 0.499980 0.902500
Zn2   Zn    Zn3+2 0.500150 0.345040 0.499980 0.922298
O5    O     O_R   0.685320 0.616040 0.499970 -0.652503
O6    O     O_R   0.685320 0.383960 0.499970 -0.609887
O7    O     O_R   0.500090 0.616050 0.571230 -0.610617
O8    O     O_R   0.500090 0.383950 0.571230 -0.628000
C3    C     C_R   0.742585 0.500003 0.499678 0.874187
C4    C     C_R   0.504313 0.500462 0.593914 0.867748
C5    C     C_R   0.433028 0.556913 0.176159 0.485938
O9    O     O_2   0.322889 0.568641 0.200208 -0.576597
N1    N     N_R   0.541453 0.530397 0.200970 -0.350162
C6    C     C_R   0.655652 0.522158 0.178520 0.509930
C7    C     C_R   0.494374 0.391609 0.273398 0.204972
C8    C     C_R   0.477906 0.385471 0.323934 0.160308
C9    C     C_R   0.552887 0.622952 0.330713 -0.286846
C10   C     C_R   0.564887 0.630098 0.280970 -0.149757
C11   C     C_R   0.535195 0.516053 0.252270 0.246801
C12   C     C_R   0.551743 0.561428 0.101471 -0.097324
C13   C     C_R   0.435656 0.570824 0.125957 0.003043
C14   C     C_R   0.324162 0.589191 0.099841 -0.168345
C15   C     C_R   0.664235 0.539484 0.127957 -0.068239
C16   C     C_R   0.509309 0.501771 0.352741 -0.111965
H1    H     H_    0.578080 0.713085 0.351993 0.168357
H2    H     H_    0.596495 0.725205 0.264447 0.148873
C17   C     C_R   0.521996 0.502935 0.646196 -0.115423
C18   C     C_R   0.446817 0.618795 0.973640 -0.000868
C19   C     C_R   0.666247 0.534478 0.974388 0.077529
C20   C     C_R   0.555420 0.571619 0.948698 0.031126
C21   C     C_R   0.347060 0.679679 0.946378 0.184223
C22   C     C_R   0.345363 0.665312 0.896052 -0.209337
C23   C     C_R   0.445289 0.602029 0.871712 -0.055597
C24   C     C_R   0.552606 0.559784 0.897705 -0.059054
C25   C     C_R   0.656582 0.504194 0.872671 -0.010349
C26   C     C_R   0.649570 0.488057 0.822364 0.504702
N2    N     N_R   0.543334 0.527447 0.798052 -0.350810
C27   C     C_R   0.442562 0.584713 0.821406 0.526555
C28   C     C_R   0.462005 0.416701 0.724736 -0.095653
C29   C     C_R   0.453482 0.410259 0.674618 -0.265377
C30   C     C_R   0.605195 0.599551 0.667895 0.196656
C31   C     C_R   0.611417 0.605158 0.718611 -0.127684
C32   C     C_R   0.539665 0.515144 0.746619 0.265317
O10   O     O_2   0.340620 0.625637 0.795877 -0.561058
C33   C     C_R   0.441974 0.600888 0.024501 0.053586
C34   C     C_R   0.554433 0.571486 0.050382 0.063443
C35   C     C_R   0.668558 0.547753 0.025430 0.017094
C36   C     C_R   0.327011 0.601923 0.049944 -0.190445
H3    H     H_    0.406865 0.346901 0.746665 0.148596
H4    H     H_    0.266821 0.707981 0.875888 0.189265
H5    H     H_    0.237077 0.605108 0.031747 0.171665
O11   O     O_2   0.759231 0.494898 0.205216 -0.537294
C37   C     C_R   0.780205 0.533669 0.102948 0.246584
C38   C     C_R   0.769622 0.480476 0.948231 -0.222435
C39   C     C_R   0.764425 0.465130 0.898270 -0.143623
O12   O     O_2   0.747625 0.433104 0.797864 -0.563124
C40   C     C_R   0.780803 0.535400 0.052398 -0.292996
H6    H     H_    0.854013 0.443270 0.965686 0.141620
H7    H     H_    0.845244 0.421369 0.879822 0.189590
H8    H     H_    0.671451 0.678468 0.737146 0.151329
C41   C     C_3   0.071672 0.652418 0.501540 -0.403747
C42   C     C_3   0.071975 0.421321 0.544249 -0.410687
H9    H     H_    0.104206 0.711588 0.469405 0.171991
H10   H     H_    0.101964 0.311167 0.542362 0.169320
H11   H     H_    0.107677 0.706280 0.534512 0.178526
H12   H     H_    0.112056 0.465859 0.578171 0.174419
C43   C     C_3   0.929125 0.651972 0.502566 -0.434375
C44   C     C_3   0.927537 0.429707 0.546119 -0.488734
H13   H     H_    0.892039 0.723492 0.474980 0.181958
H14   H     H_    0.886538 0.325477 0.551816 0.176017
C45   C     C_3   0.074699 0.433933 0.451729 -0.509971
C46   C     C_3   0.121396 0.501616 0.499532 0.138899
C47   C     C_3   0.878778 0.499952 0.498919 0.137200
C48   C     C_3   0.929504 0.416646 0.452649 0.457430
C49   C     C_3   0.382898 0.081878 0.520711 -0.237992
C50   C     C_3   0.382432 0.919212 0.520313 -0.232488
H15   H     H_    0.299229 0.120014 0.500450 0.145816
H16   H     H_    0.299426 0.882345 0.499366 0.143151
H17   H     H_    0.372739 0.120589 0.558499 0.149132
H18   H     H_    0.370593 0.880045 0.557841 0.155119
C51   C     C_3   0.508930 0.080633 0.449155 -0.228219
C52   C     C_3   0.510439 0.917979 0.449161 -0.240855
C53   C     C_3   0.607302 0.081421 0.527076 -0.239457
C54   C     C_3   0.606664 0.918784 0.527442 -0.241153
N3    N     N_3   0.499750 0.138610 0.498940 -0.034627
N4    N     N_3   0.499750 0.861390 0.498940 -0.031877
H19   H     H_    0.697582 0.118030 0.511438 0.167602
H20   H     H_    0.697311 0.879971 0.512543 0.144387
H21   H     H_    0.604218 0.121312 0.564891 0.154446
H22   H     H_    0.601635 0.881406 0.565400 0.177732
H23   H     H_    0.595233 0.119975 0.431209 0.163428
H24   H     H_    0.598851 0.880022 0.432055 0.140960
N5    N     N_2   0.465392 0.274302 0.244135 -0.312572
H25   H     H_    0.417714 0.296651 0.212585 0.249319
C55   C     C_3   0.570789 0.182201 0.236010 -0.802001
H26   H     H_    0.642954 0.233355 0.213265 0.268183
H27   H     H_    0.537602 0.087774 0.216946 0.244102
H28   H     H_    0.614130 0.150757 0.270935 0.239027
N6    N     N_2   0.897366 0.525782 0.127979 -0.251704
H29   H     H_    0.963808 0.465138 0.110778 0.213032
C56   C     C_3   0.947775 0.658855 0.142033 -0.687901
H30   H     H_    0.032973 0.643552 0.164767 0.257062
H31   H     H_    0.877682 0.718326 0.163542 0.253117
H32   H     H_    0.974096 0.718978 0.109380 0.205850
N7    N     N_2   0.682151 0.686342 0.638147 -0.300504
H33   H     H_    0.720832 0.638268 0.608269 0.217102
C57   C     C_3   0.762591 0.790093 0.659884 -0.821161
H34   H     H_    0.807747 0.851752 0.630896 0.229446
H35   H     H_    0.837736 0.740075 0.681743 0.254400
H36   H     H_    0.706129 0.861859 0.682667 0.255319
H37   H     H_    0.871632 0.531874 0.034975 0.139512
H38   H     H_    0.897896 0.699415 0.537411 0.173804
H39   H     H_    0.898838 0.490813 0.578542 0.178263
H40   H     H_    0.104121 0.499122 0.420669 0.160773
H41   H     H_    0.121357 0.331981 0.446048 0.169204
N8    N     N_2   0.874721 0.461994 0.406021 -0.296233
H42   H     H_    0.912238 0.409630 0.376774 0.249764
C58   C     C_3   0.858254 0.605982 0.393493 -0.855587
H43   H     H_    0.832336 0.614023 0.354591 0.258398
H44   H     H_    0.947046 0.664370 0.398693 0.240588
H45   H     H_    0.778456 0.651495 0.413786 0.253575
N9    N     N_2   0.900753 0.268384 0.459389 -0.300835
H46   H     H_    0.952471 0.219602 0.485931 0.215329
C59   C     C_3   0.883690 0.177523 0.417967 -0.860563
H47   H     H_    0.969935 0.176119 0.395272 0.239312
H48   H     H_    0.800673 0.210071 0.396293 0.262732
H49   H     H_    0.865240 0.070680 0.430692 0.227715
H50   H     H_    0.427710 0.117110 0.427287 0.169979
H51   H     H_    0.431535 0.878902 0.426388 0.152459
H52   H     H_    0.233577 0.590934 0.117762 0.182022
H53   H     H_    0.390744 0.335615 0.657991 0.157942
N10   N     N_2   0.254065 0.765907 0.968309 -0.326833
H54   H     H_    0.171099 0.774066 0.948995 0.224146
C60   C     C_3   0.300182 0.898828 0.984617 -0.758321
H55   H     H_    0.223231 0.955943 0.003161 0.236341
H56   H     H_    0.332748 0.960606 0.953219 0.241940
H57   H     H_    0.378997 0.885867 0.010721 0.255029
N11   N     N_2   0.422533 0.266532 0.345301 -0.303923
H58   H     H_    0.449379 0.173693 0.330053 0.240406
C61   C     C_3   0.287563 0.276829 0.351326 -0.775112
H59   H     H_    0.252484 0.184954 0.371060 0.218462
H60   H     H_    0.240320 0.281540 0.315413 0.258251
H61   H     H_    0.263085 0.370573 0.372635 0.233126

loop_
_geom_bond_atom_site_label_1
_geom_bond_atom_site_label_2
_geom_bond_distance
_ccdc_geom_bond_type
C38   H6    1.078548 S    
C42   H10   1.112782 S    
C53   C54   1.573825 S    
N9    H46   1.030360 S    
C26   O12   1.349935 S    
C53   H19   1.111720 S    
N2    C27   1.365861 A    
C48   N8    1.479611 S    
C21   C22   1.396085 A    
C35   C40   1.409248 A    
C12   C15   1.415470 A    
C4    C17   1.455524 S    
C50   H18   1.112421 S    
C59   H47   1.110956 S    
N5    H25   1.030199 S    
C7    N5    1.424334 S    
C42   H12   1.113551 S    
C30   C31   1.402672 A    
Zn1   O7    2.004755 S    
C56   H31   1.111356 S    
C19   C38   1.413394 A    
C41   C46   1.551477 S    
C22   C23   1.396263 A    
C23   C24   1.406408 A    
N7    C57   1.447207 S    
C51   H50   1.109666 S    
C51   C52   1.573924 S    
O4    C2    1.291171 A    
O7    C4    1.284906 A    
C30   N7    1.435299 S    
C5    C13   1.393682 A    
C5    O9    1.350642 S    
Zn1   O5    2.001407 S    
C23   C27   1.398720 A    
O5    C3    1.275701 A    
C28   H3    1.082885 S    
C2    C16   1.466884 S    
C54   H20   1.111671 S    
C42   C44   1.536873 S    
C41   H9    1.114087 S    
C44   H39   1.113521 S    
C40   H37   1.079285 S    
C36   H5    1.078674 S    
C6    O11   1.349001 S    
C29   H53   1.083704 S    
C25   C39   1.396794 A    
O1    Zn1   2.003834 S    
C9    C10   1.381791 A    
C45   H40   1.112597 S    
C61   H61   1.109794 S    
N5    C55   1.446474 S    
N8    C58   1.447139 S    
N1    C6    1.365291 A    
C3    C47   1.446576 S    
C12   C34   1.414874 A    
C37   N6    1.424064 S    
C56   H32   1.111732 S    
C54   H22   1.111710 S    
C17   C29   1.400409 A    
C18   C21   1.426045 A    
C8    N11   1.424407 S    
C45   H41   1.113609 S    
C12   C13   1.409967 A    
C61   H60   1.111451 S    
C15   C37   1.414228 A    
C25   C26   1.399066 A    
C43   H13   1.102829 S    
C51   N3    1.485876 S    
N10   H54   1.031973 S    
C27   O10   1.350147 S    
C8    C16   1.415355 A    
O3    Zn1   2.001360 S    
C38   C39   1.387907 A    
C47   C48   1.601451 S    
Zn1   N4    1.997790 S    
C9    H1    1.083277 S    
O6    C3    1.278266 A    
C31   H8    1.081277 S    
O1    C1    1.274531 A    
C18   C20   1.418238 A    
C7    C11   1.409911 A    
C45   C46   1.551916 S    
C44   C47   1.559456 S    
C14   H52   1.082873 S    
C14   C36   1.384264 A    
C52   H51   1.112506 S    
C55   H26   1.110570 S    
Zn2   O8    2.001582 S    
C33   C36   1.409959 A    
C42   C46   1.554598 S    
C34   C35   1.413328 A    
N2    C32   1.425147 S    
C57   H35   1.110879 S    
N1    C11   1.425653 S    
C1    C46   1.446578 S    
C52   H24   1.112880 S    
C44   H14   1.111395 S    
C26   N2    1.365935 A    
C55   H27   1.110273 S    
C9    C16   1.403195 A    
C54   N4    1.487360 S    
C53   N3    1.487068 S    
C28   C29   1.387843 A    
C52   N4    1.486480 S    
N6    C56   1.446778 S    
N11   C61   1.446533 S    
O3    C2    1.288476 A    
C58   H44   1.109131 S    
C48   N9    1.480049 S    
C59   H49   1.111325 S    
C43   C47   1.569060 S    
N8    H42   1.031827 S    
N10   C60   1.447014 S    
C49   H15   1.112120 S    
C5    N1    1.363019 A    
C31   C32   1.396027 A    
N9    C59   1.450985 S    
C10   H2    1.083267 S    
C57   H34   1.110760 S    
C20   C24   1.412512 A    
O2    Zn2   2.002137 S    
C6    C15   1.410127 A    
O8    C4    1.288198 A    
C61   H59   1.110247 S    
C60   H57   1.110643 S    
C59   H48   1.110267 S    
C21   N10   1.425779 S    
O4    Zn2   2.004535 S    
C37   C40   1.396082 A    
C60   H56   1.111495 S    
C19   C35   1.414920 A    
C56   H30   1.110131 S    
C39   H7    1.083473 S    
C7    C8    1.408298 A    
O2    C1    1.279819 A    
C13   C14   1.396449 A    
C41   C43   1.514197 S    
N7    H33   1.031090 S    
C49   H17   1.112519 S    
C51   H23   1.111655 S    
C24   C25   1.408548 A    
C58   H45   1.106528 S    
C41   H11   1.114510 S    
C53   H21   1.112216 S    
C50   H16   1.111913 S    
C19   C20   1.419240 A    
C43   H38   1.115114 S    
C57   H36   1.110675 S    
C50   N4    1.486918 S    
C45   C48   1.551686 S    
C18   C33   1.416896 A    
C49   N3    1.487297 S    
C22   H4    1.083775 S    
C60   H55   1.110347 S    
C49   C50   1.574002 S    
C55   H28   1.111056 S    
Zn2   O6    2.003104 S    
C33   C34   1.419333 A    
C17   C30   1.417889 A    
N6    H29   1.032013 S    
N11   H58   1.030385 S    
C10   C11   1.392224 A    
Zn2   N3    1.997563 S    
C58   H43   1.111336 S    
C28   C32   1.396133 A    
