data_mof_unit_12272.cif
_audit_creation_date              2012-12-10T17:45:31-0500
_audit_creation_method            fapswitch 2.2
_symmetry_space_group_name_H-M    P1
_symmetry_Int_Tables_number       1
_space_group_crystal_system       triclinic
_cell_length_a                    11.530667
_cell_length_b                    10.60665
_cell_length_c                    9.985644
_cell_angle_alpha                 91.345654
_cell_angle_beta                  89.281136
_cell_angle_gamma                 92.038036
_cell_volume                      1220.0687848

loop_
_atom_site_label
_atom_site_type_symbol
_atom_type_description
_atom_site_fract_x
_atom_site_fract_y
_atom_site_fract_z
_atom_type_partial_charge
C1    C     C_R   0.498567 0.260815 0.498852 0.867311
C2    C     C_R   0.190143 0.056970 0.623177 -0.111527
C3    C     C_R   0.192460 0.926270 0.631816 -0.121301
C4    C     C_R   0.292256 0.863250 0.593840 -0.173297
C5    C     C_R   0.392325 0.931174 0.548262 0.091918
C6    C     C_R   0.390796 0.062905 0.542557 0.084764
C7    C     C_R   0.491722 0.128165 0.496927 -0.097142
C8    C     C_R   0.589495 0.066837 0.451151 -0.201199
C9    C     C_R   0.590137 0.937963 0.453981 -0.206535
C10   C     C_R   0.493533 0.871498 0.503972 -0.087572
C11   C     C_R   0.312870 0.372599 0.132306 0.191480
C12   C     C_R   0.282239 0.499493 0.500658 0.849233
C13   C     C_R   0.209881 0.350523 0.059565 0.235630
C14   C     C_R   0.216797 0.343765 0.921230 -0.258715
C15   C     C_R   0.320943 0.374679 0.857730 -0.197978
C16   C     C_R   0.410689 0.439187 0.926780 0.131082
C17   C     C_R   0.409053 0.438848 0.070590 0.084570
C18   C     C_R   0.585954 0.558488 0.071586 -0.092941
C19   C     C_R   0.585802 0.558623 0.929036 -0.091680
C20   C     C_R   0.499082 0.739167 0.501343 0.855377
C21   C     C_R   0.717780 0.500121 0.499318 0.891811
C22   C     C_1   0.161667 0.498790 0.501695 -0.181961
C23   C     C_1   0.059404 0.498511 0.500827 0.032617
C24   C     C_1   0.940656 0.498769 0.499011 0.028725
C25   C     C_1   0.838387 0.499360 0.498209 -0.172145
C26   C     C_R   0.288012 0.125058 0.577899 -0.192621
H1    H     H_    0.665677 0.119113 0.415022 0.160412
H2    H     H_    0.144600 0.304637 0.863580 0.190425
H3    H     H_    0.330475 0.344235 0.756180 0.215190
H4    H     H_    0.656024 0.607108 0.876290 0.149194
H5    H     H_    0.281676 0.225747 0.567851 0.112424
H6    H     H_    0.112029 0.105630 0.650414 0.142712
H7    H     H_    0.116243 0.873373 0.666302 0.143166
H8    H     H_    0.289800 0.761567 0.599410 0.145469
H9    H     H_    0.666447 0.889746 0.418626 0.149682
H10   H     H_    0.656260 0.606758 0.124776 0.150147
N1    N     N_R   0.498930 0.498800 0.142780 -0.104887
N2    N     N_R   0.498900 0.498720 0.857170 -0.107152
O1    O     O_R   0.500000 0.316780 0.614690 -0.628853
O2    O     O_R   0.499990 0.316750 0.385360 -0.582668
O3    O     O_R   0.334450 0.500030 0.614670 -0.638959
O4    O     O_R   0.334440 0.500000 0.385330 -0.599766
O5    O     O_R   0.500010 0.683250 0.614640 -0.612270
O6    O     O_R   0.500000 0.683220 0.385310 -0.608383
O7    O     O_R   0.665560 0.500000 0.614670 -0.611055
O8    O     O_R   0.665550 0.499970 0.385330 -0.607073
Zn1   Zn    Zn3+2 0.500010 0.500020 0.653130 0.945748
Zn2   Zn    Zn3+2 0.499990 0.499980 0.346870 0.970431
N3    N     N_2   0.331987 0.285747 0.234407 -0.245237
H11   H     H_    0.264641 0.276234 0.302729 0.248411
C27   C     C_3   0.369135 0.164301 0.182843 -0.706387
H12   H     H_    0.377000 0.097873 0.265668 0.238879
H13   H     H_    0.454839 0.175270 0.131601 0.243809
H14   H     H_    0.304697 0.121802 0.111661 0.243739
Br1   Br    Br    0.069151 0.288772 0.143762 -0.555053

loop_
_geom_bond_atom_site_label_1
_geom_bond_atom_site_label_2
_ccdc_geom_bond_type
C12   O4    A    
C23   C24   S    
C6    C7    A    
C11   N3    S    
C19   N2    A    
C9    C10   A    
C27   H14   S    
C14   H2    S    
C2    C3    A    
O3    Zn1   S    
C26   H5    S    
C2    C26   A    
C17   N1    A    
C13   C14   A    
N1    Zn2   S    
C11   C13   A    
C18   H10   S    
N2    Zn1   S    
C6    C26   A    
C21   C25   S    
O1    Zn1   S    
C20   O6    A    
C18   N1    A    
C15   H3    S    
C21   O7    A    
O7    Zn1   S    
C5    C6    A    
C4    H8    S    
C7    C8    A    
C3    H7    S    
C27   H13   S    
C9    H9    S    
C15   C16   A    
C21   O8    A    
O8    Zn2   S    
C12   C22   S    
C5    C10   A    
C20   O5    A    
C27   H12   S    
C24   C25   T    
C12   O3    A    
C2    H6    S    
C18   C19   A    
C10   C20   S    
N3    H11   S    
C8    H1    S    
C1    O1    A    
O2    Zn2   S    
C4    C5    A    
C1    C7    S    
O4    Zn2   S    
C1    O2    A    
C13   Br1   S    
C14   C15   A    
C19   H4    S    
O5    Zn1   S    
C22   C23   T    
C11   C17   A    
C3    C4    A    
O6    Zn2   S    
C16   C17   A    
C16   N2    A    
C8    C9    A    
N3    C27   S    
