data_mof_unit_23343.cif
_audit_creation_date              2012-12-10T21:29:43-0500
_audit_creation_method            fapswitch 2.2
_symmetry_space_group_name_H-M    P1
_symmetry_Int_Tables_number       1
_space_group_crystal_system       triclinic
_cell_length_a                    10.624704
_cell_length_b                    16.043345
_cell_length_c                    16.870302
_cell_angle_alpha                 87.990385
_cell_angle_beta                  90.142415
_cell_angle_gamma                 93.381559
_cell_volume                      2868.86798877

loop_
_atom_site_label
_atom_site_type_symbol
_atom_type_description
_atom_site_fract_x
_atom_site_fract_y
_atom_site_fract_z
_atom_type_partial_charge
C1    C     C_R   0.496364 0.489035 0.652996 0.874448
C2    C     C_R   0.434163 0.526513 0.099321 0.321438
C3    C     C_R   0.452605 0.399719 0.859770 -0.179352
C4    C     C_R   0.464311 0.599286 0.140075 -0.172918
C5    C     C_R   0.476310 0.404924 0.778790 -0.206471
C6    C     C_R   0.486964 0.594775 0.221187 -0.199836
C7    C     C_R   0.426436 0.757969 0.468197 -0.094957
C8    C     C_R   0.573542 0.242028 0.531809 -0.117590
C9    C     C_R   0.418707 0.844975 0.472484 0.264007
C10   C     C_R   0.581353 0.155038 0.527458 0.260288
C11   C     C_R   0.508327 0.890476 0.519317 0.214713
C12   C     C_R   0.497788 0.510903 0.346988 0.875136
C13   C     C_R   0.491733 0.109545 0.480594 0.233320
C14   C     C_R   0.598306 0.845929 0.561491 -0.281575
C15   C     C_R   0.401801 0.154109 0.438391 -0.282070
C16   C     C_R   0.740102 0.501769 0.488399 0.900263
C17   C     C_R   0.260269 0.498163 0.512294 0.897301
C18   C     C_R   0.600722 0.759092 0.555789 -0.071976
C19   C     C_R   0.399354 0.240938 0.444137 -0.069262
C20   C     C_R   0.875756 0.357570 0.435891 -0.154968
C21   C     C_R   0.125328 0.641725 0.566773 -0.143140
C22   C     C_R   0.925008 0.279210 0.445118 -0.086772
C23   C     C_R   0.476214 0.482532 0.738004 -0.038200
C24   C     C_R   0.076093 0.720113 0.558099 -0.106168
C25   C     C_R   0.032494 0.269835 0.490915 -0.080561
C26   C     C_R   0.968551 0.729801 0.512429 -0.083516
C27   C     C_R   0.095768 0.339846 0.522256 -0.147468
C28   C     C_R   0.905168 0.660026 0.480685 -0.137285
C29   C     C_R   0.052629 0.420902 0.507368 0.084645
C30   C     C_R   0.948022 0.578810 0.495207 0.081849
C31   C     C_R   0.934155 0.428015 0.472542 0.088408
C32   C     C_R   0.066550 0.571550 0.529945 0.089094
C33   C     C_R   0.124449 0.494996 0.525309 -0.249559
C34   C     C_R   0.479362 0.516938 0.261822 -0.040741
C35   C     C_R   0.876273 0.504736 0.476726 -0.250558
C36   C     C_R   0.448443 0.554178 0.778077 -0.233238
C37   C     C_R   0.445687 0.444203 0.221378 -0.223285
C38   C     C_R   0.424157 0.548896 0.858452 -0.153699
C39   C     C_R   0.422388 0.448766 0.140926 -0.154923
C40   C     C_R   0.429041 0.471597 0.900253 0.325001
H1    H     H_    0.933254 0.791225 0.502371 0.170339
H2    H     H_    0.123422 0.773664 0.584957 0.136397
H3    H     H_    0.177082 0.329670 0.559287 0.164175
H4    H     H_    0.824239 0.670641 0.443470 0.164967
H5    H     H_    0.436619 0.383553 0.251819 0.169689
H6    H     H_    0.444862 0.614465 0.747399 0.167750
H7    H     H_    0.397686 0.391227 0.111378 0.156638
H8    H     H_    0.404235 0.605578 0.887852 0.155785
H9    H     H_    0.456371 0.340098 0.891610 0.148791
H10   H     H_    0.473570 0.659243 0.108408 0.152716
H11   H     H_    0.495806 0.348722 0.748416 0.167298
H12   H     H_    0.067956 0.208501 0.501260 0.175899
H13   H     H_    0.511172 0.651753 0.251808 0.174450
H14   H     H_    0.640862 0.277959 0.566973 0.193340
H15   H     H_    0.359031 0.722043 0.433082 0.195564
H16   H     H_    0.610672 0.092570 0.688418 0.348347
H17   H     H_    0.201374 0.925555 0.531933 0.343104
H18   H     H_    0.666181 0.878519 0.599104 0.225581
H19   H     H_    0.334011 0.121533 0.400707 0.224344
H20   H     H_    0.669677 0.725205 0.589037 0.158302
H21   H     H_    0.330464 0.274849 0.410849 0.154807
H22   H     H_    0.792129 0.362765 0.399686 0.154705
H23   H     H_    0.209349 0.636240 0.602582 0.147496
H24   H     H_    0.877813 0.225440 0.418519 0.170387
N1    N     N_2   0.421723 0.464728 0.983538 -0.201468
N2    N     N_2   0.427123 0.533335 0.016013 -0.200353
N3    N     N_R   0.515300 0.716920 0.509720 -0.116590
N4    N     N_R   0.484700 0.283080 0.490280 -0.111862
N5    N     N_2   0.505608 0.978289 0.531082 -0.069961
N6    N     N_2   0.494462 0.021735 0.468794 -0.052784
O1    O     O_R   0.494530 0.422540 0.612660 -0.623124
O2    O     O_2   0.806117 0.172983 0.601968 -0.310061
O3    O     O_3   0.654288 0.052229 0.656684 -0.530085
O4    O     O_2   0.340031 0.938943 0.350415 -0.249710
O5    O     O_2   0.192106 0.827132 0.400337 -0.303419
O6    O     O_3   0.227063 0.959465 0.483855 -0.526733
O7    O     O_R   0.505470 0.577460 0.387340 -0.620158
O8    O     O_R   0.504350 0.561840 0.618900 -0.624283
O9    O     O_R   0.495650 0.438160 0.381100 -0.624224
O10   O     O_R   0.678310 0.430340 0.496890 -0.614512
O11   O     O_R   0.321690 0.569660 0.503110 -0.617521
O12   O     O_R   0.688140 0.569650 0.503130 -0.621298
O13   O     O_R   0.311860 0.430350 0.496870 -0.622776
O14   O     O_2   0.768469 0.050405 0.521049 -0.258553
S1    S     S_3+6 0.708329 0.107889 0.576250 0.016390
S2    S     S_3+6 0.291610 0.892127 0.423892 0.023866
Zn1   Zn    Zn3+2 0.493440 0.406980 0.495830 0.943520
Zn2   Zn    Zn3+2 0.506560 0.593020 0.504170 0.945008

loop_
_geom_bond_atom_site_label_1
_geom_bond_atom_site_label_2
_ccdc_geom_bond_type
O13   Zn1   S    
C10   S1    S    
C27   C29   A    
C34   C37   A    
C24   H2    S    
C14   C18   A    
C7    H15   S    
O9    Zn1   S    
O2    S1    D    
C3    H9    S    
C15   C19   A    
N3    Zn2   S    
C1    O1    A    
C30   C35   A    
H17   O6    S    
C24   C26   A    
O10   Zn1   S    
C16   C35   S    
C11   C14   A    
C13   N6    S    
C12   O9    A    
C29   C33   A    
C2    C39   A    
O7    Zn2   S    
C22   C25   A    
C36   H6    S    
C30   C32   A    
C38   H8    S    
C1    O8    A    
C17   C33   S    
C14   H18   S    
C21   C32   A    
O14   S1    D    
C4    C6    A    
C8    H14   S    
C3    C5    A    
C18   N3    A    
C7    N3    A    
C28   H4    S    
C6    C34   A    
C4    H10   S    
C17   O13   A    
C2    C4    A    
C9    S2    S    
O5    S2    D    
C5    C23   A    
C12   O7    A    
C16   O12   A    
C19   N4    A    
O4    S2    D    
C9    C11   A    
O3    S1    S    
O1    Zn1   S    
C18   H20   S    
C20   C22   A    
C3    C40   A    
C8    N4    A    
C40   N1    S    
C13   C15   A    
C31   C35   A    
C6    H13   S    
C12   C34   S    
O6    S2    S    
C39   H7    S    
O8    Zn2   S    
C7    C9    A    
H16   O3    S    
C15   H19   S    
C8    C10   A    
C2    N2    S    
C10   C13   A    
C11   N5    S    
C1    C23   S    
C25   C27   A    
C26   C28   A    
C32   C33   A    
C36   C38   A    
C25   H12   S    
C29   C31   A    
C38   C40   A    
C19   H21   S    
O12   Zn2   S    
C28   C30   A    
C17   O11   A    
N1    N2    D    
C20   H22   S    
N5    N6    D    
C21   H23   S    
O11   Zn2   S    
C22   H24   S    
C27   H3    S    
C37   C39   A    
C23   C36   A    
C21   C24   A    
N4    Zn1   S    
C5    H11   S    
C16   O10   A    
C37   H5    S    
C26   H1    S    
C20   C31   A    
