data_mof_unit_42676.cif
_audit_creation_date              2012-10-26T19:36:22-0400
_audit_creation_method            fapswitch 2.2
_symmetry_space_group_name_H-M    P1
_symmetry_Int_Tables_number       1
_space_group_crystal_system       triclinic
_cell_length_a                    10.798064
_cell_length_b                    15.977958
_cell_length_c                    14.751235
_cell_angle_alpha                 89.999938
_cell_angle_beta                  89.645266
_cell_angle_gamma                 89.833118
_cell_volume                      2544.98594501

loop_
_atom_site_label
_atom_site_type_symbol
_atom_type_description
_atom_site_fract_x
_atom_site_fract_y
_atom_site_fract_z
_atom_type_partial_charge
C1    C     C_R   0.500038 0.340851 0.499978 0.569556
C2    C     C_R   0.502401 0.087338 0.500890 0.033547
C3    C     C_R   0.589811 0.956215 0.448904 -0.115435
C4    C     C_R   0.415431 0.044017 0.553488 -0.116365
C5    C     C_1   0.501536 0.823399 0.500621 -0.068314
C6    C     C_1   0.501643 0.176747 0.500296 -0.076194
C7    C     C_1   0.500795 0.251788 0.500007 -0.019969
C8    C     C_1   0.500815 0.748320 0.500202 -0.008950
C9    C     C_R   0.485601 0.574760 0.952172 -0.119657
C10   C     C_R   0.515405 0.425065 0.047841 -0.119804
C11   C     C_R   0.500644 0.499916 0.902869 0.002024
C12   C     C_R   0.500153 0.659185 0.500038 0.578581
C13   C     C_R   0.499876 0.499884 0.097136 0.002129
C14   C     C_R   0.515559 0.425051 0.951998 -0.125050
C15   C     C_R   0.484696 0.574706 0.048006 -0.120154
C16   C     C_R   0.261746 0.501911 0.500122 0.569142
C17   C     C_R   0.738174 0.497801 0.499761 0.572410
C18   C     C_1   0.500272 0.499947 0.802750 0.125597
C19   C     C_1   0.499874 0.499933 0.197254 0.118689
C20   C     C_R   0.254160 0.716404 0.321188 -0.091094
C21   C     C_R   0.751467 0.273278 0.664991 -0.105819
C22   C     C_R   0.188002 0.671117 0.386687 0.271533
C23   C     C_R   0.871795 0.495817 0.499201 0.023564
C24   C     C_R   0.819755 0.322071 0.603398 0.256985
C25   C     C_R   0.123705 0.597811 0.361257 0.049149
C26   C     C_R   0.875582 0.396836 0.633380 0.072604
C27   C     C_R   0.120450 0.574256 0.268935 0.261433
C28   C     C_R   0.871348 0.418744 0.725986 0.261744
C29   C     C_R   0.182165 0.623077 0.203978 -0.108177
C30   C     C_R   0.801580 0.368698 0.786399 -0.125652
C31   C     C_R   0.250526 0.692813 0.230237 -0.203851
C32   C     C_R   0.742527 0.296623 0.755800 -0.193688
C33   C     C_R   0.933748 0.540612 0.431504 -0.140229
C34   C     C_R   0.128027 0.503480 0.500121 0.003907
C35   C     C_R   0.065928 0.458496 0.567722 -0.145035
C36   C     C_3   0.083810 0.740929 0.499447 0.005812
C37   C     C_3   0.097837 0.834239 0.477531 -0.273815
C38   C     C_3   0.987090 0.884732 0.512220 -0.484095
C39   C     C_3   0.894807 0.228919 0.497305 0.003172
C40   C     C_3   0.032759 0.250913 0.490155 -0.269673
C41   C     C_3   0.110609 0.174777 0.463657 -0.485490
C42   C     C_3   0.125034 0.432870 0.242258 0.012911
C43   C     C_3   0.168809 0.411258 0.146116 -0.271426
C44   C     C_3   0.240025 0.328674 0.144295 -0.484234
C45   C     C_R   0.937817 0.452685 0.566888 0.041216
C46   C     C_3   0.993746 0.482781 0.833959 0.000228
C47   C     C_3   0.087840 0.553534 0.841949 -0.247609
C48   C     C_3   0.158713 0.547948 0.930928 -0.492090
C49   C     C_R   0.061928 0.545295 0.431247 0.000041
C50   C     C_R   0.415789 0.956734 0.553931 -0.112204
C51   C     C_R   0.589946 0.043544 0.448888 -0.110495
C52   C     C_R   0.502424 0.912871 0.501183 0.033889
Cu1   Cu    Cu3+1 0.500040 0.500000 0.589220 1.009544
Cu2   Cu    Cu3+1 0.499960 0.500000 0.410780 0.992239
H1    H     H_    0.299925 0.729131 0.179815 0.113536
H2    H     H_    0.117599 0.424764 0.618987 0.118474
H3    H     H_    0.347651 0.077658 0.594023 0.102360
H4    H     H_    0.657476 0.922573 0.408276 0.100855
H5    H     H_    0.348822 0.923564 0.595306 0.104347
H6    H     H_    0.657780 0.076841 0.408326 0.102611
H7    H     H_    0.472257 0.633343 0.083795 0.104569
H8    H     H_    0.527497 0.366367 0.916197 0.100601
H9    H     H_    0.069289 0.733885 0.573678 0.163772
H10   H     H_    0.999037 0.715596 0.466547 0.116397
H11   H     H_    0.183533 0.858325 0.509305 0.172915
H12   H     H_    0.688459 0.259166 0.802549 0.115602
H13   H     H_    0.105625 0.842994 0.403029 0.152885
H14   H     H_    0.900372 0.862331 0.480265 0.147952
H15   H     H_    0.999904 0.951813 0.494906 0.141220
H16   H     H_    0.978700 0.878899 0.587040 0.148535
H17   H     H_    0.865131 0.201258 0.431874 0.153037
H18   H     H_    0.879765 0.179629 0.549670 0.112564
H19   H     H_    0.046003 0.300882 0.438562 0.171911
H20   H     H_    0.065681 0.274579 0.556545 0.145976
H21   H     H_    0.100166 0.124440 0.515075 0.142608
H22   H     H_    0.209752 0.192788 0.459696 0.152823
H23   H     H_    0.473718 0.633448 0.916493 0.106953
H24   H     H_    0.081776 0.150710 0.396396 0.143918
H25   H     H_    0.066148 0.380988 0.267899 0.152637
H26   H     H_    0.206112 0.436260 0.288594 0.150164
H27   H     H_    0.087470 0.406513 0.100601 0.170432
H28   H     H_    0.230294 0.461453 0.120131 0.162794
H29   H     H_    0.322779 0.332549 0.188465 0.154862
H30   H     H_    0.271132 0.315099 0.073910 0.145032
H31   H     H_    0.179857 0.276695 0.167939 0.144399
H32   H     H_    0.045097 0.422023 0.834977 0.116603
H33   H     H_    0.929644 0.486325 0.893148 0.141615
H34   H     H_    0.527338 0.366385 0.083519 0.105559
H35   H     H_    0.154470 0.550167 0.784268 0.180929
H36   H     H_    0.038847 0.614754 0.838950 0.177694
H37   H     H_    0.093392 0.549739 0.989344 0.149841
H38   H     H_    0.222633 0.601933 0.936412 0.148456
H39   H     H_    0.213578 0.489078 0.933556 0.155820
H40   H     H_    0.307013 0.770875 0.340841 0.127246
H41   H     H_    0.703528 0.217850 0.642053 0.121575
H42   H     H_    0.177912 0.606658 0.132977 0.119973
H43   H     H_    0.790228 0.386091 0.856802 0.108628
H44   H     H_    0.881948 0.574442 0.380386 0.141889
N1    N     N_1   0.500040 0.499980 0.276710 -0.199508
N2    N     N_1   0.499960 0.500020 0.723290 -0.193356
O1    O     O_R   0.500060 0.380310 0.575320 -0.495687
O2    O     O_3   0.822406 0.301767 0.512044 -0.577465
O3    O     O_3   0.051247 0.506272 0.241216 -0.576071
O4    O     O_3   0.926211 0.493271 0.752913 -0.564966
O5    O     O_R   0.499940 0.619690 0.424680 -0.492876
O6    O     O_R   0.500000 0.380310 0.424640 -0.491786
O7    O     O_R   0.500000 0.619690 0.575360 -0.485228
O8    O     O_R   0.319670 0.500010 0.575340 -0.498286
O9    O     O_R   0.680330 0.499990 0.424660 -0.491035
O10   O     O_R   0.319610 0.500010 0.424650 -0.517925
O11   O     O_R   0.680390 0.499990 0.575350 -0.486146
O12   O     O_3   0.193079 0.696350 0.476313 -0.579311

loop_
_geom_bond_atom_site_label_1
_geom_bond_atom_site_label_2
_ccdc_geom_bond_type
C38   H16   S    
C11   C18   S    
C42   H26   S    
C23   C45   A    
C27   C29   A    
C44   H29   S    
C42   O3    S    
C16   O10   A    
Cu1   Cu2   S    
C30   H43   S    
C10   H34   S    
C17   C23   S    
C50   H5    S    
C36   C37   S    
C24   C26   A    
C34   C35   A    
C12   O5    A    
C11   C14   A    
C41   H21   S    
C33   C49   A    
C14   H8    S    
C40   H19   S    
Cu2   O10   S    
C33   H44   S    
Cu1   O7    S    
C26   C45   S    
C16   C34   S    
Cu1   O1    S    
C23   C33   A    
C22   C25   A    
C37   H11   S    
C4    H3    S    
C36   O12   S    
C50   C52   A    
C39   H18   S    
C5    C52   S    
C36   H9    S    
C1    O6    A    
Cu1   O11   S    
C38   H15   S    
C42   H25   S    
C47   H35   S    
C2    C6    S    
C18   N2    T    
C17   O11   A    
Cu1   N2    S    
C21   C32   A    
C48   H39   S    
C13   C19   S    
C10   C14   A    
C39   C40   S    
Cu2   O6    S    
C21   H41   S    
C46   O4    S    
C48   H37   S    
Cu2   O9    S    
C4    C50   A    
C2    C4    A    
C43   C44   S    
C37   C38   S    
C12   O7    A    
C28   O4    S    
C47   C48   S    
C8    C12   S    
C15   H7    S    
C9    H23   S    
C9    C11   A    
C40   C41   S    
C38   H14   S    
C22   O12   S    
C13   C15   A    
C43   H27   S    
C47   H36   S    
Cu2   N1    S    
C5    C8    T    
C42   C43   S    
C44   H31   S    
C35   C45   A    
C1    O1    A    
C41   H24   S    
C39   O2    S    
C32   H12   S    
C46   H33   S    
C40   H20   S    
C20   H40   S    
C46   C47   S    
C34   C49   A    
C19   N1    T    
Cu2   O5    S    
C35   H2    S    
C1    C7    S    
C20   C22   A    
C44   H30   S    
C10   C13   A    
C17   O9    A    
C29   H42   S    
C3    C52   A    
C6    C7    T    
C25   C27   A    
C26   C28   A    
C28   C30   A    
C9    C15   A    
C29   C31   A    
C41   H22   S    
C30   C32   A    
Cu1   O8    S    
C37   H13   S    
C27   O3    S    
C3    C51   A    
C24   O2    S    
C25   C49   S    
C2    C51   A    
C16   O8    A    
C3    H4    S    
C48   H38   S    
C21   C24   A    
C43   H28   S    
C39   H17   S    
C51   H6    S    
C31   H1    S    
C36   H10   S    
C46   H32   S    
C20   C31   A    
