data_mof_unit_21912.cif
_audit_creation_date              2012-12-11T14:17:44-0500
_audit_creation_method            fapswitch 2.2
_symmetry_space_group_name_H-M    P1
_symmetry_Int_Tables_number       1
_space_group_crystal_system       triclinic
_cell_length_a                    6.942745
_cell_length_b                    13.631886
_cell_length_c                    20.463183
_cell_angle_alpha                 102.187018
_cell_angle_beta                  89.889268
_cell_angle_gamma                 90.585086
_cell_volume                      1892.94655847

loop_
_atom_site_label
_atom_site_type_symbol
_atom_type_description
_atom_site_fract_x
_atom_site_fract_y
_atom_site_fract_z
_atom_type_partial_charge
O1    O     O_R   0.506860 0.599390 0.449240 -0.538729
O2    O     O_R   0.180220 0.594600 0.586780 -0.506162
O3    O     O_R   0.004500 0.400610 0.550760 -0.540717
C1    C     C_R   0.348172 0.613390 0.614359 0.750680
O4    O     O_R   0.177490 0.611290 0.451970 -0.540342
O5    O     O_R   0.001750 0.417420 0.414990 -0.542209
C2    C     C_R   0.346769 0.637356 0.434637 0.684119
O6    O     O_R   0.509610 0.582580 0.585010 -0.544038
O7    O     O_3   0.337420 0.436370 0.488020 -0.380368
V1    V     V_3+5 0.064680 0.511800 0.502220 1.488545
O8    O     O_R   0.671710 0.405400 0.413220 -0.547563
C3    C     C_R   0.840097 0.382762 0.387202 0.706796
O9    O     O_R   0.674440 0.388710 0.548030 -0.542298
C4    C     C_R   0.842586 0.362403 0.564810 0.689749
V2    V     V_3+5 0.564010 0.488200 0.497780 1.447805
O10   O     O_3   0.841140 0.563630 0.511980 -0.359089
C5    C     C_R   0.844967 0.113270 0.612724 -0.114010
H1    H     H_    0.821751 0.164633 0.521331 0.123923
H2    H     H_    0.888784 0.987542 0.691896 0.139251
H3    H     H_    0.843666 0.035114 0.586998 0.148224
C6    C     C_R   0.848704 0.287905 0.606499 -0.120873
C7    C     C_R   0.822336 0.315358 0.929005 0.245193
C8    C     C_R   0.775071 0.386383 0.891882 0.441122
C9    C     C_R   0.774500 0.360441 0.822343 -0.252188
C10   C     C_R   0.835053 0.265153 0.787296 -0.019259
C11   C     C_R   0.865641 0.188689 0.824169 -0.015006
C12   C     C_R   0.850678 0.242110 0.716078 0.083957
C13   C     C_R   0.856399 0.140024 0.682559 0.031463
C14   C     C_R   0.877895 0.064987 0.718606 -0.240816
C15   C     C_R   0.893289 0.087953 0.788423 0.337407
C16   C     C_R   0.866146 0.316832 0.677033 0.288219
C17   C     C_R   0.834281 0.186760 0.575240 -0.211282
C18   C     C_R   0.860486 0.215271 0.895586 -0.238347
H4    H     H_    0.716696 0.415358 0.796910 0.196158
C19   C     C_2   0.001763 0.288317 0.284668 -0.118192
C20   C     C_2   0.843087 0.309146 0.322928 -0.272717
H5    H     H_    0.137800 0.324065 0.302519 0.137064
H6    H     H_    0.709031 0.269374 0.308286 0.188279
C21   C     C_2   0.006046 0.213967 0.219633 -0.222550
C22   C     C_2   0.855829 0.192523 0.176696 0.257772
H7    H     H_    0.144129 0.179202 0.205217 0.119577
C23   C     C_2   0.220794 0.765112 0.792288 -0.252279
C24   C     C_2   0.362398 0.831898 0.814878 0.179087
H8    H     H_    0.106495 0.754385 0.826574 0.102180
C25   C     C_2   0.201422 0.708856 0.721193 0.403830
C26   C     C_2   0.357910 0.673505 0.683858 -0.254704
H9    H     H_    0.500356 0.683954 0.706098 0.145978
C27   C     C_R   0.403131 0.889430 0.386938 -0.158353
H10   H     H_    0.430558 0.013050 0.303382 0.124834
H11   H     H_    0.427419 0.967429 0.410933 0.135251
C28   C     C_R   0.358174 0.716455 0.395907 -0.128855
C29   C     C_R   0.323822 0.685193 0.071663 0.330410
C30   C     C_R   0.296943 0.610797 0.108745 -0.186145
C31   C     C_R   0.303869 0.634423 0.178355 -0.213992
C32   C     C_R   0.341218 0.733603 0.213761 0.102903
C33   C     C_R   0.363716 0.809987 0.176167 -0.006374
C34   C     C_R   0.355545 0.759652 0.285180 0.091206
C35   C     C_R   0.387852 0.861484 0.317106 0.056001
C36   C     C_R   0.406038 0.935155 0.279255 -0.172010
C37   C     C_R   0.394926 0.910011 0.210026 -0.174022
C38   C     C_R   0.341654 0.688153 0.326145 -0.262253
C39   C     C_R   0.388796 0.818379 0.426841 0.352138
C40   C     C_R   0.353636 0.784994 0.105283 -0.122564
H12   H     H_    0.320952 0.609251 0.305476 0.111579
H13   H     H_    0.277646 0.573194 0.202951 0.127901
H14   H     H_    0.268684 0.533842 0.083530 0.127596
H15   H     H_    0.411590 0.970106 0.183244 0.120049
O11   O     O_R   0.203230 0.917310 0.915020 -0.527954
O12   O     O_R   0.535500 0.888690 0.048040 -0.544250
O13   O     O_R   0.711080 0.082610 0.085000 -0.531852
C41   C     C_R   0.366188 0.862847 0.065484 0.756888
O14   O     O_R   0.532630 0.905370 0.913230 -0.543371
O15   O     O_R   0.708190 0.099410 0.949230 -0.538262
C42   C     C_R   0.364809 0.887179 0.885715 0.696911
O16   O     O_R   0.206120 0.900510 0.050790 -0.541668
O17   O     O_3   0.375360 0.063570 0.011990 -0.377918
V3    V     V_3+5 0.648170 0.988200 0.997780 1.465940
O18   O     O_R   0.038240 0.111390 0.951940 -0.533332
C43   C     C_R   0.869808 0.138142 0.935557 0.822868
O19   O     O_R   0.041120 0.094710 0.086750 -0.562450
C44   C     C_R   0.872030 0.117243 0.112867 0.611723
V4    V     V_3+5 0.148810 0.011930 0.002180 1.459911
O20   O     O_3   0.871750 0.936430 0.988010 -0.367534
O21   O     O_3   0.679994 0.238756 0.192499 -0.557401
C45   C     C_3   0.652856 0.310044 0.152490 0.127826
H16   H     H_    0.631835 0.272366 0.099194 0.140042
H17   H     H_    0.777285 0.363467 0.156838 0.127801
C46   C     C_3   0.473011 0.369926 0.175630 -0.717014
H18   H     H_    0.489547 0.410539 0.228447 0.211385
H19   H     H_    0.450188 0.424971 0.143625 0.189415
H20   H     H_    0.345575 0.319134 0.171279 0.214913
O22   O     O_3   0.501216 0.852495 0.770927 -0.652877
H21   H     H_    0.583184 0.908906 0.794327 0.302684
O23   O     O_3   0.018963 0.687469 0.694625 -0.635307
H22   H     H_    0.923024 0.719825 0.728078 0.287966
O24   O     O_3   0.406212 0.852269 0.495200 -0.641823
H23   H     H_    0.389926 0.795760 0.518171 0.277962
O25   O     O_3   0.319872 0.662515 0.002593 -0.666227
H24   H     H_    0.310265 0.588687 0.986869 0.297164
O26   O     O_3   0.914897 0.414315 0.708214 -0.661687
H25   H     H_    0.920884 0.458903 0.675974 0.299169
O27   O     O_3   0.820519 0.346014 0.997889 -0.643144
H26   H     H_    0.890567 0.297173 0.018271 0.244477
O28   O     O_3   0.713086 0.480265 0.924123 -0.537709
C47   C     C_3   0.869906 0.548172 0.929340 0.104706
H27   H     H_    0.924012 0.553958 0.878954 0.122530
H28   H     H_    0.989163 0.524312 0.958638 0.136026
C48   C     C_3   0.805051 0.651814 0.965515 -0.606190
H29   H     H_    0.752789 0.649020 0.016439 0.227493
H30   H     H_    0.927670 0.705765 0.969944 0.186310
H31   H     H_    0.687223 0.678403 0.937155 0.224112
O29   O     O_3   0.931509 0.011987 0.821748 -0.649421
H32   H     H_    0.950747 0.947782 0.789180 0.283228

loop_
_geom_bond_atom_site_label_1
_geom_bond_atom_site_label_2
_ccdc_geom_bond_type
C32   C33   A    
C39   O24   S    
C22   O21   S    
O12   V3    S    
C19   C20   D    
C28   C38   A    
C1    O6    A    
C21   H7    S    
C31   H13   S    
C1    C26   S    
C30   C31   A    
C47   H28   S    
C14   C15   A    
C4    C6    S    
C13   C14   A    
C19   H5    S    
O5    C3    A    
V3    O20   S    
O11   C42   A    
V2    O10   S    
C5    H3    S    
C48   H29   S    
C29   O25   S    
O12   C41   A    
O13   C44   A    
O26   H25   S    
C26   H9    S    
O8    V2    S    
O21   C45   S    
C37   H15   S    
C8    C9    A    
O1    V2    S    
C3    C20   S    
O7    V1    S    
C24   C42   S    
C27   H11   S    
C36   C37   A    
O9    C4    A    
O13   V3    S    
O27   H26   S    
C28   C39   A    
C23   H8    S    
C25   O23   S    
O28   C47   S    
C6    C17   A    
C45   H17   S    
C47   C48   S    
C12   C16   A    
C9    C10   A    
O19   V4    S    
O17   V4    S    
C21   C22   D    
O4    C2    A    
O18   C43   A    
C18   C43   S    
C10   C11   A    
C45   H16   S    
V4    O20   S    
C9    H4    S    
C33   C37   A    
C15   O29   S    
C23   C25   S    
C38   H12   S    
C19   C21   S    
O14   V3    S    
C6    C16   A    
O18   V4    S    
C11   C18   A    
C27   C39   A    
C8    O28   S    
C46   H20   S    
O24   H23   S    
O15   C43   A    
C33   C40   A    
C16   O26   S    
O17   V3    S    
C34   C38   A    
C30   H14   S    
O3    C4    A    
O14   C42   A    
C46   H19   S    
C11   C15   A    
O6    V2    S    
C32   C34   A    
H1    C17   S    
C23   C24   D    
O2    V1    S    
C29   C30   A    
C45   C46   S    
C7    C18   A    
C31   C32   A    
O1    C2    A    
C5    C13   A    
C22   C44   S    
C40   C41   S    
O19   C44   A    
C29   C40   A    
H10   C36   S    
O5    V1    S    
O8    C3    A    
O16   V4    S    
C27   C35   A    
C10   C12   A    
C47   H27   S    
C24   O22   S    
C7    O27   S    
C48   H31   S    
O11   V4    S    
O9    V2    S    
C35   C36   A    
C2    C28   S    
O4    V1    S    
O3    V1    S    
V1    O10   S    
C41   O16   A    
C34   C35   A    
O2    C1    A    
C20   H6    S    
O22   H21   S    
C48   H30   S    
O29   H32   S    
O7    V2    S    
O23   H22   S    
C25   C26   D    
C46   H18   S    
O25   H24   S    
C12   C13   A    
C5    C17   A    
O15   V3    S    
C7    C8    A    
H2    C14   S    
