data_mof_unit_60885.cif
_audit_creation_date              2013-03-05T16:30:21-0500
_audit_creation_method            fapswitch 2.2
_symmetry_space_group_name_H-M    P1
_symmetry_Int_Tables_number       1
_space_group_crystal_system       triclinic
_cell_length_a                    32.069036
_cell_length_b                    32.063545
_cell_length_c                    22.050198
_cell_angle_alpha                 89.9708
_cell_angle_beta                  90.178717
_cell_angle_gamma                 90.037783
_cell_volume                      22672.9313294

loop_
_atom_site_label
_atom_site_type_symbol
_atom_site_description
_atom_site_fract_x
_atom_site_fract_y
_atom_site_fract_z
_atom_type_partial_charge
O1    O     O_R   0.439000 0.034460 0.500000 -0.584849
O2    O     O_R   0.965540 0.439000 0.500000 -0.589240
O3    O     O_R   0.561000 0.965540 0.500000 -0.597357
O4    O     O_R   0.034460 0.561000 0.500000 -0.583422
O5    O     O_R   0.561000 0.034460 0.500000 -0.572207
O6    O     O_R   0.034460 0.439000 0.500000 -0.578914
O7    O     O_R   0.439000 0.965540 0.500000 -0.580039
O8    O     O_R   0.965540 0.561000 0.500000 -0.580285
O9    O     O_R   0.939000 0.534460 0.000000 -0.583593
O10   O     O_R   0.465540 0.939000 0.000000 -0.584855
O11   O     O_R   0.061000 0.465540 0.000000 -0.583199
O12   O     O_R   0.534460 0.061000 0.000000 -0.582977
O13   O     O_R   0.061000 0.534460 0.000000 -0.578963
O14   O     O_R   0.534460 0.939000 0.000000 -0.577481
O15   O     O_R   0.939000 0.465540 0.000000 -0.579682
O16   O     O_R   0.465540 0.061000 0.000000 -0.580326
C1    C     C_R   0.419316 0.999990 0.500857 1.008831
C2    C     C_R   0.999933 0.419258 0.502029 1.014504
C3    C     C_R   0.580799 0.999871 0.499632 0.984178
C4    C     C_R   0.999998 0.580675 0.501304 1.011529
C5    C     C_R   0.919321 0.499976 0.001164 1.015885
C6    C     C_R   0.500053 0.919346 0.002021 1.015108
C7    C     C_R   0.080672 0.500020 0.001817 1.017381
C8    C     C_R   0.500008 0.080673 0.001539 1.013933
O17   O     O_R   0.499990 0.034460 0.408410 -0.588662
O18   O     O_R   0.965540 0.499990 0.408410 -0.601210
O19   O     O_R   0.500010 0.965540 0.408410 -0.611449
O20   O     O_R   0.034460 0.500010 0.408410 -0.597378
O21   O     O_R   0.500010 0.034460 0.591590 -0.608696
O22   O     O_R   0.034460 0.499990 0.591590 -0.609782
O23   O     O_R   0.499990 0.965540 0.591590 -0.608787
O24   O     O_R   0.965540 0.500010 0.591590 -0.614510
O25   O     O_R   0.999990 0.534460 0.908410 -0.598504
O26   O     O_R   0.465540 0.999990 0.908410 -0.599317
O27   O     O_R   0.000010 0.465540 0.908410 -0.595400
O28   O     O_R   0.534460 0.000010 0.908410 -0.595421
O29   O     O_R   0.000010 0.534460 0.091590 -0.610793
O30   O     O_R   0.534460 0.999990 0.091590 -0.602713
O31   O     O_R   0.999990 0.465540 0.091590 -0.609578
O32   O     O_R   0.465540 0.000010 0.091590 -0.615989
C9    C     C_R   0.498297 0.000161 0.379695 0.943479
C10   C     C_R   0.999984 0.500228 0.379524 0.953872
C11   C     C_R   0.499720 0.000029 0.620283 0.947913
C12   C     C_R   0.000113 0.500114 0.620263 0.941173
C13   C     C_R   0.000167 0.500008 0.879446 0.950580
C14   C     C_R   0.499964 0.000138 0.879467 0.951753
C15   C     C_R   0.999959 0.500010 0.120352 0.943025
C16   C     C_R   0.500076 0.999657 0.120470 0.942263
Zn1   Zn    Zn3+2 0.500000 0.046010 0.500000 1.179645
Zn2   Zn    Zn3+2 0.953990 0.500000 0.500000 1.169423
Zn3   Zn    Zn3+2 0.500000 0.953990 0.500000 1.171165
Zn4   Zn    Zn3+2 0.046010 0.500000 0.500000 1.176786
Zn5   Zn    Zn3+2 0.000000 0.546010 0.000000 1.176519
Zn6   Zn    Zn3+2 0.453990 0.000000 0.000000 1.173656
Zn7   Zn    Zn3+2 0.000000 0.453990 0.000000 1.178287
Zn8   Zn    Zn3+2 0.546010 0.000000 0.000000 1.181978
C17   C     C_R   0.567385 0.965150 0.311328 0.180864
C18   C     C_R   0.037292 0.569875 0.306334 0.204427
C19   C     C_R   0.428658 0.037177 0.304792 0.205357
C20   C     C_R   0.963911 0.430294 0.306261 0.199822
C21   C     C_R   0.436075 0.954751 0.691370 0.194691
C22   C     C_R   0.954413 0.563282 0.690853 0.193911
C23   C     C_R   0.561206 0.048576 0.690314 0.194416
C24   C     C_R   0.050094 0.439894 0.690265 0.197578
C25   C     C_R   0.072096 0.466632 0.806311 0.210561
C26   C     C_R   0.534571 0.071362 0.806028 0.208522
C27   C     C_R   0.929680 0.535289 0.805286 0.206760
C28   C     C_R   0.464202 0.929823 0.805974 0.203472
C29   C     C_R   0.935329 0.455855 0.192095 0.198208
C30   C     C_R   0.454204 0.063853 0.189925 0.195757
C31   C     C_R   0.064596 0.544553 0.191795 0.196997
C32   C     C_R   0.544451 0.935350 0.196593 0.209126
C33   C     C_R   0.586113 0.928598 0.288727 0.126975
C34   C     C_R   0.066363 0.594372 0.274202 0.134755
C35   C     C_R   0.403364 0.064712 0.271066 0.138699
C36   C     C_R   0.934187 0.406093 0.274644 0.131566
C37   C     C_R   0.418832 0.919187 0.719207 0.122757
C38   C     C_R   0.918216 0.579674 0.717817 0.121496
C39   C     C_R   0.576502 0.085310 0.717197 0.127193
C40   C     C_R   0.087290 0.425629 0.716982 0.126521
C41   C     C_R   0.099850 0.441665 0.772628 0.142917
C42   C     C_R   0.560556 0.098349 0.772560 0.141549
C43   C     C_R   0.903979 0.562931 0.772202 0.137581
C44   C     C_R   0.435626 0.904725 0.773566 0.135457
C45   C     C_R   0.917139 0.421042 0.220729 0.123910
C46   C     C_R   0.417873 0.080658 0.216261 0.121417
C47   C     C_R   0.082707 0.579656 0.219899 0.122975
C48   C     C_R   0.573524 0.912994 0.232208 0.135891
C49   C     C_R   0.525123 0.971743 0.220581 -0.096471
C50   C     C_R   0.029239 0.525106 0.218755 -0.087359
C51   C     C_R   0.474168 0.029174 0.218068 -0.080664
C52   C     C_R   0.970871 0.475273 0.218816 -0.089225
C53   C     C_R   0.478858 0.967983 0.780390 -0.094781
C54   C     C_R   0.967989 0.520872 0.780103 -0.096519
C55   C     C_R   0.520541 0.032933 0.780442 -0.096663
C56   C     C_R   0.033455 0.480011 0.780568 -0.098229
C57   C     C_R   0.027348 0.472758 0.718386 -0.088004
C58   C     C_R   0.527767 0.026577 0.718356 -0.088432
C59   C     C_R   0.974757 0.528546 0.718302 -0.087979
C60   C     C_R   0.471149 0.974759 0.718523 -0.088739
C61   C     C_R   0.978622 0.468347 0.280616 -0.094925
C62   C     C_R   0.466741 0.022091 0.279994 -0.101168
C63   C     C_R   0.021814 0.532080 0.280623 -0.095979
C64   C     C_R   0.530790 0.980103 0.282369 -0.081160
C65   C     C_R   0.500153 0.000321 0.186831 -0.013951
C66   C     C_R   0.000029 0.500104 0.186521 -0.012820
C67   C     C_R   0.499942 0.000278 0.813034 -0.026750
C68   C     C_R   0.000415 0.500057 0.812987 -0.027771
C69   C     C_R   0.000576 0.500302 0.686313 -0.014660
C70   C     C_R   0.499681 0.000284 0.686360 -0.018254
C71   C     C_R   0.000084 0.500289 0.313176 -0.023607
C72   C     C_R   0.498372 0.000898 0.313479 -0.012119
C73   C     C_R   0.227615 0.965569 0.523041 -0.195943
C74   C     C_R   0.025395 0.226967 0.542200 -0.195489
C75   C     C_R   0.772987 0.023354 0.544363 -0.196370
C76   C     C_R   0.965606 0.772436 0.523157 -0.196675
C77   C     C_R   0.772073 0.970774 0.465564 -0.199927
C78   C     C_R   0.967286 0.228065 0.471826 -0.197905
C79   C     C_R   0.227625 0.034301 0.477404 -0.195326
C80   C     C_R   0.034345 0.772325 0.477935 -0.195468
C81   C     C_R   0.727568 0.465721 0.023867 -0.196204
C82   C     C_R   0.533637 0.727380 0.027731 -0.195411
C83   C     C_R   0.272590 0.534438 0.023405 -0.195538
C84   C     C_R   0.465574 0.272409 0.022661 -0.196010
C85   C     C_R   0.272190 0.465929 0.977173 -0.194693
C86   C     C_R   0.466325 0.727907 0.977599 -0.195015
C87   C     C_R   0.727656 0.534073 0.977041 -0.195477
C88   C     C_R   0.534243 0.272368 0.977216 -0.195279
H1    H     H_    0.210318 0.938991 0.540070 0.198230
H2    H     H_    0.047805 0.209366 0.568761 0.197752
H3    H     H_    0.790527 0.043674 0.574341 0.197943
H4    H     H_    0.939021 0.789770 0.539925 0.198006
H5    H     H_    0.788990 0.950658 0.434751 0.199481
H6    H     H_    0.945061 0.211137 0.444047 0.200501
H7    H     H_    0.210335 0.060877 0.460270 0.198188
H8    H     H_    0.060916 0.789586 0.460862 0.198204
H9    H     H_    0.710240 0.439289 0.041302 0.198106
H10   H     H_    0.559693 0.709898 0.046129 0.197883
H11   H     H_    0.290033 0.560937 0.040498 0.198296
H12   H     H_    0.439012 0.289718 0.039563 0.198164
H13   H     H_    0.289338 0.439444 0.959642 0.198155
H14   H     H_    0.440287 0.710808 0.958358 0.198499
H15   H     H_    0.710393 0.560507 0.959393 0.198086
H16   H     H_    0.560784 0.289656 0.960103 0.198004
C89   C     C_R   0.206155 0.999965 0.500262 0.035358
C90   C     C_R   0.997441 0.206120 0.504427 0.034847
C91   C     C_R   0.793935 0.998273 0.502862 0.035577
C92   C     C_R   0.999987 0.793845 0.500417 0.035560
C93   C     C_R   0.706148 0.499937 0.000445 0.035457
C94   C     C_R   0.500025 0.706177 0.002016 0.035294
C95   C     C_R   0.293853 0.500172 0.000074 0.035171
C96   C     C_R   0.499938 0.293852 0.999943 0.035431
C97   C     C_R   0.271219 0.035039 0.477811 0.286812
C98   C     C_R   0.965095 0.271594 0.475826 0.281336
C99   C     C_R   0.728596 0.968319 0.468867 0.280805
C100  C     C_R   0.035105 0.728729 0.478634 0.285824
C101  C     C_R   0.729580 0.021482 0.548695 0.274464
C102  C     C_R   0.023869 0.270338 0.547280 0.274264
C103  C     C_R   0.271202 0.964776 0.522684 0.279801
C104  C     C_R   0.964835 0.728843 0.523087 0.279663
C105  C     C_R   0.771250 0.534797 0.977531 0.286694
C106  C     C_R   0.465526 0.771493 0.979030 0.285813
C107  C     C_R   0.228603 0.465151 0.978071 0.289179
C108  C     C_R   0.535000 0.228770 0.977752 0.288233
C109  C     C_R   0.229001 0.535198 0.023563 0.279724
C110  C     C_R   0.534389 0.770977 0.028486 0.280801
C111  C     C_R   0.771154 0.464906 0.023628 0.280232
C112  C     C_R   0.464799 0.228819 0.022432 0.279470
C113  C     C_R   0.293090 0.999921 0.500369 -0.126650
C114  C     C_R   0.994509 0.292897 0.512497 -0.119888
C115  C     C_R   0.707157 0.994733 0.509548 -0.119291
C116  C     C_R   0.999985 0.706908 0.501111 -0.126904
C117  C     C_R   0.793081 0.499862 0.000776 -0.126665
C118  C     C_R   0.499978 0.793118 0.004236 -0.125867
C119  C     C_R   0.206925 0.500139 0.001207 -0.126343
C120  C     C_R   0.499935 0.206917 0.000342 -0.126526
C121  C     C_1   0.161735 0.999997 0.500271 0.035094
C122  C     C_1   0.998516 0.161746 0.501493 0.034199
C123  C     C_1   0.838302 0.999266 0.500755 0.033403
C124  C     C_1   0.000010 0.838264 0.500185 0.034578
C125  C     C_1   0.661731 0.499986 0.000349 0.034912
C126  C     C_1   0.500046 0.661755 0.000860 0.035367
C127  C     C_1   0.338269 0.500103 0.999812 0.035450
C128  C     C_1   0.499987 0.338269 0.999962 0.034978
C129  C     C_1   0.337671 0.999952 0.500670 0.178955
C130  C     C_1   0.997347 0.337537 0.509831 0.158787
C131  C     C_1   0.662495 0.997293 0.506908 0.166480
C132  C     C_1   0.999975 0.662328 0.501507 0.178555
C133  C     C_1   0.837660 0.499873 0.001164 0.178852
C134  C     C_1   0.500208 0.837711 0.004418 0.175885
C135  C     C_1   0.162350 0.500109 0.001865 0.180669
C136  C     C_1   0.500004 0.162341 0.000964 0.180669
C137  C     C_1   0.374981 0.999979 0.500863 0.137268
C138  C     C_1   0.999304 0.374831 0.506362 0.110121
C139  C     C_1   0.625188 0.999097 0.503452 0.094783
C140  C     C_1   0.999983 0.625016 0.501619 0.135348
C141  C     C_1   0.874970 0.499919 0.001337 0.137212
C142  C     C_1   0.500230 0.875025 0.003772 0.130232
C143  C     C_1   0.125040 0.500065 0.002119 0.141736
C144  C     C_1   0.500034 0.125029 0.001407 0.139471
C145  C     C_1   0.124432 0.000006 0.500235 -0.126574
C146  C     C_1   0.999303 0.124450 0.500207 -0.127209
C147  C     C_1   0.875588 0.999774 0.499909 -0.127787
C148  C     C_1   0.000012 0.875570 0.500066 -0.126956
C149  C     C_1   0.624428 0.500004 0.000254 -0.126571
C150  C     C_1   0.500037 0.624446 0.000189 -0.126294
C151  C     C_1   0.375571 0.500049 0.999764 -0.126211
C152  C     C_1   0.500004 0.375573 0.000005 -0.126509
O33   O     O_R   0.999970 0.939080 0.448210 -0.600345
O34   O     O_R   0.060920 0.999970 0.448210 -0.599800
O35   O     O_R   0.000030 0.060920 0.448210 -0.600018
O36   O     O_R   0.939080 0.000030 0.448210 -0.600954
O37   O     O_R   0.000030 0.939080 0.551790 -0.601107
O38   O     O_R   0.939080 0.999970 0.551790 -0.601901
O39   O     O_R   0.999970 0.060920 0.551790 -0.602243
O40   O     O_R   0.060920 0.000030 0.551790 -0.601415
O41   O     O_R   0.499970 0.439080 0.948210 -0.599992
O42   O     O_R   0.560920 0.499970 0.948210 -0.599978
O43   O     O_R   0.500030 0.560920 0.948210 -0.600007
O44   O     O_R   0.439080 0.500030 0.948210 -0.600020
O45   O     O_R   0.500030 0.439080 0.051790 -0.601319
O46   O     O_R   0.439080 0.499970 0.051790 -0.601014
O47   O     O_R   0.499970 0.560920 0.051790 -0.601058
O48   O     O_R   0.560920 0.500030 0.051790 -0.601360
C153  C     C_R   0.000004 0.919802 0.500015 0.877430
C154  C     C_R   0.080199 0.000006 0.500080 0.877456
C155  C     C_R   0.999958 0.080207 0.499992 0.877469
C156  C     C_R   0.919808 0.000060 0.499919 0.877672
C157  C     C_R   0.500006 0.419803 0.000009 0.876865
C158  C     C_R   0.580198 0.500008 0.000082 0.876740
C159  C     C_R   0.500012 0.580203 0.000007 0.876818
C160  C     C_R   0.419802 0.500003 0.999917 0.876922
Zn9   Zn    Zn3+2 0.000000 1.000000 0.430950 1.064445
Zn10  Zn    Zn3+2 0.000000 1.000000 0.569050 1.060380
Zn11  Zn    Zn3+2 0.500000 0.500000 0.930950 1.066141
Zn12  Zn    Zn3+2 0.500000 0.500000 0.069050 1.062445
N1    N     N_R   0.363027 0.076987 0.292929 0.286794
O49   O     O_R   0.353997 0.116219 0.300196 -0.227039
O50   O     O_R   0.334917 0.048850 0.304638 -0.261000
N2    N     N_R   0.921210 0.366172 0.297125 0.292776
O51   O     O_R   0.882405 0.359549 0.311257 -0.227116
O52   O     O_R   0.947852 0.335655 0.300144 -0.250046
N3    N     N_R   0.614440 0.905047 0.325776 0.282369
O53   O     O_R   0.603997 0.895117 0.380897 -0.274328
O54   O     O_R   0.649702 0.891854 0.304026 -0.213435
N4    N     N_R   0.079816 0.634108 0.297090 0.289378
O55   O     O_R   0.119055 0.640966 0.308513 -0.228023
O56   O     O_R   0.052883 0.663941 0.304959 -0.258341
N5    N     N_R   0.607515 0.110201 0.687821 0.289009
O57   O     O_R   0.596728 0.144188 0.659639 -0.269483
O58   O     O_R   0.646814 0.101862 0.695959 -0.204159
N6    N     N_R   0.113094 0.395619 0.687161 0.289841
O59   O     O_R   0.146206 0.407794 0.658180 -0.269719
O60   O     O_R   0.106488 0.356005 0.695448 -0.203859
N7    N     N_R   0.384573 0.897212 0.692240 0.292372
O61   O     O_R   0.390196 0.860253 0.669383 -0.247512
O62   O     O_R   0.347047 0.912374 0.695919 -0.232015
N8    N     N_R   0.895343 0.612933 0.689924 0.292735
O63   O     O_R   0.859358 0.605547 0.664733 -0.252114
O64   O     O_R   0.908316 0.651195 0.695518 -0.228507
N9    N     N_R   0.863526 0.574554 0.794334 0.288146
O65   O     O_R   0.854322 0.613575 0.803333 -0.226070
O66   O     O_R   0.835489 0.546058 0.804494 -0.262476
N10   N     N_R   0.423154 0.864621 0.796210 0.289589
O67   O     O_R   0.384090 0.856756 0.807185 -0.226732
O68   O     O_R   0.450817 0.835449 0.804245 -0.258539
N11   N     N_R   0.140915 0.432391 0.795251 0.285904
O69   O     O_R   0.153302 0.393944 0.800846 -0.223124
O70   O     O_R   0.166265 0.462539 0.809628 -0.268975
N12   N     N_R   0.570920 0.139156 0.795022 0.286602
O71   O     O_R   0.609686 0.150295 0.801676 -0.224311
O72   O     O_R   0.541474 0.165583 0.807908 -0.266423
N13   N     N_R   0.117467 0.600887 0.193293 0.293051
O73   O     O_R   0.112758 0.638098 0.170762 -0.246412
O74   O     O_R   0.154586 0.584705 0.196888 -0.233286
N14   N     N_R   0.588566 0.873229 0.212383 0.284107
O75   O     O_R   0.624909 0.870351 0.186691 -0.217912
O76   O     O_R   0.563826 0.841066 0.212774 -0.260875
N15   N     N_R   0.881714 0.400261 0.194916 0.291836
O77   O     O_R   0.885317 0.362573 0.173751 -0.243389
O78   O     O_R   0.845127 0.417683 0.197198 -0.236888
N16   N     N_R   0.395094 0.113532 0.187301 0.293514
O79   O     O_R   0.359997 0.105456 0.159995 -0.253643
O80   O     O_R   0.406910 0.152056 0.194313 -0.226177
N17   N     N_R   0.589787 0.991365 0.353718 0.194019
O81   O     O_R   0.580511 0.030786 0.357581 -0.370181
O82   O     O_R   0.626155 0.979920 0.373902 -0.340550
N18   N     N_R   0.021485 0.585787 0.362027 0.185302
O83   O     O_R   0.981444 0.590519 0.368466 -0.389655
O84   O     O_R   0.046855 0.605059 0.398602 -0.347976
N19   N     N_R   0.413374 0.022538 0.361519 0.182829
O85   O     O_R   0.407557 0.982722 0.369229 -0.394822
O86   O     O_R   0.395399 0.048891 0.397819 -0.343628
N20   N     N_R   0.981577 0.413720 0.360672 0.188575
O87   O     O_R   0.021913 0.411425 0.366371 -0.384088
O88   O     O_R   0.958054 0.392232 0.396981 -0.350765
N21   N     N_R   0.414994 0.973173 0.640558 0.189004
O89   O     O_R   0.409930 0.013427 0.638564 -0.399336
O90   O     O_R   0.393916 0.949862 0.603244 -0.340318
N22   N     N_R   0.973201 0.584967 0.640957 0.189629
O91   O     O_R   0.013498 0.589772 0.639637 -0.398871
O92   O     O_R   0.950270 0.606751 0.604009 -0.340623
N23   N     N_R   0.582590 0.031389 0.639123 0.208108
O93   O     O_R   0.590276 0.991550 0.637396 -0.384470
O94   O     O_R   0.600973 0.055882 0.600532 -0.329570
N24   N     N_R   0.033146 0.417862 0.639351 0.203524
O95   O     O_R   0.993554 0.408916 0.638251 -0.395376
O96   O     O_R   0.057858 0.400086 0.600548 -0.330417
N25   N     N_R   0.085611 0.480404 0.864282 0.180574
O97   O     O_R   0.091343 0.520121 0.873102 -0.388020
O98   O     O_R   0.104073 0.453557 0.899478 -0.350718
N26   N     N_R   0.520375 0.085463 0.863434 0.182005
O99   O     O_R   0.480603 0.091074 0.871577 -0.388856
O100  O     O_R   0.546954 0.103962 0.899054 -0.349064
N27   N     N_R   0.914604 0.520105 0.861780 0.184392
O101  O     O_R   0.909813 0.480138 0.869329 -0.387093
O102  O     O_R   0.895526 0.545913 0.897683 -0.350546
N28   N     N_R   0.480306 0.914214 0.861854 0.186251
O103  O     O_R   0.520429 0.910360 0.868800 -0.384489
O104  O     O_R   0.455334 0.894300 0.898069 -0.350193
N29   N     N_R   0.914927 0.473934 0.140550 0.187996
O105  O     O_R   0.909969 0.514179 0.137820 -0.399332
O106  O     O_R   0.894161 0.450309 0.103288 -0.342925
N30   N     N_R   0.473705 0.085343 0.140430 0.188386
O107  O     O_R   0.514116 0.089129 0.139488 -0.396145
O108  O     O_R   0.451520 0.108339 0.104100 -0.344975
N31   N     N_R   0.085065 0.526062 0.140802 0.187035
O109  O     O_R   0.089763 0.485769 0.138685 -0.399721
O110  O     O_R   0.106287 0.549305 0.103741 -0.345401
N32   N     N_R   0.529836 0.916729 0.141640 0.188123
O111  O     O_R   0.490315 0.908344 0.135845 -0.409850
O112  O     O_R   0.556377 0.899384 0.105011 -0.322174
N33   N     N_R   0.292473 0.928229 0.544903 0.247801
O113  O     O_R   0.326034 0.914690 0.518399 -0.291891
O114  O     O_R   0.275487 0.905365 0.586906 -0.277117
N34   N     N_R   0.051237 0.290907 0.589287 0.238390
O115  O     O_R   0.036105 0.318074 0.627021 -0.265493
O116  O     O_R   0.088929 0.277045 0.597839 -0.287872
N35   N     N_R   0.708879 0.045729 0.594207 0.239833
O117  O     O_R   0.681372 0.028077 0.629014 -0.268135
O118  O     O_R   0.722885 0.082540 0.608534 -0.285335
N36   N     N_R   0.928298 0.707612 0.545228 0.247385
O119  O     O_R   0.914715 0.673962 0.518752 -0.292242
O120  O     O_R   0.905490 0.724709 0.587116 -0.278774
N37   N     N_R   0.706888 0.938444 0.431770 0.250714
O121  O     O_R   0.675361 0.917849 0.453624 -0.279040
O122  O     O_R   0.722226 0.927250 0.379690 -0.278313
N38   N     N_R   0.932700 0.293372 0.443332 0.251915
O123  O     O_R   0.915658 0.326603 0.466279 -0.292166
O124  O     O_R   0.915837 0.276681 0.395371 -0.269896
N39   N     N_R   0.292501 0.071471 0.455293 0.249674
O125  O     O_R   0.326311 0.084983 0.481504 -0.301850
O126  O     O_R   0.275410 0.094184 0.413077 -0.272683
N40   N     N_R   0.071548 0.707397 0.456461 0.249925
O127  O     O_R   0.084970 0.673632 0.482800 -0.301097
O128  O     O_R   0.094348 0.724397 0.414427 -0.272185
N41   N     N_R   0.792382 0.428514 0.046464 0.248196
O129  O     O_R   0.825944 0.414746 0.020213 -0.292251
O130  O     O_R   0.775328 0.405957 0.088757 -0.276897
N42   N     N_R   0.570186 0.792003 0.053667 0.247499
O131  O     O_R   0.584765 0.825675 0.028485 -0.291442
O132  O     O_R   0.591474 0.774694 0.097259 -0.275218
N43   N     N_R   0.207923 0.571625 0.046334 0.247886
O133  O     O_R   0.174101 0.585267 0.020325 -0.290822
O134  O     O_R   0.225305 0.594307 0.088324 -0.277134
N44   N     N_R   0.428275 0.207551 0.044536 0.247784
O135  O     O_R   0.414669 0.173963 0.017917 -0.290643
O136  O     O_R   0.405474 0.224587 0.086485 -0.277909
N45   N     N_R   0.207141 0.428813 0.955447 0.250269
O137  O     O_R   0.173494 0.415230 0.981738 -0.303552
O138  O     O_R   0.223937 0.406232 0.913020 -0.271109
N46   N     N_R   0.429731 0.793030 0.954771 0.249997
O139  O     O_R   0.415587 0.826552 0.980793 -0.301540
O140  O     O_R   0.408065 0.776371 0.911035 -0.270617
N47   N     N_R   0.792568 0.571012 0.954344 0.249727
O141  O     O_R   0.826446 0.584670 0.980206 -0.302378
O142  O     O_R   0.775478 0.593398 0.911758 -0.272634
N48   N     N_R   0.571389 0.207477 0.955315 0.250079
O143  O     O_R   0.584878 0.173665 0.981452 -0.303021
O144  O     O_R   0.594068 0.224541 0.913199 -0.272290

loop_
_geom_bond_atom_site_label_1
_geom_bond_atom_site_label_2
_geom_bond_distance
_ccdc_geom_bond_type
N7    O62   1.300976 A    
N41   O129  1.301192 A    
O25   C13   1.276282 A    
N19   O85   1.301241 A    
C77   H5    1.084052 S    
N23   O94   1.300091 A    
N33   O113  1.301200 A    
C60   C70   1.418606 A    
O46   Zn12  1.989208 S    
N16   O79   1.300744 A    
N6    O60   1.300472 A    
C107  N45   1.441380 S    
C23   C58   1.425696 A    
O18   Zn2   2.054402 S    
C19   N19   1.424103 S    
N46   O139  1.301196 A    
C98   C114  1.416023 A    
C84   C112  1.397869 A    
C25   C56   1.427528 A    
N30   O107  1.301774 A    
C9    C72   1.460249 S    
C27   C54   1.427103 A    
O3    C3    1.270434 A    
C11   C70   1.457056 S    
C29   C52   1.424501 A    
C24   N24   1.432232 S    
C13   C68   1.465476 S    
C56   C68   1.432803 A    
C79   C97   1.398210 A    
C74   H2    1.084226 S    
O5    Zn1   1.991197 S    
C6    C142  1.421595 S    
C110  C118  1.415830 A    
N27   O102  1.300055 A    
N32   O111  1.301315 A    
C98   N38   1.440845 S    
O17   C9    1.270323 A    
N36   O119  1.301205 A    
C106  N46   1.441370 S    
C20   C36   1.411467 A    
O40   C154  1.298739 A    
C33   C48   1.401322 A    
C26   C42   1.410660 A    
C35   C46   1.393149 A    
C108  N48   1.441394 S    
C16   C65   1.463451 S    
N24   O95   1.301656 A    
C104  C116  1.415960 A    
C87   H15   1.084089 S    
C88   H16   1.084087 S    
C53   C60   1.402483 A    
C52   C66   1.420528 A    
C24   C57   1.425267 A    
O26   Zn6   2.054402 S    
O45   Zn12  1.990238 S    
N12   O72   1.301333 A    
C79   C89   1.393117 A    
C36   N2    1.434296 S    
O27   C13   1.276177 A    
O8    Zn2   1.990400 S    
N22   O91   1.301735 A    
O31   C15   1.274551 A    
C133  C141  1.196499 T    
O32   C16   1.275879 A    
C17   C64   1.417971 A    
C112  N44   1.441071 S    
C80   C92   1.393058 A    
C150  C159  1.418582 S    
C19   C62   1.424679 A    
C5    C141  1.422298 S    
N34   O115  1.300147 A    
N47   O141  1.301180 A    
C28   N28   1.425194 S    
C104  N36   1.441103 S    
N17   O82   1.300056 A    
C25   N25   1.419041 S    
C101  C115  1.412052 A    
O9    C5    1.273033 A    
O11   C7    1.273104 A    
N38   O123  1.301186 A    
C81   C93   1.392974 A    
C97   N39   1.441287 S    
N15   O78   1.300982 A    
O48   Zn12  1.991536 S    
O16   Zn6   1.990400 S    
C22   C59   1.424863 A    
O4    C4    1.273298 A    
C91   C123  1.424044 S    
C8    C144  1.422215 S    
C32   N32   1.428744 S    
N29   O105  1.301601 A    
C44   N10   1.436188 S    
O6    Zn4   1.990400 S    
C148  C153  1.418244 S    
C36   C45   1.392030 A    
O15   Zn7   1.991197 S    
C26   C55   1.427379 A    
C90   C122  1.424738 S    
C27   C43   1.411930 A    
C2    C138  1.427795 S    
C127  C151  1.196252 T    
C51   C65   1.424727 A    
N8    O64   1.300966 A    
C30   C51   1.424492 A    
C107  C119  1.416300 A    
O41   Zn11  1.989856 S    
O21   Zn1   2.053065 S    
N5    O57   1.300714 A    
O23   C11   1.274374 A    
N19   O86   1.300421 A    
O42   Zn11  1.989206 S    
C99   N37   1.437927 S    
N9    O65   1.301160 A    
C83   H11   1.084100 S    
C88   C108  1.398193 A    
N26   O99   1.301209 A    
O13   C7    1.272686 A    
O34   Zn9   1.989206 S    
C81   H9    1.084096 S    
N28   O104  1.299815 A    
C85   C95   1.392998 A    
C88   C96   1.393087 A    
O42   C158  1.298466 A    
C21   C37   1.408350 A    
N10   O67   1.301151 A    
O7    C1    1.272791 A    
C77   C99   1.398583 A    
C45   N15   1.433129 S    
O28   C14   1.275409 A    
O26   C14   1.276874 A    
C34   C47   1.391372 A    
O29   C15   1.273421 A    
O30   C16   1.275094 A    
C78   H6    1.083929 S    
O29   Zn5   2.053065 S    
C29   N29   1.432153 S    
O46   C160  1.298486 A    
N1    O49   1.301121 A    
C56   C57   1.403920 A    
N21   O90   1.299617 A    
N42   O131  1.301132 A    
O19   Zn3   2.053069 S    
C109  N43   1.441165 S    
N25   O98   1.300385 A    
C21   N21   1.434011 S    
O43   Zn11  1.990232 S    
N31   O110  1.299469 A    
C26   N26   1.420723 S    
C102  C114  1.412020 A    
C136  C144  1.196391 T    
C37   C44   1.391945 A    
C100  C116  1.416238 A    
O35   Zn9   1.990232 S    
C126  C150  1.196345 T    
N18   O84   1.299982 A    
C57   C69   1.419087 A    
C76   H4    1.084105 S    
N43   O133  1.301199 A    
C46   N16   1.431725 S    
C73   C103  1.398085 A    
C123  C147  1.196056 T    
O32   Zn6   2.052127 S    
C121  C145  1.196292 T    
C43   N9    1.436940 S    
C21   C60   1.424924 A    
O45   C157  1.298615 A    
C29   C45   1.409123 A    
C18   C34   1.410915 A    
C112  C120  1.415940 A    
O22   Zn4   2.054399 S    
N4    O55   1.301145 A    
C130  C138  1.199796 T    
O43   C159  1.299022 A    
C39   C42   1.389709 A    
N11   O69   1.301096 A    
C95   C127  1.424431 S    
O12   C8    1.273131 A    
O1    C1    1.272594 A    
O14   C6    1.271213 A    
C122  C146  1.196461 T    
N8    O63   1.300818 A    
N48   O143  1.301171 A    
C87   C93   1.393079 A    
C86   C94   1.392937 A    
C31   C50   1.425047 A    
N2    O51   1.301094 A    
N13   O74   1.300988 A    
N46   O140  1.301511 A    
C78   C98   1.400340 A    
O39   C155  1.298539 A    
O37   C153  1.298524 A    
O47   Zn12  1.989853 S    
C27   N27   1.423146 S    
O30   Zn8   2.054399 S    
N14   O75   1.300826 A    
C92   C124  1.424250 S    
N40   O127  1.301188 A    
C40   N6    1.431138 S    
C100  N40   1.441416 S    
C41   N11   1.437954 S    
N6    O59   1.300678 A    
C47   N13   1.432785 S    
N7    O61   1.300888 A    
N45   O138  1.301505 A    
C39   N5    1.431111 S    
C31   N31   1.432645 S    
C58   C70   1.419632 A    
O40   Zn10  1.991536 S    
O44   Zn11  1.991540 S    
C62   C72   1.425363 A    
C37   N7    1.432627 S    
C94   C126  1.424578 S    
O10   C6    1.274636 A    
C23   N23   1.433199 S    
O18   C10   1.276810 A    
N32   O112  1.300565 A    
C82   C94   1.393268 A    
C76   C104  1.397947 A    
N20   O87   1.301357 A    
C34   N4    1.436211 S    
N36   O120  1.301489 A    
C151  C160  1.418428 S    
N3    O53   1.301089 A    
C59   C69   1.417223 A    
C75   C91   1.393083 A    
C80   C100  1.398169 A    
C63   C71   1.428756 A    
C73   C89   1.393004 A    
N44   O135  1.301217 A    
C74   C102  1.396091 A    
C38   C43   1.391837 A    
O31   Zn7   2.053439 S    
N39   O125  1.301177 A    
O47   C159  1.298216 A    
N24   O96   1.300098 A    
N15   O77   1.300954 A    
N37   O122  1.301427 A    
C152  C157  1.418171 S    
C111  C117  1.416053 A    
C12   C69   1.456463 S    
N27   O101  1.301235 A    
N41   O130  1.301488 A    
O21   C11   1.272166 A    
C93   C125  1.424426 S    
C24   C40   1.405415 A    
O22   C12   1.271750 A    
O38   Zn10  1.989208 S    
O39   Zn10  1.989853 S    
O33   C153  1.298535 A    
C147  C156  1.418093 S    
N22   O92   1.299512 A    
C101  N35   1.434541 S    
O13   Zn5   1.991197 S    
N33   O114  1.301491 A    
C145  C154  1.418497 S    
C81   C111  1.398049 A    
C83   C95   1.393015 A    
C28   C44   1.411971 A    
C50   C66   1.421544 A    
N34   O116  1.301298 A    
O23   Zn3   2.053439 S    
C76   C92   1.392985 A    
O3    Zn3   1.990718 S    
C18   N18   1.424864 S    
C86   H14   1.084091 S    
C79   H7    1.084092 S    
C80   H8    1.084088 S    
N17   O81   1.301595 A    
O28   Zn8   2.052129 S    
O48   C158  1.298691 A    
C105  C117  1.416263 A    
C25   C41   1.410799 A    
N35   O117  1.300264 A    
C15   C66   1.459045 S    
C102  N34   1.434578 S    
C114  C130  1.435325 S    
N38   O124  1.301496 A    
C38   N8    1.432144 S    
C82   H10   1.084101 S    
C55   C67   1.431909 A    
C52   C61   1.402023 A    
C118  C134  1.429828 S    
C31   C47   1.409201 A    
O4    Zn4   1.990880 S    
C35   N1    1.437129 S    
O9    Zn5   1.990718 S    
N48   O144  1.301508 A    
O37   Zn10  1.990238 S    
O11   Zn7   1.990718 S    
C134  C142  1.196506 T    
C30   N30   1.435218 S    
O2    Zn2   1.990880 S    
C103  C113  1.416058 A    
N16   O80   1.300959 A    
C84   H12   1.084106 S    
C124  C148  1.196145 T    
C110  N42   1.440848 S    
N39   O126  1.301506 A    
O5    C3    1.278337 A    
C61   C71   1.426483 A    
C128  C152  1.196099 T    
C77   C91   1.393429 A    
O34   C154  1.298455 A    
O7    Zn3   1.991197 S    
N31   O109  1.301653 A    
N11   O70   1.301347 A    
N26   O100  1.300326 A    
C108  C120  1.416218 A    
O17   Zn1   2.053439 S    
C50   C63   1.403619 A    
O36   C156  1.298623 A    
N10   O68   1.301232 A    
C97   C113  1.416175 A    
N12   O71   1.301108 A    
O14   Zn8   1.990400 S    
C3    C139  1.425961 S    
C82   C110  1.398176 A    
O2    C2    1.272710 A    
C22   N22   1.435188 S    
N21   O89   1.301674 A    
C1    C137  1.421765 S    
N42   O132  1.301479 A    
O36   Zn9   1.991540 S    
C55   C58   1.404194 A    
C23   C39   1.406185 A    
N25   O97   1.301181 A    
C54   C68   1.431157 A    
O8    C4    1.272328 A    
C73   H1    1.084096 S    
C75   C101  1.396816 A    
C135  C143  1.196536 T    
C119  C135  1.429593 S    
C75   H3    1.084188 S    
C120  C136  1.429323 S    
C17   C33   1.409250 A    
C7    C143  1.422821 S    
C117  C133  1.429585 S    
O41   C157  1.298404 A    
C64   C72   1.414831 A    
C20   N20   1.427691 S    
N23   O93   1.301675 A    
N3    O54   1.300736 A    
C96   C128  1.424176 S    
O38   C156  1.298366 A    
C84   C96   1.392907 A    
C87   C105  1.398216 A    
O35   C155  1.298807 A    
N43   O134  1.301493 A    
C149  C158  1.418426 S    
C85   C107  1.398201 A    
C32   C48   1.412638 A    
O33   Zn9   1.989856 S    
N47   O142  1.301510 A    
O25   Zn5   2.053439 S    
O6    C2    1.275924 A    
N4    O56   1.301240 A    
N5    O58   1.300400 A    
O44   C160  1.298672 A    
O27   Zn7   2.053069 S    
C78   C90   1.393953 A    
C74   C90   1.392562 A    
C85   H13   1.084092 S    
N9    O66   1.301286 A    
N29   O106  1.299597 A    
C125  C149  1.196248 T    
C10   C71   1.462991 S    
N28   O103  1.301277 A    
O19   C9    1.278800 A    
C33   N3    1.434744 S    
C14   C67   1.464877 S    
N2    O52   1.300976 A    
N13   O73   1.300907 A    
O24   C12   1.274614 A    
O24   Zn2   2.052127 S    
O12   Zn8   1.990880 S    
N30   O108  1.299258 A    
N35   O118  1.301314 A    
N14   O76   1.300759 A    
C111  N41   1.441141 S    
N40   O128  1.301512 A    
N1    O50   1.301293 A    
C49   C64   1.399964 A    
C51   C62   1.405172 A    
C49   C65   1.425217 A    
C20   C61   1.425198 A    
C30   C46   1.410821 A    
C19   C35   1.409600 A    
N45   O137  1.301173 A    
C131  C139  1.200034 T    
C129  C137  1.196493 T    
C40   C41   1.389045 A    
C103  N33   1.441155 S    
C146  C155  1.418787 S    
C106  C118  1.416308 A    
C109  C119  1.416043 A    
C28   C53   1.427014 A    
C115  C131  1.435675 S    
C42   N12   1.437620 S    
N18   O83   1.301306 A    
C48   N14   1.432518 S    
C113  C129  1.429648 S    
C53   C67   1.429801 A    
N20   O88   1.298939 A    
C32   C49   1.424496 A    
O20   Zn4   2.052129 S    
C22   C38   1.408057 A    
C54   C59   1.402180 A    
C116  C132  1.429386 S    
O20   C10   1.274253 A    
C105  N47   1.441407 S    
O10   Zn6   1.990880 S    
N44   O136  1.301485 A    
C83   C109  1.398075 A    
C99   C115  1.414220 A    
O15   C5    1.272445 A    
C132  C140  1.196379 T    
O16   C8    1.272696 A    
C89   C121  1.424492 S    
C18   C63   1.426349 A    
C17   N17   1.446410 S    
N37   O121  1.300897 A    
C86   C106  1.398138 A    
O1    Zn1   1.990718 S    
C4    C140  1.421747 S    
