data_mof_unit_32462.cif
_audit_creation_date              2012-12-10T17:18:56-0500
_audit_creation_method            fapswitch 2.2
_symmetry_space_group_name_H-M    P1
_symmetry_Int_Tables_number       1
_space_group_crystal_system       triclinic
_cell_length_a                    10.201087
_cell_length_b                    10.485066
_cell_length_c                    13.670833
_cell_angle_alpha                 92.404321
_cell_angle_beta                  100.810026
_cell_angle_gamma                 94.840387
_cell_volume                      1428.65369567

loop_
_atom_site_label
_atom_site_type_symbol
_atom_type_description
_atom_site_fract_x
_atom_site_fract_y
_atom_site_fract_z
_atom_type_partial_charge
C1    C     C_R   0.048567 0.733708 0.487641 0.966261
C2    C     C_2   0.965199 0.061280 0.415501 0.378209
C3    C     C_2   0.430854 0.511869 0.508901 -0.141200
C4    C     C_2   0.569152 0.488088 0.491164 -0.109052
C5    C     C_R   0.095085 0.516333 0.685781 0.858205
C6    C     C_R   0.906396 0.488961 0.314159 0.919600
C7    C     C_R   0.152909 0.548758 0.790690 -0.058852
C8    C     C_R   0.860847 0.498757 0.207400 -0.060714
C9    C     C_R   0.150229 0.655284 0.950690 -0.196061
C10   C     C_R   0.889741 0.474185 0.036413 -0.211111
C11   C     C_R   0.083437 0.610675 0.855145 -0.215107
C12   C     C_R   0.945717 0.265176 0.500006 0.970235
C13   C     C_R   0.938592 0.464926 0.137812 -0.160821
C14   C     C_R   0.287918 0.532409 0.821976 -0.256555
C15   C     C_R   0.738101 0.547434 0.175770 -0.206585
C16   C     C_R   0.359110 0.585658 0.913409 0.094257
C17   C     C_R   0.688173 0.559899 0.074904 0.095241
C18   C     C_R   0.287654 0.642293 0.980558 0.165883
C19   C     C_R   0.763665 0.518386 0.004328 0.170044
C20   C     C_R   0.498400 0.576955 0.941274 0.072032
C21   C     C_R   0.559318 0.600893 0.042537 0.063399
C22   C     C_R   0.487733 0.661155 0.108031 -0.204291
C23   C     C_R   0.578262 0.543797 0.871473 -0.222162
C24   C     C_R   0.354371 0.683742 0.076507 -0.222390
C25   C     C_R   0.710038 0.517158 0.902855 -0.232153
C26   C     C_2   0.063655 0.867320 0.463925 -0.454847
C27   C     C_2   0.911505 0.127711 0.482409 -0.458406
C28   C     C_2   0.957033 0.923164 0.416485 0.378010
Cl1   Cl    Cl    0.050180 0.132368 0.326907 -0.598614
Cl2   Cl    Cl    0.803283 0.838514 0.357050 -0.612765
H1    H     H_    0.302178 0.729574 0.128449 0.167407
H2    H     H_    0.948434 0.443039 0.983078 0.156686
H3    H     H_    0.533645 0.694558 0.183415 0.189010
H4    H     H_    0.541418 0.539626 0.791894 0.142886
H5    H     H_    0.578229 0.413165 0.436285 0.168526
H6    H     H_    0.421788 0.586739 0.563837 0.163524
H7    H     H_    0.664924 0.623972 0.590681 0.166063
H8    H     H_    0.335064 0.375970 0.409362 0.194288
H9    H     H_    0.767472 0.488992 0.847717 0.148490
H10   H     H_    0.679196 0.569415 0.230896 0.179750
H11   H     H_    0.336573 0.476465 0.773767 0.160771
H12   H     H_    0.850168 0.078686 0.528881 0.146268
H13   H     H_    0.159206 0.923193 0.491264 0.147143
H14   H     H_    0.035162 0.428737 0.161497 0.181972
H15   H     H_    0.978941 0.626129 0.831395 0.159774
H16   H     H_    0.095048 0.700764 0.000725 0.159788
N1    N     N_2   0.322180 0.446120 0.460900 -0.176768
N2    N     N_2   0.677820 0.553880 0.539100 -0.177056
O1    O     O_R   0.935190 0.693030 0.507870 -0.555233
O2    O     O_R   0.064810 0.306970 0.492130 -0.553098
O3    O     O_R   0.142080 0.658430 0.482770 -0.605106
O4    O     O_R   0.857920 0.341570 0.517230 -0.607644
O5    O     O_R   0.969700 0.527180 0.651960 -0.619614
O6    O     O_R   0.030300 0.472820 0.348040 -0.592405
O7    O     O_R   0.176600 0.492580 0.626860 -0.616650
O8    O     O_R   0.823400 0.507420 0.373140 -0.597950
Zn1   Zn    Zn3+2 0.861850 0.523100 0.516760 0.974592
Zn2   Zn    Zn3+2 0.138150 0.476900 0.483240 0.984897

loop_
_geom_bond_atom_site_label_1
_geom_bond_atom_site_label_2
_ccdc_geom_bond_type
C6    C8    S    
C5    C7    S    
C2    C27   D    
C9    C11   A    
C26   C28   D    
C20   C23   A    
C10   C19   A    
C16   C20   A    
C23   H4    S    
C20   C21   A    
C28   Cl2   S    
C4    H5    S    
N2    Zn1   S    
O3    Zn2   S    
C21   C22   A    
C25   H9    S    
H7    N2    S    
C7    C11   A    
C1    O3    A    
C27   H12   S    
H8    N1    S    
C8    C13   A    
C3    H6    S    
C6    O6    A    
C14   H11   S    
C18   C24   A    
C5    O5    A    
C17   C19   A    
C26   H13   S    
C8    C15   A    
C22   C24   A    
C2    Cl1   S    
O6    Zn2   S    
C1    C26   S    
C19   C25   A    
C14   C16   A    
C15   H10   S    
C24   H1    S    
C11   H15   S    
O4    Zn1   S    
C12   C27   S    
C3    C4    S    
O2    Zn2   S    
C10   H2    S    
C9    C18   A    
C9    H16   S    
C23   C25   A    
O1    Zn1   S    
O8    Zn1   S    
C16   C18   A    
C4    N2    D    
O7    Zn2   S    
C3    N1    D    
C15   C17   A    
C22   H3    S    
O5    Zn1   S    
C2    C28   S    
C12   O4    A    
C13   H14   S    
C1    O1    A    
C5    O7    A    
C7    C14   A    
C17   C21   A    
C6    O8    A    
C12   O2    A    
N1    Zn2   S    
C10   C13   A    
