data_mof_unit_66039.cif
_audit_creation_date              2012-12-11T17:35:56-0500
_audit_creation_method            fapswitch 2.2
_symmetry_space_group_name_H-M    P1
_symmetry_Int_Tables_number       1
_space_group_crystal_system       triclinic
_cell_length_a                    19.780823
_cell_length_b                    19.895281
_cell_length_c                    20.749698
_cell_angle_alpha                 108.075853
_cell_angle_beta                  107.224431
_cell_angle_gamma                 110.852157
_cell_volume                      6450.21274892

loop_
_atom_site_label
_atom_site_type_symbol
_atom_type_description
_atom_site_fract_x
_atom_site_fract_y
_atom_site_fract_z
_atom_type_partial_charge
C1    C     C_R   0.725065 0.717773 0.647483 -0.101960
C2    C     C_R   0.529395 0.696560 0.460597 -0.138448
C3    C     C_R   0.519725 0.445691 0.294372 0.516235
C4    C     C_R   0.426392 0.269142 0.496044 -0.055128
C5    C     C_R   0.340930 0.563828 0.570393 -0.078335
C6    C     C_R   0.563081 0.514783 0.290639 -0.114109
C7    C     C_R   0.271002 0.496028 0.549020 -0.146284
C8    C     C_R   0.477704 0.721595 0.477467 -0.100625
C9    C     C_R   0.261933 0.299657 0.272511 -0.196549
C10   C     C_3   0.042869 0.462366 0.641142 0.543530
C11   C     C_3   0.034068 0.539854 0.667587 -0.277078
C12   C     C_R   0.453365 0.225825 0.455292 -0.186592
C13   C     C_1   0.817072 0.498221 0.554962 0.033256
C14   C     C_1   0.213651 0.494983 0.577131 0.142157
C15   C     C_3   0.962200 0.418057 0.566424 -0.362071
C16   C     C_R   0.535430 0.555361 0.718865 -0.210378
C17   C     C_3   0.954989 0.495716 0.592168 -0.287122
C18   C     C_3   0.011230 0.452164 0.527799 0.667164
C19   C     C_3   0.090880 0.495239 0.601561 -0.435565
C20   C     C_3   0.003244 0.528323 0.552803 0.666138
C21   C     C_3   0.082240 0.571635 0.626728 0.319951
C22   C     C_1   0.879447 0.497018 0.576233 0.255180
C23   C     C_R   0.519888 0.485715 0.727074 -0.074038
C24   C     C_1   0.160871 0.494681 0.593846 0.316625
C25   C     C_3   0.432707 0.946385 0.483196 0.491101
C26   C     C_3   0.482306 0.000238 0.457130 0.402652
C27   C     C_1   0.427096 0.142260 0.430135 0.166939
C28   C     C_R   0.667909 0.432309 0.473968 -0.030902
C29   C     C_1   0.449520 0.767581 0.449184 0.111065
C30   C     C_3   0.354873 0.943594 0.434662 -0.281776
C31   C     C_3   0.405162 0.997641 0.408309 -0.201766
C32   C     C_3   0.335939 0.866870 0.365810 -0.192088
C33   C     C_3   0.414408 0.871430 0.415446 -0.136686
C34   C     C_R   0.743652 0.499558 0.524336 0.006974
C35   C     C_3   0.386834 0.922875 0.340396 0.557321
C36   C     C_3   0.464787 0.925408 0.389126 -0.338209
C37   C     C_1   0.411496 0.074048 0.414944 0.205713
C38   C     C_1   0.429399 0.810458 0.429476 0.170983
C39   C     C_R   0.593125 0.514189 0.233816 -0.100536
C40   C     C_R   0.465950 0.420477 0.655023 0.840854
C41   C     C_R   0.537378 0.460415 0.157095 0.840812
C42   C     C_R   0.562257 0.457378 0.101140 -0.354913
C43   C     C_R   0.643451 0.509195 0.120131 0.085346
C44   C     C_R   0.699990 0.561353 0.197211 0.481731
C45   C     C_R   0.582370 0.579773 0.355976 0.379014
C46   C     C_R   0.675165 0.562639 0.253920 -0.227773
C47   C     C_R   0.601904 0.545033 0.935567 0.490813
C48   C     C_R   0.573680 0.546880 0.866725 -0.301028
C49   C     C_R   0.613881 0.479381 0.937546 0.036991
C50   C     C_R   0.555872 0.484200 0.799094 -0.129052
C51   C     C_R   0.572438 0.421768 0.801724 0.852208
C52   C     C_R   0.735918 0.568302 0.538515 -0.027636
C53   C     C_R   0.600321 0.419224 0.870533 -0.357623
C54   C     C_R   0.794635 0.842534 0.773516 -0.183696
C55   C     C_R   0.780273 0.906402 0.804679 -0.128063
C56   C     C_R   0.274784 0.429809 0.507962 0.585167
C57   C     C_R   0.845029 0.982443 0.861882 -0.206071
C58   C     C_R   0.925194 0.995628 0.887391 -0.029181
C59   C     C_R   0.939551 0.933257 0.852926 0.653936
C60   C     C_R   0.874915 0.857025 0.796819 0.610407
C61   C     C_R   0.124026 0.207772 0.062337 -0.214305
C62   C     C_R   0.193268 0.254079 0.132090 -0.115530
C63   C     C_R   0.046851 0.177982 0.059575 0.000998
C64   C     C_R   0.499353 0.274339 0.432927 0.770451
C65   C     C_R   0.187586 0.269338 0.200704 -0.069365
C66   C     C_R   0.110805 0.256955 0.197209 0.358371
C67   C     C_R   0.462143 0.698171 0.529712 0.501596
C68   C     C_R   0.040660 0.208398 0.126610 0.686108
C69   C     C_R   0.652329 0.716868 0.710946 0.418540
C70   C     C_R   0.727595 0.761021 0.715278 0.065092
C71   C     C_R   0.340058 0.316232 0.280373 0.367571
C72   C     C_R   0.268772 0.315735 0.345206 0.755283
Cl1   Cl    Cl    0.229170 0.336605 0.508898 -0.450756
Cl2   Cl    Cl    0.610313 0.620858 0.014583 -0.505690
Cl3   Cl    Cl    0.801578 0.627691 0.223662 -0.446290
Cl4   Cl    Cl    0.099080 0.310395 0.274696 -0.379387
Cl5   Cl    Cl    0.609600 0.756173 0.765517 -0.589685
Cl6   Cl    Cl    0.664887 0.678455 0.397816 -0.608372
Cl7   Cl    Cl    0.422202 0.738969 0.586266 -0.520272
Cl8   Cl    Cl    0.356549 0.255415 0.211829 -0.441075
Cl9   Cl    Cl    0.536736 0.362876 0.264132 -0.442129
Cl10  Cl    Cl    0.071070 0.418781 0.700218 -0.466225
Cl11  Cl    Cl    0.161423 0.673158 0.665724 -0.406152
Cl12  Cl    Cl    0.580159 0.088434 0.518397 -0.476328
Cl13  Cl    Cl    0.463663 0.962419 0.579072 -0.430517
Cl14  Cl    Cl    0.355848 0.908770 0.245300 -0.463960
F1    F     F_    0.207079 0.283790 0.360913 -0.592794
F2    F     F_    0.517310 0.247303 0.375200 -0.625911
F3    F     F_    0.982283 0.562030 0.506334 -0.583342
F4    F     F_    0.999864 0.407878 0.455565 -0.566882
F5    F     F_    0.561232 0.362988 0.738189 -0.624516
F6    F     F_    0.457565 0.412960 0.135855 -0.645057
F7    F     F_    0.016653 0.945529 0.876754 -0.584293
F8    F     F_    0.890628 0.796475 0.767224 -0.628235
F9    F     F_    0.966119 0.188435 0.123397 -0.583311
F10   F     F_    0.427851 0.341300 0.638212 -0.645053
H1    H     H_    0.767546 0.740680 0.626527 0.175006
H2    H     H_    0.561114 0.595356 0.865617 0.223630
H3    H     H_    0.576842 0.616507 0.763588 0.211672
H4    H     H_    0.719926 0.601360 0.313064 0.245825
H5    H     H_    0.516171 0.418037 0.042349 0.213705
H6    H     H_    0.607800 0.368025 0.871110 0.220686
H7    H     H_    0.250752 0.276416 0.130853 0.231588
H8    H     H_    0.130776 0.191630 0.010630 0.213866
H9    H     H_    0.653211 0.369474 0.451545 0.182632
H10   H     H_    0.832375 0.030315 0.886326 0.215001
H11   H     H_    0.719463 0.898158 0.784618 0.234841
H12   H     H_    0.552789 0.705980 0.421678 0.201512
H13   H     H_    0.783941 0.630552 0.575090 0.151353
H14   H     H_    0.364818 0.621937 0.617997 0.219592
H15   H     H_    0.042529 0.575659 0.725178 0.228808
H16   H     H_    0.377354 0.243565 0.509279 0.226817
H17   H     H_    0.912342 0.354871 0.541493 0.233534
H18   H     H_    0.509736 0.917362 0.370476 0.221913
H19   H     H_    0.276064 0.810675 0.327746 0.202297
H20   H     H_    0.310298 0.952136 0.453641 0.220920
N1    N     N_R   0.652850 0.649780 0.604930 -0.086591
N2    N     N_2   0.617217 0.461211 0.998610 -0.023030
N3    N     N_2   0.992890 0.068033 0.950446 0.006619
N4    N     N_R   0.456500 0.342990 0.499770 -0.108177
N5    N     N_2   0.976243 0.112695 0.992453 0.003135
N6    N     N_R   0.494340 0.533260 0.644920 -0.084544
N7    N     N_R   0.615020 0.459520 0.459780 -0.054949
N8    N     N_R   0.452560 0.449470 0.604910 -0.138216
N9    N     N_R   0.656790 0.543300 0.499790 -0.060675
N10   N     N_R   0.501270 0.345760 0.459770 -0.135874
N11   N     N_R   0.608080 0.647010 0.644930 -0.094319
N12   N     N_R   0.343210 0.456700 0.500210 -0.131034
N13   N     N_R   0.547440 0.550530 0.395090 -0.126891
N14   N     N_R   0.498730 0.654240 0.540230 -0.095745
N15   N     N_R   0.391920 0.352990 0.355070 -0.131373
N16   N     N_R   0.347150 0.350220 0.395070 -0.160318
N17   N     N_R   0.543500 0.657010 0.500230 -0.066053
N18   N     N_R   0.505660 0.466740 0.355080 -0.142087
N19   N     N_R   0.384980 0.540480 0.540220 -0.093172
N20   N     N_2   0.663356 0.521230 0.062831 0.039550
Ni1   Ni    Ni4+2 0.599250 0.599260 0.500010 0.258995
Ni2   Ni    Ni4+2 0.400750 0.400740 0.499990 0.291332
Ni3   Ni    Ni4+2 0.496570 0.592910 0.591740 0.275821
Ni4   Ni    Ni4+2 0.503430 0.407090 0.408260 0.324839

loop_
_geom_bond_atom_site_label_1
_geom_bond_atom_site_label_2
_ccdc_geom_bond_type
C15   C18   S    
C66   C68   A    
C45   N13   A    
C6    C45   A    
C41   C42   A    
C69   Cl5   S    
C35   C36   S    
C9    C72   A    
N17   Ni1   S    
C3    C6    A    
C36   H18   S    
C17   C20   S    
C53   H6    S    
C28   N7    A    
C39   C41   A    
C54   C60   A    
N19   Ni3   S    
N10   Ni4   S    
C8    C29   S    
N8    Ni2   S    
C19   C21   S    
N6    Ni3   S    
C10   C15   S    
N18   Ni4   S    
C30   C31   S    
C12   C64   A    
C35   Cl14  S    
N4    N10   A    
N7    N9    A    
C5    H14   S    
N16   Ni2   S    
C23   C40   A    
C33   C36   S    
C15   C17   S    
C18   C19   S    
C14   C24   T    
C61   C63   A    
C16   N6    A    
N12   Ni2   S    
N15   Ni4   S    
C51   F5    S    
C63   C68   A    
C7    C14   S    
C21   Cl11  S    
C29   C38   T    
C3    Cl9   S    
C47   C48   A    
C15   H17   S    
C45   Cl6   S    
C17   C22   S    
C4    C12   A    
C28   H9    S    
C48   C50   A    
C57   H10   S    
C4    H16   S    
C28   C34   A    
C59   C60   A    
C61   C62   A    
N11   Ni3   S    
C7    C56   A    
C40   F10   S    
N14   Ni3   S    
C71   Cl8   S    
C63   N5    S    
C44   C46   A    
C72   N16   A    
N3    N5    D    
C40   N8    A    
N1    Ni1   S    
C2    N17   A    
C12   C27   S    
C11   H15   S    
C18   F4    S    
C32   C35   S    
C61   H8    S    
C67   Cl7   S    
C47   C49   A    
N12   N19   A    
C1    H1    S    
C5    C7    A    
C23   C50   S    
C30   H20   S    
N9    Ni1   S    
C58   C59   A    
N7    Ni4   S    
C10   Cl10  S    
C31   C37   S    
C55   H11   S    
C51   C53   A    
C44   Cl3   S    
C43   C44   A    
C49   N2    S    
C54   C70   S    
C10   C19   S    
C66   Cl4   S    
C25   Cl13  S    
C50   C51   A    
C1    N1    A    
N1    N11   A    
C68   F9    S    
C39   C46   A    
C26   C36   S    
C16   C23   A    
C64   N10   A    
C55   C57   A    
C31   C35   S    
C67   N14   A    
N4    Ni2   S    
C42   C43   A    
N6    N8    A    
N15   N16   A    
C42   H5    S    
C72   F1    S    
N2    N20   D    
C62   H7    S    
C25   C30   S    
C5    N19   A    
C46   H4    S    
C54   C55   A    
C11   C17   S    
C26   Cl12  S    
C56   Cl1   S    
C62   C65   A    
C2    C8    A    
C9    C71   A    
C47   Cl2   S    
C52   N9    A    
C16   H3    S    
C43   N20   S    
C48   H2    S    
C20   F3    S    
C34   C52   A    
C1    C70   A    
C3    N18   A    
C32   C33   S    
C19   C24   S    
C25   C26   S    
C13   C34   S    
C30   C32   S    
C57   C58   A    
C52   H13   S    
C27   C37   T    
C49   C53   A    
C2    H12   S    
C58   N3    S    
C11   C21   S    
C13   C22   T    
C18   C20   S    
C56   N12   A    
C32   H19   S    
C69   C70   A    
C9    C65   S    
C10   C11   S    
C71   N15   A    
N13   N18   A    
N14   N17   A    
C26   C31   S    
C41   F6    S    
N13   Ni1   S    
C20   C21   S    
C69   N11   A    
C8    C67   A    
C65   C66   A    
C6    C39   S    
C4    N4    A    
C33   C38   S    
C59   F7    S    
C64   F2    S    
C25   C33   S    
C60   F8    S    
