data_mof_unit_38366.cif
_audit_creation_date              2012-10-26T18:43:31-0400
_audit_creation_method            fapswitch 2.2
_symmetry_space_group_name_H-M    P1
_symmetry_Int_Tables_number       1
_space_group_crystal_system       triclinic
_cell_length_a                    10.803964
_cell_length_b                    10.818947
_cell_length_c                    9.604707
_cell_angle_alpha                 89.871136
_cell_angle_beta                  90.338448
_cell_angle_gamma                 91.310158
_cell_volume                      1122.35473395

loop_
_atom_site_label
_atom_site_type_symbol
_atom_type_description
_atom_site_fract_x
_atom_site_fract_y
_atom_site_fract_z
_atom_type_partial_charge
C1    C     C_R   0.492608 0.262754 0.500008 0.544286
C2    C     C_R   0.545319 0.938995 0.608231 -0.010208
C3    C     C_3   0.678609 0.943841 0.651398 -0.266582
C4    C     C_R   0.260366 0.496910 0.499184 0.665887
C5    C     C_3   0.671311 0.082798 0.652013 -0.242574
C6    C     C_R   0.591224 0.560886 0.074029 0.178974
C7    C     C_R   0.414098 0.434392 0.075557 0.082336
C8    C     C_R   0.413067 0.433442 0.928135 0.337301
C9    C     C_R   0.593782 0.557692 0.926744 0.089668
C10   C     C_3   0.631552 0.691446 0.917994 0.107642
C11   C     C_3   0.620543 0.696959 0.075978 0.432437
C12   C     C_3   0.878739 0.499225 0.501281 0.046694
C13   C     C_R   0.499577 0.737492 0.499872 0.545872
C14   C     C_R   0.739983 0.498820 0.500429 0.605298
C15   C     C_3   0.071842 0.409723 0.615082 0.048392
C16   C     C_3   0.928278 0.421133 0.628216 0.412429
C17   C     C_3   0.079113 0.633396 0.524488 0.439667
C18   C     C_3   0.069837 0.449192 0.351464 0.414438
C19   C     C_3   0.122559 0.497387 0.496673 0.077099
C20   C     C_3   0.933010 0.636942 0.511159 0.354889
C21   C     C_3   0.924789 0.442035 0.360279 0.085256
C22   C     C_R   0.539727 0.066228 0.608214 -0.000919
C23   C     C_R   0.479174 0.129088 0.502293 0.012412
C24   C     C_R   0.409916 0.060161 0.401525 0.230485
C25   C     C_R   0.418160 0.931100 0.400866 -0.027142
C26   C     C_R   0.490672 0.870665 0.500666 -0.015531
Cu1   Cu    Cu3+1 0.499990 0.499980 0.640670 1.030694
Cu2   Cu    Cu3+1 0.500010 0.500020 0.359330 1.073949
H1    H     H_    0.115414 0.438213 0.715845 0.151679
H2    H     H_    0.728621 0.126906 0.569302 0.205740
H3    H     H_    0.343718 0.382422 0.131918 0.185454
H4    H     H_    0.112541 0.244449 0.680943 0.339160
H5    H     H_    0.345827 0.338315 0.775418 0.375296
H6    H     H_    0.807619 0.647866 0.916841 0.391000
H7    H     H_    0.564302 0.749289 0.861219 0.154204
H8    H     H_    0.748266 0.814407 0.131888 0.370885
H9    H     H_    0.445490 0.742810 0.073655 0.310879
H10   H     H_    0.894107 0.259404 0.714661 0.328834
H11   H     H_    0.930272 0.431812 0.832748 0.316186
H12   H     H_    0.886910 0.497922 0.273381 0.200345
H13   H     H_    0.073478 0.634512 0.731695 0.366349
H14   H     H_    0.796137 0.708987 0.614749 0.341408
H15   H     H_    0.054116 0.598297 0.230142 0.370387
H16   H     H_    0.095013 0.309580 0.226869 0.369478
H17   H     H_    0.918723 0.262016 0.395702 0.413898
H18   H     H_    0.116737 0.799427 0.453530 0.389456
H19   H     H_    0.811996 0.718957 0.390598 0.345243
H20   H     H_    0.314933 0.197677 0.332676 0.367433
H21   H     H_    0.367979 0.878239 0.322232 0.203121
H22   H     H_    0.694094 0.906384 0.757118 0.210761
H23   H     H_    0.741232 0.909633 0.569346 0.167305
H24   H     H_    0.680698 0.124203 0.757486 0.173979
N1    N     N_R   0.500800 0.500930 0.147930 -0.291665
N2    N     N_R   0.500800 0.500890 0.852020 -0.270529
O1    O     O_R   0.500000 0.319640 0.618810 -0.526885
O2    O     O_3   0.902058 0.703635 0.389585 -0.693488
O3    O     O_3   0.335856 0.113674 0.301798 -0.655877
O4    O     O_3   0.105169 0.286663 0.589448 -0.655883
O5    O     O_3   0.318507 0.365672 0.867015 -0.710765
O6    O     O_3   0.753736 0.709199 0.870975 -0.666678
O7    O     O_3   0.731809 0.724628 0.145851 -0.656549
O8    O     O_3   0.522862 0.770594 0.121751 -0.668588
O9    O     O_3   0.868838 0.303830 0.628938 -0.674166
O10   O     O_3   0.899779 0.481996 0.753541 -0.679678
O11   O     O_3   0.122219 0.674511 0.656695 -0.642017
O12   O     O_R   0.500010 0.319680 0.381230 -0.495785
O13   O     O_3   0.886389 0.699745 0.627521 -0.603585
O14   O     O_3   0.109830 0.527565 0.241060 -0.655702
O15   O     O_3   0.117054 0.331352 0.324494 -0.621305
O16   O     O_3   0.874450 0.322126 0.337093 -0.665920
O17   O     O_R   0.317690 0.499960 0.618790 -0.509130
O18   O     O_R   0.317700 0.500000 0.381210 -0.443930
O19   O     O_R   0.499990 0.680320 0.618770 -0.512471
O20   O     O_R   0.500000 0.680360 0.381190 -0.453284
O21   O     O_R   0.682300 0.500000 0.618790 -0.432873
O22   O     O_R   0.682310 0.500040 0.381210 -0.486398
O23   O     O_3   0.134398 0.713314 0.425412 -0.628475

loop_
_geom_bond_atom_site_label_1
_geom_bond_atom_site_label_2
_ccdc_geom_bond_type
C18   C21   S    
C20   O13   S    
Cu2   O12   S    
H4    O4    S    
C20   O2    S    
C11   O8    S    
Cu2   O20   S    
C6    C9    A    
H9    O8    S    
Cu1   N2    S    
H20   O3    S    
C15   C19   S    
H11   O10   S    
H10   O9    S    
C8    O5    S    
Cu1   O1    S    
C18   O14   S    
C15   C16   S    
C17   C20   S    
C18   C19   S    
C4    C19   S    
C5    C22   S    
C12   C16   S    
C24   O3    S    
C2    C22   A    
C23   C24   A    
C5    H24   S    
C10   H7    S    
C16   O9    S    
C9    C10   S    
C18   O15   S    
H5    O5    S    
H6    O6    S    
Cu2   O18   S    
Cu1   O21   S    
C3    H22   S    
C15   H1    S    
C7    H3    S    
C7    C8    A    
C24   C25   A    
C8    N2    A    
C6    C11   S    
C3    H23   S    
H15   O14   S    
H13   O11   S    
C11   O7    S    
C25   C26   A    
C12   C21   S    
C14   O22   A    
C10   O6    S    
C12   C20   S    
C17   O23   S    
C1    O12   A    
H16   O15   S    
C2    C26   A    
C12   C14   S    
C1    C23   S    
H14   O13   S    
C15   O4    S    
C13   C26   S    
C7    N1    A    
C6    N1    A    
H8    O7    S    
Cu2   O22   S    
C4    O18   A    
Cu1   O17   S    
C5    H2    S    
H17   O16   S    
C13   O19   A    
C3    C5    S    
H18   O23   S    
Cu2   N1    S    
C17   O11   S    
C21   O16   S    
C14   O21   A    
C2    C3    S    
C1    O1    A    
C21   H12   S    
C17   C19   S    
C25   H21   S    
C10   C11   S    
C13   O20   A    
Cu1   Cu2   S    
C22   C23   A    
C9    N2    A    
C16   O10   S    
Cu1   O19   S    
C4    O17   A    
H19   O2    S    
