data_mof_unit_54872.cif
_audit_creation_date              2012-12-10T17:44:28-0500
_audit_creation_method            fapswitch 2.2
_symmetry_space_group_name_H-M    P1
_symmetry_Int_Tables_number       1
_space_group_crystal_system       triclinic
_cell_length_a                    9.94922
_cell_length_b                    10.654892
_cell_length_c                    15.584946
_cell_angle_alpha                 90.955002
_cell_angle_beta                  67.42702
_cell_angle_gamma                 90.652914
_cell_volume                      1525.32537173

loop_
_atom_site_label
_atom_site_type_symbol
_atom_type_description
_atom_site_fract_x
_atom_site_fract_y
_atom_site_fract_z
_atom_type_partial_charge
C1    C     C_R   0.501297 0.739077 0.499360 0.841507
C2    C     C_R   0.726166 0.544562 0.034360 0.078960
C3    C     C_R   0.583321 0.502930 0.088644 0.079991
C4    C     C_R   0.408392 0.502116 0.675627 0.949186
C5    C     C_R   0.826238 0.570544 0.076090 -0.057038
C6    C     C_R   0.786266 0.552960 0.171118 -0.156554
C7    C     C_R   0.553693 0.470974 0.180441 -0.120290
C8    C     C_R   0.340049 0.865266 0.670601 -0.206402
C9    C     C_R   0.253178 0.927380 0.751900 -0.258124
C10   C     C_R   0.239864 0.057000 0.752702 -0.165967
C11   C     C_R   0.315661 0.125359 0.672806 0.602025
C12   C     C_R   0.415367 0.493628 0.911511 0.051231
C13   C     C_R   0.406867 0.064007 0.589611 -0.029073
C14   C     C_R   0.415365 0.932543 0.588170 0.028715
C15   C     C_R   0.501076 0.871619 0.504281 -0.096511
C16   C     C_R   0.497067 0.260792 0.503510 0.984155
C17   C     C_R   0.585649 0.937628 0.424522 -0.007049
C18   C     C_R   0.581819 0.066254 0.427310 -0.237309
C19   C     C_R   0.492589 0.128330 0.507829 -0.103775
C20   C     C_R   0.792979 0.667977 0.618246 -0.057788
C21   C     C_R   0.828640 0.746999 0.678394 -0.143263
C22   C     C_R   0.965842 0.742129 0.681124 -0.151085
C23   C     C_R   0.272585 0.451274 0.965240 -0.075259
C24   C     C_R   0.068944 0.659702 0.622566 -0.083751
C25   C     C_R   0.037626 0.579851 0.559732 0.046172
C26   C     C_R   0.894045 0.581738 0.558639 0.171435
C27   C     C_R   0.961526 0.422413 0.443595 -0.187304
C28   C     C_R   0.591583 0.499225 0.324411 0.870963
C29   C     C_R   0.104531 0.422623 0.443348 0.723197
C30   C     C_R   0.350937 0.496615 0.776617 -0.171937
C31   C     C_R   0.648397 0.504299 0.223451 -0.114845
C32   C     C_R   0.172969 0.426147 0.922800 0.595484
C33   C     C_R   0.213077 0.447259 0.828201 -0.212850
C34   C     C_R   0.521903 0.504113 0.951260 -0.104659
C35   C     C_R   0.445364 0.528015 0.820141 -0.182356
C36   C     C_1   0.675808 0.875486 0.338770 0.195350
C37   C     C_R   0.476800 0.490751 0.048913 -0.137735
C38   C     C_R   0.326443 0.468678 0.103063 0.612290
C39   C     C_R   0.229475 0.441084 0.060823 -0.236135
C40   C     C_R   0.672411 0.524460 0.896832 0.616317
C41   C     C_R   0.769688 0.552675 0.938702 -0.261899
F1    F     F_    0.297096 0.250780 0.678086 -0.697475
F2    F     F_    0.204694 0.342653 0.385506 -0.629368
F3    F     F_    0.039851 0.376076 0.971720 -0.683481
F4    F     F_    0.267163 0.482329 0.196856 -0.668237
F5    F     F_    0.731084 0.507222 0.803341 -0.678944
H1    H     H_    0.117417 0.419088 0.104152 0.215933
H2    H     H_    0.457862 0.417955 0.220210 0.246910
H3    H     H_    0.992675 0.802622 0.728820 0.148960
H4    H     H_    0.171740 0.660242 0.628532 0.184262
H5    H     H_    0.861734 0.578201 0.203513 0.173632
H6    H     H_    0.882071 0.573799 0.895400 0.170277
H7    H     H_    0.138080 0.422838 0.795266 0.222557
H8    H     H_    0.541769 0.580855 0.781157 0.209019
H9    H     H_    0.934386 0.605662 0.035468 0.141266
H10   H     H_    0.348993 0.764609 0.673332 0.116640
H11   H     H_    0.195671 0.874702 0.814313 0.166593
H12   H     H_    0.171095 0.105090 0.815793 0.187154
H13   H     H_    0.646996 0.118826 0.366003 0.150292
H14   H     H_    0.934888 0.358894 0.397489 0.180763
H15   H     H_    0.685032 0.677320 0.621296 0.172908
H16   H     H_    0.748555 0.811531 0.723864 0.142949
N1    N     N_R   0.856800 0.501200 0.500850 -0.154375
N2    N     N_R   0.142390 0.501280 0.500880 -0.177809
N3    N     N_1   0.748134 0.826260 0.270048 -0.203625
O1    O     O_R   0.385310 0.683220 0.500000 -0.635001
O2    O     O_R   0.614640 0.683250 0.500010 -0.644079
O3    O     O_R   0.319840 0.499980 0.632240 -0.611634
O4    O     O_R   0.549160 0.500000 0.632250 -0.614407
O5    O     O_R   0.385360 0.316750 0.499990 -0.533546
O6    O     O_R   0.614690 0.316780 0.500000 -0.619463
O7    O     O_R   0.450840 0.500000 0.367750 -0.557804
O8    O     O_R   0.680160 0.500020 0.367760 -0.617121
Zn1   Zn    Zn3+2 0.346880 0.499980 0.499990 1.036562
Zn2   Zn    Zn3+2 0.653120 0.500020 0.500010 0.971675

loop_
_geom_bond_atom_site_label_1
_geom_bond_atom_site_label_2
_ccdc_geom_bond_type
C27   C29   A    
C34   C37   A    
C8    H10   S    
C40   F5    S    
C12   C23   A    
N1    Zn2   S    
C30   C35   A    
C34   C40   A    
C10   H12   S    
C3    C7    A    
C27   H14   S    
C5    C6    A    
C2    C41   A    
O3    Zn1   S    
O1    Zn1   S    
C11   F1    S    
C18   C19   A    
C20   H15   S    
C38   F4    S    
C8    C9    A    
O5    Zn1   S    
C1    C15   S    
C17   C36   S    
C6    H5    S    
C9    C10   A    
C41   H6    S    
C6    C31   A    
C29   N2    A    
C13   C14   A    
C29   F2    S    
C35   H8    S    
C33   H7    S    
O8    Zn2   S    
C28   O7    A    
C16   O6    A    
C28   O8    A    
C4    O4    A    
C1    O1    A    
C24   H4    S    
C7    C31   A    
C13   C19   A    
C16   O5    A    
C24   C25   A    
O7    Zn1   S    
C4    O3    A    
C36   N3    T    
C25   C26   A    
C25   N2    A    
C26   N1    A    
C37   C38   A    
C17   C18   A    
C32   F3    S    
C12   C35   A    
C21   H16   S    
C27   N1    A    
C22   H3    S    
C40   C41   A    
C22   C24   A    
C2    C5    A    
O2    Zn2   S    
C12   C34   A    
C39   H1    S    
C15   C17   A    
C8    C14   A    
C30   C33   A    
C5    H9    S    
C28   C31   S    
C23   C32   A    
C7    H2    S    
C2    C3    A    
C32   C33   A    
O6    Zn2   S    
C11   C13   A    
C38   C39   A    
C20   C26   A    
C16   C19   S    
C23   C39   A    
C1    O2    A    
O4    Zn2   S    
C9    H11   S    
C10   C11   A    
C18   H13   S    
C20   C21   A    
C3    C37   A    
N2    Zn1   S    
C14   C15   A    
C21   C22   A    
C4    C30   S    
