data_mof_unit_7058.cif
_audit_creation_date              2012-12-10T17:02:13-0500
_audit_creation_method            fapswitch 2.2
_symmetry_space_group_name_H-M    P1
_symmetry_Int_Tables_number       1
_space_group_crystal_system       triclinic
_cell_length_a                    10.635663
_cell_length_b                    10.644191
_cell_length_c                    10.027704
_cell_angle_alpha                 89.322812
_cell_angle_beta                  89.964152
_cell_angle_gamma                 89.914627
_cell_volume                      1135.13583932

loop_
_atom_site_label
_atom_site_type_symbol
_atom_type_description
_atom_site_fract_x
_atom_site_fract_y
_atom_site_fract_z
_atom_type_partial_charge
C1    C     C_R   0.487479 0.263115 0.500634 0.899182
C2    C     C_R   0.066107 0.388760 0.569659 0.093317
C3    C     C_R   0.128336 0.486433 0.499916 -0.102031
C4    C     C_R   0.064132 0.577998 0.426996 -0.213823
C5    C     C_R   0.935760 0.577948 0.426953 -0.213078
C6    C     C_R   0.871751 0.486196 0.499635 -0.100853
C7    C     C_2   0.423585 0.929795 0.406607 -0.206922
C8    C     C_2   0.497146 0.870841 0.495702 -0.344764
C9    C     C_2   0.420002 0.066438 0.397452 0.047838
C10   C     C_2   0.455962 0.132455 0.504721 -0.413966
C11   C     C_2   0.565705 0.424415 0.925883 -0.133616
C12   C     C_R   0.260559 0.495814 0.500114 0.852137
C13   C     C_2   0.561179 0.420881 0.075918 -0.093304
C14   C     C_R   0.500002 0.737792 0.499095 0.941259
C15   C     C_R   0.739445 0.495544 0.500004 0.868948
C16   C     C_R   0.131328 0.290267 0.635997 -0.210465
C17   C     C_R   0.065830 0.194581 0.701787 -0.139474
C18   C     C_R   0.935029 0.194188 0.701142 -0.140084
C19   C     C_R   0.869255 0.289547 0.634792 -0.191776
C20   C     C_R   0.934246 0.388508 0.569273 0.102531
H1    H     H_    0.113753 0.651483 0.372753 0.151612
H2    H     H_    0.464138 0.088530 0.602504 0.148242
H3    H     H_    0.625566 0.356338 0.877045 0.156249
H4    H     H_    0.439865 0.562011 0.896949 0.163654
H5    H     H_    0.612461 0.346105 0.126375 0.163083
H6    H     H_    0.456715 0.575327 0.101507 0.157583
H7    H     H_    0.232758 0.284770 0.636010 0.148475
H8    H     H_    0.116779 0.119806 0.752190 0.137713
H9    H     H_    0.884327 0.119044 0.750982 0.131951
H10   H     H_    0.767815 0.283528 0.633727 0.147139
H11   H     H_    0.885974 0.651433 0.372735 0.154837
H12   H     H_    0.368265 0.876454 0.335729 0.160977
H13   H     H_    0.557109 0.918234 0.566393 0.139608
N1    N     N_2   0.501340 0.501330 0.852150 -0.192407
N2    N     N_2   0.501380 0.501360 0.147810 -0.190598
O1    O     O_R   0.499980 0.319060 0.613040 -0.635837
O2    O     O_R   0.500020 0.319100 0.386900 -0.593159
O3    O     O_R   0.316750 0.499980 0.613090 -0.617003
O4    O     O_R   0.316790 0.500020 0.386950 -0.618023
O5    O     O_R   0.499980 0.680900 0.613100 -0.608651
O6    O     O_R   0.500020 0.680940 0.386960 -0.613014
O7    O     O_R   0.683210 0.499980 0.613050 -0.611899
O8    O     O_R   0.683250 0.500020 0.386910 -0.609451
Zn1   Zn    Zn3+2 0.499970 0.499970 0.650990 0.929834
Zn2   Zn    Zn3+2 0.500030 0.500030 0.349010 0.942772
C21   C     C_R   0.375083 0.124555 0.270366 0.163686
C22   C     C_R   0.430484 0.091550 0.148389 -0.178951
C23   C     C_R   0.387455 0.145471 0.028917 -0.156359
C24   C     C_R   0.288544 0.232059 0.030216 -0.116967
C25   C     C_R   0.231839 0.264197 0.150892 -0.122114
C26   C     C_R   0.274168 0.210083 0.270445 -0.090059
H14   H     H_    0.507642 0.025096 0.146012 0.134464
H15   H     H_    0.431192 0.120616 0.935341 0.132808
H16   H     H_    0.255897 0.274206 0.937746 0.139747
H17   H     H_    0.154932 0.330900 0.151860 0.137361
H18   H     H_    0.228662 0.234883 0.363056 0.111640

loop_
_geom_bond_atom_site_label_1
_geom_bond_atom_site_label_2
_ccdc_geom_bond_type
O3    Zn1   S    
C22   H14   S    
C7    H12   S    
C2    C16   A    
C9    C10   D    
C19   C20   A    
C1    O2    A    
O4    Zn2   S    
C17   H8    S    
C12   O4    A    
C17   C18   A    
C15   O8    A    
C9    C21   S    
C18   H9    S    
C10   H2    S    
C4    H1    S    
O8    Zn2   S    
C13   H5    S    
C23   H15   S    
O7    Zn1   S    
C16   H7    S    
C14   O6    A    
C4    C5    A    
C13   N2    D    
C11   H3    S    
C23   C24   A    
C14   O5    A    
C2    C3    A    
C8    H13   S    
C12   O3    A    
C5    C6    A    
O1    Zn1   S    
C11   C13   S    
C7    C8    D    
O2    Zn2   S    
C3    C4    A    
N2    Zn2   S    
C22   C23   A    
H6    N2    S    
O5    Zn1   S    
C6    C20   A    
C15   O7    A    
C24   C25   A    
C7    C9    S    
N1    Zn1   S    
O6    Zn2   S    
C21   C22   A    
C18   C19   A    
C8    C14   S    
C3    C12   S    
C24   H16   S    
C25   C26   A    
C6    C15   S    
C19   H10   S    
C2    C20   A    
C21   C26   A    
C11   N1    D    
H4    N1    S    
C1    C10   S    
C25   H17   S    
C1    O1    A    
C16   C17   A    
C5    H11   S    
C26   H18   S    
