data_mof_unit_56782.cif
_audit_creation_date              2012-12-10T17:30:25-0500
_audit_creation_method            fapswitch 2.2
_symmetry_space_group_name_H-M    P1
_symmetry_Int_Tables_number       1
_space_group_crystal_system       triclinic
_cell_length_a                    12.099435
_cell_length_b                    12.865612
_cell_length_c                    14.999566
_cell_angle_alpha                 92.280411
_cell_angle_beta                  86.961654
_cell_angle_gamma                 94.069129
_cell_volume                      2324.25007892

loop_
_atom_site_label
_atom_site_type_symbol
_atom_type_description
_atom_site_fract_x
_atom_site_fract_y
_atom_site_fract_z
_atom_type_partial_charge
C1    C     C_R   0.522262 0.700231 0.498125 0.880821
C2    C     C_R   0.361919 0.135051 0.486697 -0.205253
C3    C     C_R   0.441903 0.866063 0.484600 -0.276261
C4    C     C_R   0.558097 0.133937 0.515400 -0.276261
C5    C     C_R   0.448645 0.973137 0.491140 0.184035
C6    C     C_R   0.551355 0.026863 0.508860 0.184035
C7    C     C_R   0.949376 0.401304 0.415079 -0.333022
C8    C     C_R   0.050624 0.598696 0.584921 -0.333022
C9    C     C_R   0.835184 0.410969 0.423473 -0.036612
C10   C     C_R   0.164816 0.589031 0.576527 -0.036612
C11   C     C_R   0.860658 0.543803 0.537199 0.305506
C12   C     C_R   0.477738 0.299769 0.501875 0.880821
C13   C     C_R   0.139342 0.456197 0.462801 0.305506
C14   C     C_R   0.977552 0.536124 0.530983 0.055191
C15   C     C_R   0.022448 0.463876 0.469017 0.055191
C16   C     C_R   0.500583 0.500196 0.673154 0.890711
C17   C     C_R   0.499417 0.499804 0.326846 0.890712
C18   C     C_R   0.398515 0.502160 0.189290 -0.262629
C19   C     C_R   0.601485 0.497840 0.810710 -0.262628
C20   C     C_R   0.498976 0.499852 0.230848 -0.072030
C21   C     C_R   0.501024 0.500148 0.769152 -0.072031
C22   C     C_R   0.599766 0.497551 0.180657 -0.255750
C23   C     C_R   0.701914 0.495554 0.945312 -0.218044
C24   C     C_R   0.400234 0.502449 0.819343 -0.255750
C25   C     C_R   0.600918 0.497624 0.088491 0.115804
C26   C     C_R   0.399082 0.502376 0.911509 0.115804
C27   C     C_R   0.499766 0.499951 0.046383 0.061963
C28   C     C_R   0.500234 0.500048 0.953617 0.061963
C29   C     C_R   0.398164 0.502192 0.097024 0.119489
C30   C     C_R   0.601836 0.497807 0.902976 0.119489
C31   C     C_R   0.701458 0.495449 0.037949 -0.218041
C32   C     C_R   0.298542 0.504551 0.962051 -0.218041
C33   C     C_3   0.185553 0.377391 0.396271 -0.894429
C34   C     C_R   0.298086 0.504446 0.054687 -0.218044
C35   C     C_3   0.814447 0.622609 0.603729 -0.894429
C36   C     C_R   0.464371 0.188068 0.502686 -0.047909
C37   C     C_R   0.535629 0.811931 0.497313 -0.047909
C38   C     C_R   0.645941 0.972850 0.519110 -0.218891
C39   C     C_R   0.354059 0.027150 0.480890 -0.218891
C40   C     C_R   0.638081 0.864949 0.513303 -0.205254
H1    H     H_    0.320688 0.503860 0.228486 0.165158
H2    H     H_    0.219788 0.506135 0.093149 0.144693
H3    H     H_    0.637188 0.174961 0.529158 0.163397
H4    H     H_    0.362812 0.825039 0.470842 0.163397
H5    H     H_    0.289101 0.176721 0.476855 0.161843
H6    H     H_    0.710899 0.823279 0.523145 0.161843
H7    H     H_    0.725099 0.013841 0.532347 0.139804
H8    H     H_    0.274901 0.986158 0.467653 0.139804
H9    H     H_    0.219626 0.637405 0.618119 0.143825
H10   H     H_    0.780374 0.362595 0.381881 0.143825
H11   H     H_    0.274811 0.373611 0.395408 0.294541
H12   H     H_    0.679312 0.496139 0.771514 0.165158
H13   H     H_    0.149396 0.298042 0.411856 0.208460
H14   H     H_    0.165186 0.396278 0.327690 0.210408
H15   H     H_    0.725189 0.626389 0.604591 0.294542
H16   H     H_    0.834814 0.603722 0.672310 0.210408
H17   H     H_    0.850603 0.701958 0.588144 0.208460
H18   H     H_    0.978695 0.344494 0.366028 0.166807
H19   H     H_    0.021305 0.655506 0.633972 0.166807
H20   H     H_    0.677615 0.495863 0.213074 0.164390
H21   H     H_    0.322385 0.504137 0.786926 0.164390
H22   H     H_    0.779448 0.493676 0.070038 0.144955
H23   H     H_    0.220552 0.506324 0.929962 0.144955
H24   H     H_    0.780212 0.493864 0.906851 0.144693
N1    N     N_R   0.207800 0.519350 0.516680 -0.102512
N2    N     N_R   0.792200 0.480650 0.483320 -0.102512
O1    O     O_R   0.421700 0.658830 0.504450 -0.624805
O2    O     O_R   0.578300 0.341170 0.495550 -0.624805
O3    O     O_R   0.609310 0.646410 0.493750 -0.633701
O4    O     O_R   0.390690 0.353590 0.506250 -0.633701
O5    O     O_R   0.406180 0.506230 0.637500 -0.625395
O6    O     O_R   0.593820 0.493770 0.362500 -0.625396
O7    O     O_R   0.593800 0.493820 0.626800 -0.634487
O8    O     O_R   0.406200 0.506180 0.373200 -0.634487
Zn1   Zn    Zn3+2 0.374730 0.508290 0.507150 0.937973
Zn2   Zn    Zn3+2 0.625270 0.491710 0.492850 0.937973

loop_
_geom_bond_atom_site_label_1
_geom_bond_atom_site_label_2
_ccdc_geom_bond_type
C25   C31   A    
C38   C40   A    
C4    C36   A    
C26   C32   A    
C16   C21   S    
C27   C29   A    
C34   H2    S    
O6    Zn2   S    
C13   N1    A    
C40   H6    S    
C12   O2    A    
C24   H21   S    
C19   C21   A    
C24   C26   A    
C37   C40   A    
C8    H19   S    
C22   H20   S    
C5    C6    A    
C11   C14   A    
C17   C20   S    
O3    Zn2   S    
C9    N2    A    
C19   H12   S    
C22   C25   A    
C6    C38   A    
C12   C36   S    
C7    H18   S    
C11   N2    A    
C1    C37   S    
C7    C15   A    
C31   H22   S    
C16   O5    A    
C2    C39   A    
C2    H5    S    
C33   H13   S    
C3    H4    S    
O8    Zn1   S    
C35   H15   S    
C16   O7    A    
C23   C30   A    
C4    C6    A    
C18   H1    S    
C29   C34   A    
C1    O3    A    
C23   C31   A    
C13   C33   S    
N2    Zn2   S    
C18   C29   A    
C38   H7    S    
C23   H24   S    
C20   C22   A    
C13   C15   A    
C17   O8    A    
O7    Zn2   S    
C33   H11   S    
O4    Zn1   S    
C10   N1    A    
C2    C36   A    
C33   H14   S    
C7    C9    A    
C5    C39   A    
C12   O4    A    
C8    C14   A    
C35   H16   S    
C9    H10   S    
C32   H23   S    
C3    C5    A    
C4    H3    S    
O2    Zn2   S    
C26   C28   A    
N1    Zn1   S    
C35   H17   S    
C28   C30   A    
O5    Zn1   S    
C10   H9    S    
C11   C35   S    
C1    O1    A    
C18   C20   A    
O1    Zn1   S    
C3    C37   A    
C17   O6    A    
C8    C10   A    
C21   C24   A    
C27   C28   A    
C14   C15   A    
C19   C30   A    
C32   C34   A    
C39   H8    S    
C25   C27   A    
