data_mof_unit_42122.cif
_audit_creation_date              2012-12-10T19:09:35-0500
_audit_creation_method            fapswitch 2.2
_symmetry_space_group_name_H-M    P1
_symmetry_Int_Tables_number       1
_space_group_crystal_system       triclinic
_cell_length_a                    15.14557
_cell_length_b                    15.061403
_cell_length_c                    10.007258
_cell_angle_alpha                 89.259497
_cell_angle_beta                  89.8141
_cell_angle_gamma                 90.009829
_cell_volume                      2282.58826491

loop_
_atom_site_label
_atom_site_type_symbol
_atom_type_description
_atom_site_fract_x
_atom_site_fract_y
_atom_site_fract_z
_atom_type_partial_charge
C1    C     C_R   0.122024 0.381227 0.500593 0.977421
C2    C     C_R   0.881107 0.622704 0.499754 1.023608
C3    C     C_R   0.381201 0.877188 0.500440 1.023889
C4    C     C_R   0.382780 0.124824 0.500065 1.014048
C5    C     C_3   0.835682 0.227263 0.601356 0.569332
C6    C     C_3   0.813168 0.255431 0.360592 0.591317
C7    C     C_3   0.834024 0.764121 0.390263 0.572912
C8    C     C_3   0.809681 0.738204 0.638990 0.552654
C9    C     C_3   0.333826 0.735527 0.609692 0.571457
C10   C     C_3   0.310246 0.761728 0.361177 0.553634
C11   C     C_3   0.342658 0.278351 0.412982 0.614490
C12   C     C_R   0.122275 0.619058 0.499448 0.967900
C13   C     C_3   0.300510 0.232373 0.644286 0.549934
C14   C     C_3   0.260857 0.664508 0.609553 -0.542039
C15   C     C_3   0.240818 0.688184 0.362406 -0.513181
C16   C     C_3   0.275763 0.354346 0.431496 -0.514294
C17   C     C_3   0.218387 0.290635 0.647483 -0.513036
C18   C     C_3   0.758726 0.161854 0.607133 -0.562585
C19   C     C_3   0.742368 0.182988 0.360467 -0.482850
C20   C     C_3   0.761184 0.835231 0.390277 -0.544055
C21   C     C_3   0.740225 0.811718 0.637511 -0.511746
C22   C     C_3   0.727343 0.346147 0.526941 -0.706579
C23   C     C_R   0.622232 0.880875 0.500372 0.966820
C24   C     C_3   0.723268 0.650202 0.469775 -0.714408
C25   C     C_3   0.223332 0.849505 0.531269 -0.716205
C26   C     C_3   0.227870 0.156832 0.452823 -0.688582
C27   C     C_3   0.817457 0.302074 0.497712 -0.282333
C28   C     C_3   0.814029 0.692750 0.499876 -0.253064
C29   C     C_3   0.314159 0.807064 0.500496 -0.251478
C30   C     C_3   0.316007 0.196468 0.501647 -0.283038
C31   C     C_3   0.191891 0.686364 0.499000 -0.221218
C32   C     C_3   0.192490 0.315915 0.501972 -0.231177
C33   C     C_3   0.691848 0.184683 0.495183 -0.238006
C34   C     C_R   0.621385 0.119419 0.498706 0.992871
C35   C     C_3   0.691806 0.813492 0.500832 -0.221058
C36   C     C_3   0.150149 0.778891 0.524720 1.206080
C37   C     C_3   0.161660 0.231363 0.428013 1.188290
C38   C     C_3   0.652442 0.278973 0.512062 1.219588
C39   C     C_3   0.650133 0.720940 0.475408 1.207496
C40   C     C_3   0.085265 0.470887 0.078611 -0.258770
C41   C     C_3   0.079189 0.457394 0.922002 -0.272521
C42   C     C_3   0.002763 0.592024 0.918168 -0.239144
C43   C     C_3   0.989284 0.591377 0.077516 -0.238393
C44   C     C_3   0.503516 0.907977 0.081628 -0.237422
C45   C     C_3   0.924624 0.442361 0.082595 -0.162405
C46   C     C_3   0.489986 0.908566 0.922373 -0.234743
C47   C     C_3   0.585014 0.029806 0.920364 -0.262502
C48   C     C_3   0.578965 0.043106 0.077092 -0.273903
C49   C     C_2   0.941028 0.343007 0.123514 0.898691
C50   C     C_2   0.898719 0.366512 0.863440 0.955883
C51   C     C_2   0.834929 0.515363 0.876731 0.952981
C52   C     C_2   0.832952 0.462216 0.142824 0.910436
C53   C     C_2   0.335572 0.982335 0.124572 0.963904
C54   C     C_2   0.332269 0.036213 0.860704 0.896688
C55   C     C_2   0.438444 0.156547 0.879379 0.906523
C56   C     C_3   0.916324 0.457329 0.920052 -0.156962
C57   C     C_2   0.398522 0.133345 0.140660 0.963201
C58   C     C_3   0.416037 0.042216 0.081605 -0.167747
C59   C     C_3   0.424012 0.056955 0.918970 -0.163078
C60   C     C_R   0.884441 0.373742 0.500025 1.017948
F1    F     F_    0.914425 0.183474 0.576994 -0.536838
F2    F     F_    0.092565 0.800844 0.422121 -0.594592
F3    F     F_    0.159747 0.248217 0.291786 -0.641395
F4    F     F_    0.078540 0.204532 0.470357 -0.566253
F5    F     F_    0.598638 0.282960 0.622890 -0.600366
F6    F     F_    0.602247 0.301776 0.401106 -0.599767
F7    F     F_    0.603809 0.721586 0.355956 -0.599417
F8    F     F_    0.591825 0.699324 0.577788 -0.593851
F9    F     F_    0.893436 0.216372 0.331812 -0.549463
F10   F     F_    0.915312 0.803441 0.411659 -0.526898
F11   F     F_    0.891149 0.773175 0.673452 -0.550557
F12   F     F_    0.415092 0.696152 0.587746 -0.526709
F13   F     F_    0.391838 0.726870 0.326388 -0.550542
F14   F     F_    0.427304 0.307296 0.440729 -0.525693
F15   F     F_    0.372544 0.282803 0.682279 -0.547233
F16   F     F_    0.103001 0.778009 0.643897 -0.600650
H1    H     H_    0.839946 0.254280 0.698389 0.144962
H2    H     H_    0.272575 0.622683 0.344553 0.240801
H3    H     H_    0.305042 0.407910 0.492942 0.249062
H4    H     H_    0.232413 0.350709 0.707691 0.247006
H5    H     H_    0.783636 0.092735 0.596027 0.232646
H6    H     H_    0.772921 0.116471 0.346180 0.238888
H7    H     H_    0.790373 0.902006 0.407176 0.239407
H8    H     H_    0.771894 0.877241 0.655313 0.240921
H9    H     H_    0.228862 0.662481 0.709858 0.195780
H10   H     H_    0.194001 0.700624 0.278638 0.201470
H11   H     H_    0.259411 0.384484 0.332407 0.194483
H12   H     H_    0.795532 0.305017 0.283702 0.139807
H13   H     H_    0.163097 0.254190 0.697405 0.217366
H14   H     H_    0.726198 0.165677 0.706960 0.211412
H15   H     H_    0.697444 0.194888 0.274171 0.219946
H16   H     H_    0.729575 0.837270 0.290006 0.195462
H17   H     H_    0.693063 0.799282 0.721300 0.200937
H18   H     H_    0.726961 0.371436 0.630461 0.281006
H19   H     H_    0.716268 0.404026 0.458540 0.223188
H20   H     H_    0.724228 0.619871 0.369148 0.263979
H21   H     H_    0.708839 0.595666 0.542427 0.218327
H22   H     H_    0.223993 0.879147 0.632385 0.262194
H23   H     H_    0.836046 0.732948 0.290014 0.113978
H24   H     H_    0.209167 0.904561 0.459620 0.219333
H25   H     H_    0.236650 0.120938 0.359003 0.302703
H26   H     H_    0.201685 0.108447 0.528224 0.207617
H27   H     H_    0.114776 0.412296 0.127474 0.246267
H28   H     H_    0.084443 0.386110 0.900994 0.228303
H29   H     H_    0.955449 0.637419 0.867865 0.230628
H30   H     H_    0.925324 0.621832 0.103838 0.231784
H31   H     H_    0.456754 0.862021 0.132476 0.230467
H32   H     H_    0.426243 0.877741 0.896225 0.230984
H33   H     H_    0.613894 0.088630 0.871046 0.223821
H34   H     H_    0.790828 0.688558 0.717210 0.120367
H35   H     H_    0.584146 0.114323 0.098182 0.228308
H36   H     H_    0.137186 0.521565 0.098287 0.147182
H37   H     H_    0.139324 0.486055 0.873911 0.164631
H38   H     H_    0.067705 0.623278 0.894072 0.185386
H39   H     H_    0.038524 0.636832 0.122612 0.176025
H40   H     H_    0.568736 0.877294 0.104946 0.183964
H41   H     H_    0.539580 0.863536 0.876762 0.175132
H42   H     H_    0.637343 0.979613 0.899967 0.148493
H43   H     H_    0.639272 0.014693 0.124405 0.162624
H44   H     H_    0.019882 0.249174 0.199646 0.442119
H45   H     H_    0.335674 0.766515 0.710064 0.113890
H46   H     H_    0.953601 0.246138 0.826971 0.366539
H47   H     H_    0.730327 0.532267 0.754572 0.348976
H48   H     H_    0.703156 0.430256 0.149812 0.372461
H49   H     H_    0.231213 0.962357 0.246513 0.348025
H50   H     H_    0.201335 0.063598 0.863177 0.361628
H51   H     H_    0.517920 0.253258 0.813841 0.429588
H52   H     H_    0.452483 0.254055 0.177390 0.373040
H53   H     H_    0.291631 0.811368 0.283114 0.120670
H54   H     H_    0.339679 0.261160 0.308072 0.142546
H55   H     H_    0.289569 0.177458 0.715248 0.131698
H56   H     H_    0.290016 0.597706 0.592594 0.238184
N1    N     N_3   0.998760 0.500000 0.138610 -0.096785
N2    N     N_3   0.998760 0.500000 0.861390 -0.124945
N3    N     N_3   0.498760 1.000000 0.138610 -0.125247
N4    N     N_3   0.498760 0.000000 0.861390 -0.092507
O1    O     O_R   0.092530 0.407440 0.616040 -0.621437
O2    O     O_R   0.907330 0.407420 0.383960 -0.624734
O3    O     O_R   0.907330 0.592580 0.383960 -0.587337
O4    O     O_R   0.907330 0.592580 0.616040 -0.609031
O5    O     O_R   0.407330 0.907420 0.616040 -0.586157
O6    O     O_R   0.407330 0.907420 0.383960 -0.608726
O7    O     O_R   0.407330 0.092580 0.383960 -0.598283
O8    O     O_R   0.407330 0.092580 0.616040 -0.619424
O9    O     O_2   0.888024 0.285269 0.093722 -0.561262
O10   O     O_R   0.013622 0.316155 0.197530 -0.685366
O11   O     O_2   0.823818 0.336230 0.874117 -0.567611
O12   O     O_R   0.092530 0.407440 0.383960 -0.566640
O13   O     O_R   0.967966 0.311749 0.821565 -0.792654
O14   O     O_2   0.814235 0.581933 0.938210 -0.651650
O15   O     O_R   0.783649 0.492377 0.766606 -0.778361
O16   O     O_2   0.819505 0.527168 0.210284 -0.604566
O17   O     O_R   0.760467 0.409764 0.107567 -0.752875
O18   O     O_2   0.315629 0.916246 0.061520 -0.653994
O19   O     O_R   0.284735 0.002278 0.236369 -0.785119
O20   O     O_2   0.319771 0.973480 0.788561 -0.605432
O21   O     O_R   0.258734 0.084771 0.903837 -0.753994
O22   O     O_2   0.383165 0.212214 0.909330 -0.542775
O23   O     O_R   0.092530 0.592560 0.383960 -0.636404
O24   O     O_R   0.512178 0.186348 0.809484 -0.705705
O25   O     O_2   0.323074 0.162644 0.139654 -0.536938
O26   O     O_R   0.468186 0.188765 0.178016 -0.775546
O27   O     O_R   0.092530 0.592560 0.616040 -0.608118
O28   O     O_R   0.592530 0.907440 0.616040 -0.636571
O29   O     O_R   0.592530 0.907440 0.383960 -0.609163
O30   O     O_R   0.592530 0.092560 0.383960 -0.614693
O31   O     O_R   0.592530 0.092560 0.616040 -0.581875
O32   O     O_R   0.907330 0.407420 0.616040 -0.598440
Zn1   Zn    Zn3+2 0.999890 0.500000 0.654960 1.003602
Zn2   Zn    Zn3+2 0.999890 0.500000 0.345040 1.011804
Zn3   Zn    Zn3+2 0.499890 0.000000 0.654960 1.009618
Zn4   Zn    Zn3+2 0.499890 1.000000 0.345040 1.007683

loop_
_geom_bond_atom_site_label_1
_geom_bond_atom_site_label_2
_ccdc_geom_bond_type
C50   O11   D    
C6    F9    S    
H44   O10   S    
O4    Zn1   S    
O23   Zn2   S    
C55   C59   S    
C47   N4    S    
O2    Zn2   S    
C39   F8    S    
C48   N3    S    
C3    O5    A    
C9    F12   S    
C14   C31   S    
N1    Zn2   S    
C24   C39   S    
C4    O7    A    
C40   H36   S    
C14   H56   S    
O30   Zn4   S    
C6    C19   S    
C20   H16   S    
O8    Zn3   S    
C60   O32   A    
C7    H23   S    
C11   C30   S    
C2    O3    A    
C12   O27   A    
O7    Zn4   S    
C27   C60   S    
C24   H20   S    
C26   H25   S    
C54   O20   D    
C10   F13   S    
C44   H31   S    
C15   H2    S    
C22   C38   S    
C59   N4    S    
O5    Zn3   S    
C18   H5    S    
C6    H12   S    
O3    Zn2   S    
C43   N1    S    
C51   C56   S    
C22   H19   S    
C3    C29   S    
C36   F16   S    
C43   H39   S    
C23   O29   A    
C20   C35   S    
C42   H38   S    
C55   O22   D    
C57   O26   S    
C13   F15   S    
C51   O14   D    
N2    Zn1   S    
C46   H32   S    
C49   O10   S    
C16   H11   S    
C9    H45   S    
C21   H8    S    
C19   H6    S    
O1    Zn1   S    
C9    C29   S    
C44   N3    S    
C51   O15   S    
C53   O18   D    
C5    C27   S    
H48   O17   S    
C22   H18   S    
C3    O6    A    
C7    F10   S    
C36   F2    S    
C41   N2    S    
C37   F3    S    
C44   C46   S    
C8    C21   S    
C48   H43   S    
C54   C59   S    
C47   H42   S    
C25   C29   S    
H47   O15   S    
C5    F1    S    
C24   H21   S    
C18   H14   S    
H46   O13   S    
C38   F6    S    
C13   C30   S    
C17   H13   S    
C45   C56   S    
C19   C33   S    
O31   Zn3   S    
C5    C18   S    
C45   C52   S    
C52   O17   S    
C47   H33   S    
C7    C20   S    
C17   H4    S    
C50   C56   S    
C7    C28   S    
C46   H41   S    
C43   H30   S    
C35   C39   S    
C9    C14   S    
C8    H34   S    
C11   C16   S    
C1    O12   A    
C25   H24   S    
O12   Zn2   S    
C6    C27   S    
C38   F5    S    
C45   C49   S    
C52   O16   D    
H52   O26   S    
C33   C34   S    
C13   H55   S    
C49   O9    D    
C32   C37   S    
C15   H10   S    
O32   Zn1   S    
C53   O19   S    
C23   C35   S    
C22   C27   S    
C12   C31   S    
C8    C28   S    
C42   C43   S    
C5    H1    S    
C34   O31   A    
C11   H54   S    
C37   F4    S    
C1    O1    A    
O6    Zn4   S    
C23   O28   A    
H50   O21   S    
C40   C41   S    
C8    F11   S    
C39   F7    S    
C24   C28   S    
C14   H9    S    
C41   H37   S    
N3    Zn4   S    
C47   C48   S    
C11   F14   S    
C4    O8    A    
C56   N2    S    
C53   C58   S    
C26   C37   S    
C15   C31   S    
C21   C35   S    
C13   C17   S    
C58   N3    S    
C16   C32   S    
C40   N1    S    
C45   N1    S    
C33   C38   S    
C41   H28   S    
C55   O24   S    
C10   C15   S    
C16   H3    S    
C2    O4    A    
C58   C59   S    
N4    Zn3   S    
C26   H26   S    
C54   O21   S    
C50   O13   S    
C57   C58   S    
C21   H17   S    
O29   Zn4   S    
C42   N2    S    
C1    C32   S    
C12   O23   A    
O27   Zn1   S    
C18   C33   S    
C10   H53   S    
C19   H15   S    
C25   C36   S    
C46   N4    S    
C10   C29   S    
C25   H22   S    
C48   H35   S    
C57   O25   D    
C44   H40   S    
C42   H29   S    
C20   H7    S    
C17   C32   S    
C31   C36   S    
O28   Zn3   S    
C2    C28   S    
C34   O30   A    
H51   O24   S    
C4    C30   S    
H49   O19   S    
C60   O2    A    
C40   H27   S    
C26   C30   S    
