data_mof_unit_66005.cif
_audit_creation_date              2012-10-26T19:37:43-0400
_audit_creation_method            fapswitch 2.2
_symmetry_space_group_name_H-M    P1
_symmetry_Int_Tables_number       1
_space_group_crystal_system       triclinic
_cell_length_a                    11.716823
_cell_length_b                    15.807525
_cell_length_c                    17.129375
_cell_angle_alpha                 95.975647
_cell_angle_beta                  90.455358
_cell_angle_gamma                 92.157862
_cell_volume                      3152.89810208

loop_
_atom_site_label
_atom_site_type_symbol
_atom_type_description
_atom_site_fract_x
_atom_site_fract_y
_atom_site_fract_z
_atom_type_partial_charge
C1    C     C_R   0.498504 0.489878 0.348598 0.556223
C2    C     C_R   0.476680 0.108806 0.483521 0.158764
C3    C     C_R   0.592465 0.848153 0.565438 -0.150249
C4    C     C_R   0.407535 0.151847 0.434562 -0.150249
C5    C     C_R   0.586499 0.758739 0.561193 -0.029373
C6    C     C_R   0.413500 0.241261 0.438806 -0.029373
C7    C     C_R   0.283809 0.500319 0.499954 0.553743
C8    C     C_R   0.716191 0.499681 0.500046 0.553744
C9    C     C_1   0.162251 0.500786 0.499983 0.008958
C10   C     C_1   0.837749 0.499214 0.500017 0.008958
C11   C     C_1   0.059855 0.500398 0.499995 -0.013267
C12   C     C_R   0.501496 0.510122 0.651402 0.556223
C13   C     C_1   0.940145 0.499602 0.500005 -0.013267
C14   C     C_R   0.495042 0.485037 0.262684 -0.051756
C15   C     C_R   0.504958 0.514963 0.737316 -0.051756
C16   C     C_R   0.494007 0.559957 0.225509 -0.087764
C17   C     C_R   0.505993 0.440043 0.774491 -0.087764
C18   C     C_R   0.489942 0.556202 0.144072 0.409875
C19   C     C_R   0.510058 0.443798 0.855927 0.409875
C20   C     C_R   0.487952 0.476295 0.098235 0.227277
C21   C     C_R   0.512048 0.523705 0.901765 0.227277
C22   C     C_R   0.486953 0.401814 0.135669 -0.144807
C23   C     C_R   0.490881 0.405863 0.217201 -0.174259
C24   C     C_R   0.513047 0.598186 0.864331 -0.144807
C25   C     C_R   0.509119 0.594136 0.782798 -0.174259
C26   C     C_R   0.445176 0.752277 0.461193 0.511476
C27   C     C_R   0.554824 0.247723 0.538807 0.511477
C28   C     C_R   0.448598 0.841548 0.463599 -0.068373
C29   C     C_R   0.551402 0.158452 0.536401 -0.068373
C30   C     C_R   0.523320 0.891194 0.516479 0.158764
Cu1   Cu    Cu3+1 0.494550 0.415220 0.496180 1.045205
Cu2   Cu    Cu3+1 0.505450 0.584780 0.503820 1.045205
F1    F     F_    0.514083 0.369497 0.888958 -0.595366
F2    F     F_    0.485917 0.630503 0.111042 -0.595366
F3    F     F_    0.627465 0.294066 0.589943 -0.606497
F4    F     F_    0.372535 0.705934 0.410056 -0.606497
H1    H     H_    0.504418 0.378202 0.740587 0.194643
H2    H     H_    0.349004 0.116182 0.393093 0.137503
H3    H     H_    0.640367 0.726632 0.599366 0.140571
H4    H     H_    0.359633 0.273368 0.400634 0.140571
H5    H     H_    0.495582 0.621798 0.259413 0.194643
H6    H     H_    0.484187 0.340243 0.101268 0.169696
H7    H     H_    0.515813 0.659757 0.898732 0.169696
H8    H     H_    0.490734 0.347057 0.244495 0.154933
H9    H     H_    0.509266 0.652943 0.755505 0.154933
H10   H     H_    0.606876 0.128979 0.575609 0.157880
H11   H     H_    0.393124 0.871021 0.424391 0.157880
H12   H     H_    0.650996 0.883817 0.606907 0.137503
N1    N     N_2   0.485176 0.467180 0.015044 -0.131594
N2    N     N_2   0.514824 0.532820 0.984956 -0.131594
N3    N     N_R   0.513630 0.712130 0.509560 -0.222963
N4    N     N_R   0.486370 0.287870 0.490440 -0.222963
N5    N     N_2   0.532021 0.982773 0.522664 -0.222680
N6    N     N_2   0.467979 0.017227 0.477336 -0.222680
O1    O     O_R   0.494910 0.420530 0.382500 -0.521607
O2    O     O_R   0.505090 0.579470 0.617500 -0.521608
O3    O     O_R   0.504100 0.563720 0.388950 -0.452853
O4    O     O_R   0.495900 0.436280 0.611050 -0.452854
O5    O     O_R   0.332600 0.428410 0.496780 -0.515344
O6    O     O_R   0.667400 0.571590 0.503220 -0.515343
O7    O     O_R   0.341800 0.571600 0.503230 -0.437996
O8    O     O_R   0.658200 0.428400 0.496770 -0.437996

loop_
_geom_bond_atom_site_label_1
_geom_bond_atom_site_label_2
_ccdc_geom_bond_type
C14   C23   A    
C3    C30   A    
C2    C4    A    
C24   C25   A    
C28   H11   S    
C20   N1    S    
C1    O3    A    
C27   C29   A    
C9    C11   T    
Cu1   N4    S    
C26   C28   A    
Cu1   Cu2   S    
C12   C15   S    
C29   H10   S    
C3    C5    A    
C12   O4    A    
C7    C9    S    
C28   C30   A    
C1    O1    A    
Cu2   N3    S    
C6    N4    A    
C17   H1    S    
N5    N6    D    
C8    O6    A    
C18   F2    S    
Cu1   O8    S    
C22   H6    S    
Cu2   O3    S    
C2    C29   A    
Cu1   O1    S    
Cu1   O4    S    
C7    O5    A    
C21   N2    S    
C12   O2    A    
C20   C22   A    
Cu2   O7    S    
C18   C20   A    
C5    H3    S    
C19   F1    S    
C30   N5    S    
C14   C16   A    
C15   C25   A    
C4    C6    A    
Cu2   O6    S    
Cu1   O5    S    
C25   H9    S    
C3    H12   S    
C11   C13   S    
C6    H4    S    
C27   N4    A    
C16   C18   A    
N1    N2    D    
C2    N6    S    
C21   C24   A    
C26   F4    S    
C15   C17   A    
C24   H7    S    
C22   C23   A    
C17   C19   A    
C1    C14   S    
C27   F3    S    
C26   N3    A    
C16   H5    S    
Cu2   O2    S    
C8    C10   S    
C7    O7    A    
C23   H8    S    
C8    O8    A    
C4    H2    S    
C5    N3    A    
C19   C21   A    
C10   C13   T    
