data_mof_unit_43567.cif
_audit_creation_date              2012-12-10T18:53:46-0500
_audit_creation_method            fapswitch 2.2
_symmetry_space_group_name_H-M    P1
_symmetry_Int_Tables_number       1
_space_group_crystal_system       triclinic
_cell_length_a                    10.658697
_cell_length_b                    9.834362
_cell_length_c                    19.212347
_cell_angle_alpha                 89.493448
_cell_angle_beta                  89.588562
_cell_angle_gamma                 90.22336
_cell_volume                      2013.7203059

loop_
_atom_site_label
_atom_site_type_symbol
_atom_type_description
_atom_site_fract_x
_atom_site_fract_y
_atom_site_fract_z
_atom_type_partial_charge
C1    C     C_R   0.260228 0.499764 0.500385 0.960229
C2    C     C_R   0.066419 0.553514 0.442375 0.106282
C3    C     C_R   0.872405 0.500706 0.500661 -0.202652
C4    C     C_R   0.128034 0.499432 0.500484 -0.204126
C5    C     C_R   0.570529 0.071471 0.546736 -0.046271
C6    C     C_R   0.429442 0.928538 0.453278 -0.050878
C7    C     C_R   0.429414 0.072475 0.453287 -0.053064
C8    C     C_R   0.570570 0.927533 0.546717 -0.052884
C9    C     C_R   0.547162 0.605083 0.252300 -0.248107
C10   C     C_R   0.503725 0.371306 0.745494 -0.235727
C11   C     C_R   0.490359 0.617991 0.747482 -0.272207
C12   C     C_R   0.739918 0.500227 0.500292 0.964790
C13   C     C_R   0.418928 0.401585 0.257489 -0.290138
C14   C     C_R   0.544063 0.604042 0.180229 0.445689
C15   C     C_R   0.504460 0.366957 0.817737 0.445103
C16   C     C_R   0.486040 0.614567 0.819816 0.442693
C17   C     C_R   0.412062 0.399242 0.184816 0.468625
C18   C     C_R   0.478739 0.498912 0.145704 -0.143818
C19   C     C_R   0.494126 0.488698 0.854683 -0.139789
C20   C     C_R   0.489008 0.501730 0.290641 -0.134716
C21   C     C_R   0.498026 0.496520 0.710181 -0.146130
C22   C     C_3   0.535335 0.813812 0.130142 0.106121
C23   C     C_R   0.492784 0.485136 0.929588 0.331458
C24   C     C_3   0.606582 0.913662 0.083482 -0.790072
C25   C     C_3   0.641005 0.210103 0.858823 0.085481
C26   C     C_3   0.652656 0.074008 0.896321 -0.772943
C27   C     C_3   0.351451 0.765628 0.868145 0.095150
C28   C     C_3   0.342018 0.890490 0.914081 -0.783211
C29   C     C_3   0.358543 0.173736 0.168724 0.097561
C30   C     C_3   0.290085 0.081836 0.118103 -0.774147
C31   C     C_R   0.483757 0.492006 0.069479 0.314206
C32   C     C_R   0.497777 0.500544 0.365732 0.955343
C33   C     C_R   0.499618 0.499312 0.634523 0.960066
C34   C     C_R   0.064275 0.446426 0.558863 0.119028
C35   C     C_R   0.936508 0.554437 0.442582 0.117199
C36   C     C_R   0.934147 0.446905 0.558923 0.108604
H1    H     H_    0.597421 0.685849 0.278084 0.198559
H2    H     H_    0.448490 0.782487 0.102403 0.133705
H3    H     H_    0.692288 0.950036 0.110191 0.266236
H4    H     H_    0.633971 0.863455 0.034113 0.277373
H5    H     H_    0.546502 0.002262 0.071030 0.196148
H6    H     H_    0.691072 0.288184 0.889986 0.157597
H7    H     H_    0.687284 0.201362 0.806844 0.165613
H8    H     H_    0.611426 0.992082 0.864231 0.285996
H9    H     H_    0.753101 0.050735 0.905406 0.218204
H10   H     H_    0.602914 0.077675 0.947222 0.255967
H11   H     H_    0.301876 0.680246 0.895380 0.151640
H12   H     H_    0.509716 0.276508 0.717372 0.192120
H13   H     H_    0.303477 0.787935 0.818025 0.158448
H14   H     H_    0.382066 0.980509 0.886538 0.287626
H15   H     H_    0.242081 0.911129 0.926645 0.217203
H16   H     H_    0.393733 0.873252 0.963364 0.252092
H17   H     H_    0.324286 0.147971 0.221999 0.145457
H18   H     H_    0.461078 0.152936 0.164797 0.130278
H19   H     H_    0.325747 0.099662 0.064307 0.258034
H20   H     H_    0.304702 0.973728 0.132674 0.189483
H21   H     H_    0.187861 0.103199 0.119689 0.274959
H22   H     H_    0.486172 0.715421 0.720850 0.185153
H23   H     H_    0.366269 0.328565 0.288564 0.162425
H24   H     H_    0.626877 0.125640 0.584092 0.151523
H25   H     H_    0.373059 0.874382 0.415940 0.153233
H26   H     H_    0.372962 0.127452 0.415963 0.130430
H27   H     H_    0.627020 0.872560 0.584037 0.140160
H28   H     H_    0.509437 0.866117 0.179354 0.135428
I1    I     I_    0.165282 0.371973 0.647570 -0.302725
I2    I     I_    0.837225 0.631883 0.354434 -0.291211
I3    I     I_    0.830478 0.372577 0.647679 -0.370356
I4    I     I_    0.170118 0.628431 0.353610 -0.332432
N1    N     N_R   0.500000 0.857200 0.500000 -0.086084
N2    N     N_R   0.500000 0.142800 0.500000 -0.084395
N3    N     N_R   0.580261 0.551082 0.034016 -0.111329
N4    N     N_R   0.397349 0.423429 0.964406 -0.144075
N5    N     N_R   0.584329 0.548824 0.965117 -0.142278
N6    N     N_R   0.392808 0.427247 0.033389 -0.103971
O1    O     O_R   0.316770 0.614620 0.500000 -0.603216
O2    O     O_3   0.512811 0.243220 0.852084 -0.606204
O3    O     O_3   0.479124 0.734893 0.856366 -0.608838
O4    O     O_3   0.331059 0.310307 0.151677 -0.578549
O5    O     O_R   0.683230 0.385380 0.500000 -0.601043
O6    O     O_R   0.683230 0.614620 0.500000 -0.603650
O7    O     O_R   0.316770 0.385380 0.500000 -0.604750
O8    O     O_R   0.499990 0.614700 0.398140 -0.611093
O9    O     O_R   0.500010 0.385300 0.601860 -0.612117
O10   O     O_R   0.500010 0.614700 0.601860 -0.631240
O11   O     O_R   0.499990 0.385300 0.398140 -0.628311
O12   O     O_3   0.613035 0.701274 0.144165 -0.571989
Zn1   Zn    Zn3+2 0.500000 0.653120 0.500000 0.987544
Zn2   Zn    Zn3+2 0.500000 0.346880 0.500000 0.988476

loop_
_geom_bond_atom_site_label_1
_geom_bond_atom_site_label_2
_ccdc_geom_bond_type
C2    C35   A    
C6    N1    A    
C12   O5    A    
C22   O12   S    
C14   C18   A    
C19   C23   S    
O10   Zn1   S    
N2    Zn2   S    
C25   H7    S    
C7    N2    A    
C36   I3    S    
C26   H8    S    
C15   C19   A    
C8    N1    A    
C29   C30   S    
C6    H25   S    
O6    Zn1   S    
C2    I4    S    
C10   C15   A    
C28   H15   S    
C21   C33   S    
C29   H18   S    
C1    O7    A    
O8    Zn1   S    
C22   H2    S    
C30   H21   S    
C24   H3    S    
C16   O3    S    
C3    C12   S    
C26   H9    S    
C28   H14   S    
C29   O4    S    
C11   H22   S    
N1    Zn1   S    
C31   N3    A    
O9    Zn2   S    
C24   H5    S    
C23   N5    A    
C34   I1    S    
O5    Zn2   S    
C10   C21   A    
C4    C34   A    
C1    O1    A    
C14   O12   S    
N4    N6    A    
N3    N5    A    
C31   N6    A    
C35   I2    S    
C25   C26   S    
C30   H20   S    
C11   C21   A    
C2    C4    A    
C9    C14   A    
C7    H26   S    
C5    N2    A    
C11   C16   A    
C9    C20   A    
C3    C35   A    
C9    H1    S    
C17   C18   A    
C33   O9    A    
O1    Zn1   S    
C10   H12   S    
C22   C24   S    
C20   C32   S    
O11   Zn2   S    
C27   H11   S    
C13   C20   A    
C23   N4    A    
C27   O3    S    
C25   H6    S    
C5    C8    A    
C6    C7    A    
C13   H23   S    
C32   O8    A    
C30   H19   S    
C13   C17   A    
C1    C4    S    
C25   O2    S    
C28   H16   S    
C29   H17   S    
C3    C36   A    
C16   C19   A    
C32   O11   A    
C12   O6    A    
C17   O4    S    
C24   H4    S    
C15   O2    S    
C34   C36   A    
C5    H24   S    
C33   O10   A    
O7    Zn2   S    
C26   H10   S    
C8    H27   S    
C22   H28   S    
C27   C28   S    
C18   C31   S    
C27   H13   S    
