data_mof_unit_12225.cif
_audit_creation_date              2012-12-10T16:59:53-0500
_audit_creation_method            fapswitch 2.2
_symmetry_space_group_name_H-M    P1
_symmetry_Int_Tables_number       1
_space_group_crystal_system       triclinic
_cell_length_a                    15.105529
_cell_length_b                    15.252442
_cell_length_c                    9.976617
_cell_angle_alpha                 91.942514
_cell_angle_beta                  89.832308
_cell_angle_gamma                 89.424995
_cell_volume                      2297.12583666

loop_
_atom_site_label
_atom_site_type_symbol
_atom_type_description
_atom_site_fract_x
_atom_site_fract_y
_atom_site_fract_z
_atom_type_partial_charge
C1    C     C_R   0.381986 0.880457 0.497603 0.964500
C2    C     C_2   0.696044 0.234518 0.385129 0.350367
C3    C     C_2   0.177351 0.246801 0.411481 0.326647
C4    C     C_2   0.196043 0.734519 0.385132 0.350340
C5    C     C_2   0.692481 0.820191 0.487962 0.187918
C6    C     C_2   0.665993 0.203737 0.503118 0.145948
C7    C     C_2   0.192494 0.320205 0.487950 0.188060
C8    C     C_2   0.165995 0.703735 0.503120 0.145942
C9    C     C_2   0.245424 0.178160 0.400490 0.488053
C10   C     C_2   0.264131 0.801699 0.384272 0.477125
C11   C     C_2   0.745421 0.678157 0.400492 0.488111
C12   C     C_R   0.376227 0.113676 0.501593 0.957309
C13   C     C_2   0.764134 0.301697 0.384269 0.477096
C14   C     C_2   0.296144 0.164431 0.508082 -0.432636
C15   C     C_2   0.319540 0.811098 0.489323 -0.433660
C16   C     C_2   0.796153 0.664443 0.508078 -0.432699
C17   C     C_2   0.819539 0.311098 0.489324 -0.433654
C18   C     C_2   0.570123 0.015228 0.925694 -0.306260
C19   C     C_2   0.070122 0.515234 0.925694 -0.306245
C20   C     C_2   0.573142 0.001200 0.076462 0.559905
C21   C     C_2   0.073142 0.501207 0.076463 0.559899
C22   C     C_3   0.599755 0.747049 0.214376 -0.213557
C23   C     C_R   0.881986 0.380457 0.497603 0.964511
C24   C     C_3   0.597045 0.243749 0.214786 -0.224933
C25   C     C_3   0.099777 0.247072 0.214363 -0.213477
C26   C     C_3   0.097038 0.743753 0.214797 -0.224885
C27   C     C_3   0.783000 0.909203 0.626030 -0.302244
C28   C     C_3   0.696148 0.214810 0.733215 -0.292622
C29   C     C_3   0.283064 0.409528 0.625526 -0.302002
C30   C     C_3   0.196160 0.714801 0.733214 -0.292641
C31   C     C_3   0.216521 0.052116 0.282802 -0.229165
C32   C     C_3   0.318746 0.811807 0.170618 -0.232898
C33   C     C_3   0.716499 0.552098 0.282851 -0.229224
C34   C     C_R   0.876229 0.613679 0.501592 0.957321
C35   C     C_3   0.818758 0.311796 0.170619 -0.232854
C36   C     C_3   0.722032 0.959833 0.067079 -0.339328
C37   C     C_3   0.222039 0.459864 0.067081 -0.339365
C38   C     C_R   0.614814 0.123171 0.501382 0.861371
C39   C     C_R   0.621081 0.883211 0.497860 0.901656
C40   C     C_R   0.114814 0.623171 0.501383 0.861232
C41   C     C_R   0.121080 0.383211 0.497859 0.901435
C42   C     C_2   0.677342 0.746794 0.411479 0.326673
H1    H     H_    0.277538 0.192110 0.606224 0.151611
H2    H     H_    0.942068 0.512223 0.101434 0.116546
H3    H     H_    0.616134 0.685358 0.157351 0.178851
H4    H     H_    0.647715 0.798900 0.188220 0.171989
H5    H     H_    0.533730 0.769320 0.180373 0.156327
H6    H     H_    0.575684 0.212118 0.118621 0.172905
H7    H     H_    0.612851 0.313152 0.194944 0.169911
H8    H     H_    0.540376 0.241240 0.286136 0.163596
H9    H     H_    0.116148 0.185382 0.157330 0.178844
H10   H     H_    0.147750 0.298916 0.188220 0.171973
H11   H     H_    0.033758 0.269359 0.180357 0.156332
H12   H     H_    0.321300 0.765761 0.570203 0.143236
H13   H     H_    0.075650 0.712101 0.118666 0.172901
H14   H     H_    0.112852 0.813143 0.194902 0.169919
H15   H     H_    0.040384 0.741275 0.286174 0.163573
H16   H     H_    0.744843 0.892653 0.717123 0.167615
H17   H     H_    0.760373 0.972635 0.585512 0.156974
H18   H     H_    0.853007 0.917405 0.656807 0.193277
H19   H     H_    0.740034 0.157036 0.709883 0.126102
H20   H     H_    0.637857 0.195474 0.792976 0.207049
H21   H     H_    0.734708 0.261285 0.797366 0.174313
H22   H     H_    0.244919 0.393339 0.716793 0.167736
H23   H     H_    0.777558 0.692138 0.606217 0.151501
H24   H     H_    0.260465 0.472806 0.584464 0.156761
H25   H     H_    0.353081 0.417805 0.656197 0.193238
H26   H     H_    0.240042 0.657025 0.709874 0.126080
H27   H     H_    0.137871 0.695466 0.792981 0.207047
H28   H     H_    0.234725 0.761273 0.797363 0.174311
H29   H     H_    0.143736 0.060317 0.296119 0.164005
H30   H     H_    0.243444 0.011690 0.364197 0.190142
H31   H     H_    0.228172 0.016011 0.185890 0.204136
H32   H     H_    0.274454 0.772505 0.104175 0.188352
H33   H     H_    0.373300 0.769404 0.207844 0.157182
H34   H     H_    0.821295 0.265764 0.570209 0.143259
H35   H     H_    0.349509 0.862186 0.108319 0.149762
H36   H     H_    0.643716 0.560307 0.296194 0.163997
H37   H     H_    0.743432 0.511679 0.364245 0.190128
H38   H     H_    0.728131 0.515984 0.185941 0.204167
H39   H     H_    0.774468 0.272492 0.104175 0.188351
H40   H     H_    0.873309 0.269393 0.207853 0.157195
H41   H     H_    0.849523 0.362171 0.108319 0.149760
H42   H     H_    0.751778 0.009755 0.002630 0.158626
H43   H     H_    0.700173 0.901494 0.006085 0.132799
H44   H     H_    0.774763 0.937114 0.135248 0.203289
H45   H     H_    0.629449 0.036544 0.875566 0.170034
H46   H     H_    0.251777 0.509794 0.002639 0.158630
H47   H     H_    0.200191 0.401524 0.006082 0.132902
H48   H     H_    0.274774 0.437151 0.135250 0.203252
H49   H     H_    0.129445 0.536555 0.875566 0.170016
H50   H     H_    0.447560 0.972255 0.896935 0.152654
H51   H     H_    0.947562 0.472251 0.896935 0.152655
H52   H     H_    0.442070 0.012229 0.101434 0.116545
N1    N     N_2   0.501330 1.000000 0.852150 -0.202051
N2    N     N_2   0.001330 0.500000 0.852150 -0.202052
N3    N     N_2   0.501360 0.000000 0.147810 -0.230598
N4    N     N_2   0.001360 0.500000 0.147810 -0.230593
O1    O     O_R   0.409520 0.909540 0.613040 -0.627183
O2    O     O_R   0.590440 0.909540 0.613100 -0.640954
O3    O     O_R   0.090440 0.590460 0.613100 -0.624457
O4    O     O_R   0.090440 0.409540 0.613100 -0.640856
O5    O     O_R   0.590480 0.090460 0.386960 -0.538617
O6    O     O_R   0.590480 0.909540 0.386960 -0.571055
O7    O     O_R   0.090480 0.590460 0.386960 -0.538617
O8    O     O_R   0.090480 0.409540 0.386960 -0.571095
O9    O     O_3   0.595024 0.732014 0.353344 -0.649770
O10   O     O_3   0.671846 0.197770 0.261650 -0.589041
O11   O     O_3   0.095037 0.232027 0.353328 -0.649744
O12   O     O_R   0.409520 0.090460 0.613040 -0.615786
O13   O     O_3   0.171841 0.697774 0.261652 -0.589057
O14   O     O_3   0.779100 0.840895 0.527294 -0.642014
O15   O     O_3   0.668047 0.258906 0.618052 -0.626446
O16   O     O_3   0.279108 0.340867 0.527386 -0.642109
O17   O     O_3   0.168054 0.758901 0.618057 -0.626424
O18   O     O_3   0.259175 0.133811 0.278639 -0.611957
O19   O     O_3   0.269625 0.855096 0.274599 -0.633938
O20   O     O_3   0.759159 0.633789 0.278653 -0.611951
O21   O     O_3   0.769633 0.355089 0.274591 -0.633943
O22   O     O_3   0.652925 0.997464 0.145889 -0.529800
O23   O     O_R   0.909520 0.409540 0.613040 -0.627176
O24   O     O_3   0.152925 0.497479 0.145892 -0.529835
O25   O     O_R   0.909520 0.590460 0.613040 -0.615809
O26   O     O_R   0.409560 0.909540 0.386900 -0.577038
O27   O     O_R   0.409560 0.090460 0.386900 -0.573200
O28   O     O_R   0.909560 0.409540 0.386900 -0.577016
O29   O     O_R   0.909560 0.590460 0.386900 -0.573178
O30   O     O_R   0.590440 0.090460 0.613100 -0.624472
Zn1   Zn    Zn3+2 0.499970 0.000000 0.650990 0.930465
Zn2   Zn    Zn3+2 0.999970 0.500000 0.650990 0.930470
Zn3   Zn    Zn3+2 0.500030 0.000000 0.349010 1.018746
Zn4   Zn    Zn3+2 0.000030 0.500000 0.349010 1.018727

loop_
_geom_bond_atom_site_label_1
_geom_bond_atom_site_label_2
_ccdc_geom_bond_type
C5    C42   D    
C34   O25   A    
C37   H46   S    
C35   O21   S    
C32   O19   S    
C4    C8    D    
C26   H13   S    
C1    O1    A    
C32   H33   S    
C12   O12   A    
C35   H39   S    
C39   O6    A    
C23   O23   A    
O8    Zn4   S    
C17   C23   S    
C37   H48   S    
O12   Zn1   S    
C7    O16   S    
C19   C21   S    
C25   H11   S    
C3    C7    D    
C27   H18   S    
C32   H32   S    
C33   H36   S    
C31   H31   S    
C22   O9    S    
C41   O4    A    
C11   C42   S    
C21   O24   S    
C2    C13   S    
O29   Zn4   S    
C29   O16   S    
C16   C34   S    
C32   H35   S    
C29   H25   S    
H2    N4    S    
C20   N3    D    
C34   O29   A    
O6    Zn3   S    
C17   H34   S    
C6    C38   S    
C1    C15   S    
C42   O9    S    
O23   Zn2   S    
C8    O17   S    
C25   O11   S    
C28   H19   S    
C31   H29   S    
C22   H5    S    
C40   O3    A    
C29   H22   S    
C33   O20   S    
O30   Zn1   S    
C18   N1    D    
C2    C6    D    
C13   O21   S    
C35   H40   S    
O7    Zn4   S    
C30   O17   S    
C24   H8    S    
C41   O8    A    
O1    Zn1   S    
C24   H6    S    
C15   H12   S    
N3    Zn3   S    
C35   H41   S    
O2    Zn1   S    
C33   H37   S    
C12   O27   A    
H52   N3    S    
C36   H44   S    
H50   N1    S    
C29   H24   S    
O26   Zn3   S    
C3    O11   S    
C9    C14   D    
C25   H9    S    
C6    O15   S    
C38   O5    A    
C3    C9    S    
C11   C16   D    
O27   Zn3   S    
O28   Zn4   S    
C23   O28   A    
C24   O10   S    
C31   H30   S    
C22   H4    S    
C4    O13   S    
C12   C14   S    
C27   O14   S    
H51   N2    S    
C5    C39   S    
O25   Zn2   S    
C4    C10   S    
C31   O18   S    
C20   O22   S    
C30   H27   S    
N2    Zn2   S    
C24   H7    S    
C9    O18   S    
O4    Zn2   S    
C27   H16   S    
C26   H14   S    
C38   O30   A    
C33   H38   S    
C5    O14   S    
C37   H47   S    
C36   H43   S    
C18   H45   S    
C13   C17   D    
C10   C15   D    
C1    O26   A    
C10   O19   S    
C27   H17   S    
O3    Zn2   S    
C21   N4    D    
C39   O2    A    
C36   H42   S    
C2    O10   S    
C18   C20   S    
C7    C41   S    
C36   O22   S    
C26   H15   S    
C25   H10   S    
C19   H49   S    
C28   O15   S    
C37   O24   S    
C28   H21   S    
C30   H28   S    
C22   H3    S    
N4    Zn4   S    
N1    Zn1   S    
C40   O7    A    
C16   H23   S    
C8    C40   S    
C11   O20   S    
O5    Zn3   S    
C26   O13   S    
C30   H26   S    
C19   N2    D    
C14   H1    S    
C28   H20   S    
