data_mof_unit_20576.cif
_audit_creation_date              2012-12-11T14:36:16-0500
_audit_creation_method            fapswitch 2.2
_symmetry_space_group_name_H-M    P1
_symmetry_Int_Tables_number       1
_space_group_crystal_system       triclinic
_cell_length_a                    13.506825
_cell_length_b                    13.529555
_cell_length_c                    27.476879
_cell_angle_alpha                 90.737631
_cell_angle_beta                  90.345225
_cell_angle_gamma                 59.973339
_cell_volume                      4346.92391792

loop_
_atom_site_label
_atom_site_type_symbol
_atom_type_description
_atom_site_fract_x
_atom_site_fract_y
_atom_site_fract_z
_atom_type_partial_charge
C1    C     C_R   0.620460 0.101101 0.570038 0.544297
C2    C     C_1   0.632007 0.733498 0.616827 0.015095
C3    C     C_3   0.701862 0.567706 0.769329 0.017737
C4    C     C_3   0.679002 0.661314 0.807136 0.086539
C5    C     C_3   0.593101 0.651408 0.741236 -0.113706
C6    C     C_3   0.666484 0.687067 0.711540 0.008272
C7    C     C_3   0.570458 0.746309 0.779435 -0.130969
C8    C     C_3   0.643617 0.782627 0.748977 -0.054402
C9    C     C_1   0.686452 0.641056 0.859546 0.054039
C10   C     C_1   0.651686 0.707264 0.659022 -0.013659
C11   C     C_3   0.098067 0.130978 0.737917 -0.133000
C12   C     C_R   0.599773 0.779897 0.568910 0.542944
C13   C     C_3   0.190499 0.061242 0.776280 0.273409
C14   C     C_1   0.098318 0.200268 0.902616 0.021399
C15   C     C_1   0.232952 0.137982 0.618020 0.012824
C16   C     C_3   0.058190 0.240051 0.770327 -0.209357
C17   C     C_3   0.150823 0.167781 0.808422 0.045604
C18   C     C_3   0.144437 0.266506 0.744324 -0.132993
C19   C     C_3   0.184518 0.157136 0.712780 0.007216
C20   C     C_3   0.235101 0.193837 0.782670 0.244276
C21   C     C_3   0.275590 0.086683 0.750975 0.299250
C22   C     C_1   0.127137 0.180526 0.860651 0.018052
C23   C     C_R   0.278560 0.121704 0.569790 0.546248
C24   C     C_1   0.206780 0.148168 0.660368 -0.006401
C25   C     C_3   0.682695 0.239901 0.739000 -0.184297
C26   C     C_3   0.579357 0.280113 0.773829 0.076180
C27   C     C_1   0.686990 0.207113 0.903930 0.048144
C28   C     C_1   0.635062 0.130596 0.618464 0.029570
C29   C     C_3   0.756736 0.142916 0.774999 -0.005693
C30   C     C_3   0.653480 0.183720 0.809629 0.011186
C31   C     C_3   0.722870 0.062409 0.749187 0.012091
C32   C     C_3   0.648975 0.158862 0.713612 0.014477
C33   C     C_3   0.619366 0.102142 0.784122 -0.120856
C34   C     C_R   0.622089 0.099955 0.431347 0.541753
C35   C     C_3   0.547033 0.199136 0.748001 0.240840
C36   C     C_1   0.666667 0.195652 0.862119 0.040905
C37   C     C_1   0.642904 0.146508 0.661027 0.013545
C38   C     C_R   0.744124 0.692127 0.361138 0.222686
C39   C     C_R   0.755464 0.676296 0.309959 0.061916
C40   C     C_R   0.763180 0.667700 0.206740 -0.055059
C41   C     C_R   0.852230 0.665970 0.234141 -0.099324
C42   C     C_R   0.851480 0.665972 0.284660 0.256669
C43   C     C_R   0.770260 0.655553 0.155500 -0.015791
C44   C     C_R   0.681380 0.650920 0.129982 -0.025797
C45   C     C_R   0.602930 0.774393 0.430578 0.535835
C46   C     C_R   0.562891 0.695249 0.357355 -0.129755
C47   C     C_R   0.569665 0.684463 0.306880 0.010453
C48   C     C_R   0.664411 0.678476 0.282686 -0.065199
C49   C     C_R   0.477929 0.688810 0.280695 0.240179
C50   C     C_R   0.478511 0.691165 0.229332 0.242910
C51   C     C_R   0.571472 0.688539 0.204499 0.005129
C52   C     C_R   0.666906 0.676840 0.231306 -0.034586
C53   C     C_R   0.575671 0.688914 0.153184 0.008236
C54   C     C_R   0.642056 0.711667 0.383829 -0.041682
C55   C     C_R   0.207814 0.060634 0.359475 -0.164071
C56   C     C_R   0.275801 0.121848 0.431662 0.571832
C57   C     C_R   0.177270 0.075843 0.310389 -0.044323
C58   C     C_R   0.137400 0.098221 0.209249 0.007487
C59   C     C_R   0.151576 0.999758 0.233623 0.241379
C60   C     C_R   0.174639 0.988816 0.283508 -0.038158
C61   C     C_R   0.119131 0.112781 0.158722 -0.130865
C62   C     C_R   0.100904 0.213523 0.136657 -0.007978
C63   C     C_R   0.168202 0.256885 0.365382 0.230013
C64   C     C_R   0.152143 0.267876 0.314782 0.006742
C65   C     C_R   0.155619 0.176992 0.287347 0.012152
C66   C     C_R   0.141318 0.363786 0.290726 -0.121604
C67   C     C_3   0.775975 0.601252 0.738721 -0.140399
C68   C     C_R   0.129241 0.371877 0.240613 -0.117364
C69   C     C_R   0.128166 0.284319 0.213598 0.005607
C70   C     C_R   0.140239 0.186358 0.236707 0.031985
C71   C     C_R   0.111706 0.295634 0.163834 -0.129422
C72   C     C_R   0.210552 0.148247 0.386138 0.036343
C73   C     C_R   0.554338 0.231780 0.361202 -0.127620
C74   C     C_R   0.560610 0.247138 0.311431 -0.017266
C75   C     C_R   0.569057 0.273216 0.210154 -0.018742
C76   C     C_R   0.469661 0.350018 0.236844 0.016093
C77   C     C_R   0.467822 0.336519 0.287426 -0.079856
C78   C     C_3   0.750833 0.695673 0.776788 0.244402
C79   C     C_R   0.584459 0.289989 0.160721 -0.143768
C80   C     C_R   0.681852 0.208466 0.135508 -0.000273
C81   C     C_R   0.741977 0.061756 0.358604 -0.086832
C82   C     C_R   0.751198 0.075216 0.308847 0.026305
C83   C     C_R   0.657380 0.167326 0.284909 0.035574
C84   C     C_R   0.847159 0.994175 0.281535 0.014947
C85   C     C_R   0.843616 0.001818 0.231041 -0.152248
C86   C     C_R   0.752712 0.093933 0.207744 0.001052
C87   C     C_R   0.659529 0.178420 0.234320 0.048148
C88   C     C_R   0.758726 0.105982 0.158245 -0.111721
C89   C     C_1   0.695136 0.612919 0.901397 0.050639
C90   C     C_R   0.642481 0.136186 0.384295 -0.020103
C91   C     C_R   0.049488 0.236038 0.950061 0.546722
C92   C     C_R   0.710942 0.564132 0.948633 0.554436
C93   C     C_R   0.721437 0.225422 0.951125 0.549412
C94   C     C_R   0.047709 0.245526 0.088621 0.540348
C95   C     C_R   0.706619 0.578520 0.085510 0.555250
C96   C     C_R   0.718648 0.233439 0.089324 0.543037
Cr1   Cr    Cr6+3 0.417550 0.169090 0.500530 1.070250
Cr2   Cr    Cr6+3 0.669180 0.913420 0.499920 1.082401
Cr3   Cr    Cr6+3 0.413260 0.917540 0.499520 1.048202
Cr4   Cr    Cr6+3 0.909170 0.177380 0.020380 1.058363
Cr5   Cr    Cr6+3 0.912710 0.429210 0.018220 1.086221
Cr6   Cr    Cr6+3 0.657170 0.432570 0.019030 1.102518
H1    H     H_    0.125668 0.351350 0.731107 0.141407
H2    H     H_    0.969335 0.304383 0.779838 0.127463
H3    H     H_    0.706577 0.293179 0.717393 0.096902
H4    H     H_    0.591681 0.047022 0.802154 0.136826
H5    H     H_    0.860343 0.541788 0.722122 0.102060
H6    H     H_    0.926211 0.661276 0.216957 0.128042
H7    H     H_    0.488032 0.704320 0.375740 0.209444
H8    H     H_    0.114905 0.049094 0.136123 0.137649
H9    H     H_    0.235761 0.978485 0.376045 0.157646
H10   H     H_    0.623228 0.870531 0.739956 0.154476
H11   H     H_    0.187856 0.912710 0.301689 0.176110
H12   H     H_    0.098924 0.373176 0.146933 0.130195
H13   H     H_    0.120352 0.447034 0.222921 0.156417
H14   H     H_    0.147318 0.430784 0.309965 0.163749
H15   H     H_    0.526116 0.368264 0.142486 0.134975
H16   H     H_    0.477110 0.289470 0.381061 0.149199
H17   H     H_    0.392286 0.394289 0.308238 0.175166
H18   H     H_    0.831993 0.039856 0.138675 0.148070
H19   H     H_    0.486610 0.804447 0.796691 0.161911
H20   H     H_    0.915530 0.938620 0.209824 0.116426
H21   H     H_    0.807113 0.987020 0.376791 0.214293
H22   H     H_    0.528483 0.631494 0.726216 0.126246
H23   H     H_    0.041724 0.105177 0.718870 0.157924
O1    O     O_R   0.301710 0.195650 0.554160 -0.499955
O2    O     O_R   0.658900 0.818120 0.449760 -0.470461
O3    O     O_R   0.503220 0.801620 0.445520 -0.521472
O4    O     O_R   0.319370 0.022040 0.450020 -0.516145
O5    O     O_3   0.499990 0.000010 0.499990 -0.267093
O6    O     O_R   0.818720 0.150820 0.967160 -0.498321
O7    O     O_R   0.006410 0.181720 0.970200 -0.486559
O8    O     O_R   0.027890 0.334070 0.964920 -0.498440
O9    O     O_R   0.809600 0.521790 0.967960 -0.487480
O10   O     O_R   0.635520 0.542770 0.964420 -0.482654
O11   O     O_R   0.665950 0.325030 0.970100 -0.476969
O12   O     O_R   0.522390 0.158990 0.550460 -0.501513
O13   O     O_R   0.816620 0.158530 0.074540 -0.520622
O14   O     O_R   0.004460 0.188870 0.069750 -0.502833
O15   O     O_R   0.025800 0.341780 0.072300 -0.515890
O16   O     O_R   0.807650 0.528950 0.067500 -0.470713
O17   O     O_R   0.633420 0.550490 0.071810 -0.472640
O18   O     O_R   0.664000 0.332180 0.069640 -0.492721
O19   O     O_3   0.826350 0.346390 0.019210 -0.272862
O20   O     O_R   0.694390 0.003530 0.554040 -0.483595
O21   O     O_R   0.657700 0.819660 0.549320 -0.489467
O22   O     O_R   0.501930 0.803280 0.552920 -0.502496
O23   O     O_R   0.318170 0.023580 0.549580 -0.491525
O24   O     O_R   0.303010 0.193990 0.446760 -0.440127
O25   O     O_R   0.523600 0.157450 0.450900 -0.503314
O26   O     O_R   0.695690 0.001860 0.446640 -0.495259
O27   O     O_3   0.831997 0.719110 0.797223 -0.698526
H24   H     H_    0.895091 0.690927 0.773210 0.331993
O28   O     O_3   0.307658 0.223692 0.807036 -0.652130
H25   H     H_    0.256809 0.300295 0.821415 0.341622
C97   C     C_2   0.495529 0.402279 0.785832 0.319630
H26   H     H_    0.449801 0.461392 0.756746 0.100855
O29   O     O_2   0.478313 0.435907 0.828012 -0.449455
O30   O     O_3   0.436450 0.231626 0.732230 -0.651381
H27   H     H_    0.443593 0.165227 0.713555 0.353908
C98   C     C_2   0.804795 0.940425 0.736096 0.270887
H28   H     H_    0.861005 0.883482 0.763780 0.175281
O31   O     O_2   0.809580 0.904951 0.694633 -0.502560
C99   C     C_2   0.873786 0.114578 0.791695 0.226994
H29   H     H_    0.886057 0.179936 0.809168 0.136301
O32   O     O_2   0.955082 0.018400 0.786379 -0.481975
C100  C     C_2   0.869449 0.647387 0.128595 0.256937
H30   H     H_    0.955933 0.595585 0.142081 0.087826
O33   O     O_2   0.854583 0.699632 0.090823 -0.481783
O34   O     O_3   0.828089 0.697774 0.387748 -0.658936
H31   H     H_    0.833854 0.661903 0.419672 0.327658
O35   O     O_3   0.946826 0.655543 0.307739 -0.664046
H32   H     H_    0.971256 0.593091 0.331439 0.346759
C101  C     C_2   0.470109 0.741956 0.123131 0.334126
H33   H     H_    0.431585 0.831262 0.113606 0.088426
O36   O     O_2   0.426647 0.686723 0.108570 -0.422203
O37   O     O_3   0.392247 0.689512 0.203002 -0.630403
H34   H     H_    0.373635 0.635436 0.218604 0.362984
O38   O     O_3   0.387624 0.693781 0.306446 -0.714714
H35   H     H_    0.318757 0.724202 0.285708 0.362763
O39   O     O_3   0.145849 0.911546 0.210599 -0.675500
H36   H     H_    0.089893 0.942887 0.183768 0.317508
O40   O     O_3   0.149878 0.348187 0.394806 -0.674564
H37   H     H_    0.084557 0.418458 0.381548 0.315035
C102  C     C_2   0.364120 0.439201 0.212724 0.202085
H38   H     H_    0.355612 0.442307 0.173500 0.123426
O41   O     O_2   0.283025 0.509804 0.236725 -0.522605
C103  C     C_2   0.954030 0.901263 0.303100 0.272851
H39   H     H_    0.005532 0.823148 0.282365 0.174761
O42   O     O_2   0.990053 0.913336 0.342255 -0.507560
C104  C     C_2   0.737831 0.446610 0.780073 0.194052
H40   H     H_    0.784622 0.382015 0.752705 0.068082
O43   O     O_2   0.717182 0.419907 0.819358 -0.501850
O44   O     O_3   0.216270 0.954308 0.793625 -0.640360
H41   H     H_    0.239843 0.903378 0.764580 0.342079
O45   O     O_3   0.389181 0.006505 0.740319 -0.719518
H42   H     H_    0.431645 0.999009 0.770850 0.331146

loop_
_geom_bond_atom_site_label_1
_geom_bond_atom_site_label_2
_ccdc_geom_bond_type
C66   C68   A    
Cr3   O23   S    
C31   C98   S    
C40   C41   A    
C41   H6    S    
C94   O15   A    
C41   C42   A    
C1    O20   A    
C74   C83   A    
C43   C44   A    
C93   O11   A    
C2    C12   S    
C104  O43   D    
C98   H28   S    
C34   O25   A    
Cr4   O6    S    
C25   H3    S    
C7    C8    S    
C100  O33   D    
Cr5   O9    S    
C5    H22   S    
C11   C19   S    
C26   C97   S    
C66   H14   S    
C81   H21   S    
C12   O22   A    
C99   H29   S    
C19   C21   S    
C45   O2    A    
Cr1   O5    S    
C8    H10   S    
O30   H27   S    
C96   O13   A    
C5    C6    S    
Cr5   O19   S    
C86   C88   A    
C102  O41   D    
O34   H31   S    
C45   O3    A    
C65   C70   A    
O39   H36   S    
C17   C20   S    
C103  O42   D    
C18   C19   S    
C73   C74   A    
C12   O21   A    
C69   C71   A    
C101  H33   S    
Cr6   O10   S    
Cr5   O16   S    
C44   C53   A    
C16   H2    S    
C40   C43   A    
C47   C48   A    
C16   C17   S    
C56   C72   S    
C74   C77   A    
C91   O8    A    
C1    C28   S    
Cr1   O25   S    
C31   C33   S    
C80   C96   S    
C55   C72   A    
C30   C33   S    
C99   O32   D    
C55   H9    S    
C25   C32   S    
C15   C23   S    
O44   H41   S    
C59   C60   A    
C8    C78   S    
C94   O14   A    
C29   C99   S    
C46   C54   A    
C60   H11   S    
C61   C62   A    
C67   C78   S    
Cr6   O19   S    
C7    H19   S    
C4    C7    S    
C30   C36   S    
C61   H8    S    
Cr1   O12   S    
C98   O31   D    
Cr5   O15   S    
C53   C101  S    
C38   O34   S    
C39   C42   A    
C101  O36   D    
Cr2   O26   S    
C25   C29   S    
C3    C67   S    
C63   O40   S    
Cr3   O4    S    
C78   O27   S    
C104  H40   S    
C32   C35   S    
Cr2   O2    S    
Cr1   O1    S    
C50   O37   S    
C76   C77   A    
C47   C49   A    
Cr4   O19   S    
C56   O4    A    
C9    C89   T    
C100  H30   S    
C5    C7    S    
C86   C87   A    
C58   C70   A    
C57   C60   A    
C6    C8    S    
C91   O7    A    
Cr2   O21   S    
C3    C5    S    
C58   C59   A    
C85   C86   A    
C81   C82   A    
C79   C80   A    
C71   H12   S    
C103  H39   S    
C51   C53   A    
C64   C66   A    
C75   C76   A    
C34   C90   S    
O40   H37   S    
C4    C78   S    
C29   C30   S    
Cr4   O14   S    
C3    C104  S    
C11   C16   S    
C31   C32   S    
C38   C54   A    
Cr2   O5    S    
C50   C51   A    
C13   C21   S    
C85   H20   S    
C16   C18   S    
C32   C37   S    
C84   C85   A    
C89   C92   S    
O28   H25   S    
O38   H35   S    
C20   O28   S    
C23   O1    A    
C81   C90   A    
C75   C87   A    
C15   C24   T    
C45   C54   S    
O37   H34   S    
C82   C84   A    
C13   O44   S    
C55   C57   A    
C49   C50   A    
C27   C93   S    
C92   O10   A    
C88   H18   S    
Cr6   O18   S    
C3    C4    S    
C2    C10   T    
C6    C67   S    
C1    O12   A    
O35   H32   S    
C56   O24   A    
Cr3   O22   S    
C46   C47   A    
C97   H26   S    
C73   H16   S    
Cr3   O5    S    
C11   H23   S    
C68   C69   A    
C92   O9    A    
C33   H4    S    
C42   O35   S    
C57   C65   A    
O45   H42   S    
C77   H17   S    
C59   O39   S    
C83   C87   A    
C6    C10   S    
C34   O26   A    
Cr4   O7    S    
C95   O16   A    
Cr3   O3    S    
Cr2   O20   S    
Cr5   O8    S    
C27   C36   T    
C23   O23   A    
C17   C22   S    
Cr4   O13   S    
C13   C17   S    
C64   C65   A    
C14   C22   T    
C62   C94   S    
C19   C24   S    
C25   C26   S    
C51   C52   A    
C80   C88   A    
C44   C95   S    
C40   C52   A    
C96   O18   A    
C43   C100  S    
C11   C13   S    
C67   H5    S    
C102  H38   S    
C38   C39   A    
C28   C37   T    
C58   C61   A    
C79   H15   S    
C97   O29   D    
C63   C72   A    
C33   C35   S    
C62   C71   A    
C18   C20   S    
C18   H1    S    
C21   O45   S    
C69   C70   A    
Cr6   O11   S    
C14   C91   S    
C35   O30   S    
C84   C103  S    
C68   H13   S    
C63   C64   A    
C26   C35   S    
C48   C52   A    
C20   C21   S    
C73   C90   A    
C95   O17   A    
C29   C31   S    
C82   C83   A    
C46   H7    S    
Cr1   O24   S    
O27   H24   S    
Cr6   O17   S    
C4    C9    S    
C93   O6    A    
C75   C79   A    
C76   C102  S    
C39   C48   A    
C49   O38   S    
C26   C30   S    
