data_mof_unit_62238.cif
_audit_creation_date              2012-12-10T17:46:15-0500
_audit_creation_method            fapswitch 2.2
_symmetry_space_group_name_H-M    P1
_symmetry_Int_Tables_number       1
_space_group_crystal_system       triclinic
_cell_length_a                    16.075079
_cell_length_b                    17.904719
_cell_length_c                    17.944364
_cell_angle_alpha                 115.409571
_cell_angle_beta                  99.423435
_cell_angle_gamma                 76.379702
_cell_volume                      4522.35600757

loop_
_atom_site_label
_atom_site_type_symbol
_atom_type_description
_atom_site_fract_x
_atom_site_fract_y
_atom_site_fract_z
_atom_type_partial_charge
C1    C     C_R   0.462125 0.456751 0.281199 0.517068
C2    C     C_R   0.530835 0.535132 0.925859 -0.007411
C3    C     C_R   0.580485 0.596167 0.979326 -0.030388
C4    C     C_R   0.537713 0.543419 0.719573 0.517727
C5    C     C_R   0.489906 0.495018 0.959322 -0.011768
C6    C     C_R   0.512517 0.504265 0.042201 -0.011405
C7    C     C_R   0.580324 0.547322 0.086294 0.104397
C8    C     C_R   0.608209 0.599007 0.059177 -0.002550
C9    C     C_R   0.424283 0.449209 0.914167 0.152282
C10   C     C_R   0.395641 0.399520 0.942804 0.132325
C11   C     C_R   0.420750 0.404391 0.023518 -0.020367
C12   C     C_1   0.888465 0.476899 0.477174 -0.023226
C13   C     C_R   0.469849 0.466325 0.076893 -0.016865
C14   C     C_R   0.394218 0.353187 0.054218 -0.024599
C15   C     C_R   0.412970 0.367196 0.138061 -0.047844
C16   C     C_R   0.462381 0.723485 0.548023 0.537139
C17   C     C_R   0.469783 0.491213 0.163223 -0.018485
C18   C     C_R   0.550381 0.185019 0.430724 -0.002797
C19   C     C_R   0.448052 0.814204 0.572086 0.015231
C20   C     C_R   0.590310 0.039780 0.334606 0.145444
C21   C     C_R   0.578524 0.125492 0.353597 0.109032
C22   C     C_R   0.531468 0.157465 0.487307 0.072715
C23   C     C_1   0.111597 0.525883 0.523004 -0.024738
C24   C     C_R   0.531281 0.071411 0.464449 -0.028823
C25   C     C_R   0.568521 0.011996 0.390192 -0.017680
C26   C     C_R   0.497974 0.042508 0.514223 -0.000082
C27   C     C_R   0.512663 0.954881 0.495228 -0.009314
C28   C     C_R   0.537790 0.276256 0.452697 0.531059
C29   C     C_R   0.568065 0.899463 0.431473 -0.001392
C30   C     C_R   0.588741 0.926625 0.375714 0.131270
C31   C     C_R   0.447934 0.098438 0.580883 -0.079294
C32   C     C_R   0.425716 0.072399 0.636140 0.117737
C33   C     C_R   0.441642 0.986493 0.620274 0.000283
C34   C     C_1   0.813375 0.481550 0.481577 0.045004
C35   C     C_R   0.474902 0.927202 0.543625 -0.005689
C36   C     C_R   0.421739 0.957568 0.676489 -0.030432
C37   C     C_R   0.429339 0.870708 0.653308 -0.063370
C38   C     C_R   0.464941 0.843159 0.516459 0.099112
C39   C     C_R   0.276330 0.513764 0.513217 0.511970
C40   C     C_R   0.724148 0.486826 0.486705 0.521047
C41   C     C_1   0.186852 0.520458 0.518594 0.045167
C42   C     C_2   0.021394 0.531645 0.527738 -0.022713
C43   C     C_2   0.978536 0.471506 0.472235 -0.022265
C44   C     C_1   0.020852 0.399021 0.405645 0.232046
C45   C     C_R   0.551772 0.564621 0.809730 -0.021205
C46   C     C_1   0.348838 0.285628 0.000969 0.262184
C47   C     C_1   0.414427 0.839519 0.711587 0.233627
C48   C     C_1   0.979076 0.604158 0.594296 0.234024
C49   C     C_1   0.615961 0.819111 0.428924 0.269632
C50   C     C_1   0.397917 0.015173 0.759275 0.263399
C51   C     C_1   0.671044 0.648438 0.112340 0.283496
C52   C     C_1   0.478962 0.576003 0.221511 0.246687
C53   C     C_1   0.391263 0.312138 0.169326 0.229467
C54   C     C_1   0.607409 0.695278 0.840746 0.290626
C55   C     C_R   0.447553 0.438226 0.192807 0.000541
C56   C     C_R   0.604705 0.648630 0.949374 0.099470
C57   C     C_R   0.586873 0.635591 0.866159 -0.045477
C58   C     C_R   0.528142 0.512856 0.840170 0.126421
F1    F     F_    0.624247 0.534653 0.152706 -0.160310
F2    F     F_    0.643502 0.714291 0.000912 -0.149989
F3    F     F_    0.513404 0.435393 0.785886 -0.139099
F4    F     F_    0.382314 0.456403 0.844788 -0.142066
F5    F     F_    0.635422 0.870166 0.311062 -0.138563
F6    F     F_    0.466160 0.789983 0.435110 -0.149958
F7    F     F_    0.382737 0.131938 0.701803 -0.152591
F8    F     F_    0.622065 0.984254 0.261095 -0.131211
F9    F     F_    0.596660 0.149909 0.297037 -0.134671
F10   F     F_    0.523514 0.213960 0.567080 -0.157531
F11   F     F_    0.337358 0.352267 0.892908 -0.144967
H1    H     H_    0.423747 0.163375 0.591597 0.169483
N1    N     N_1   0.054705 0.341061 0.352396 -0.244000
N2    N     N_1   0.623825 0.743204 0.820631 -0.218408
N3    N     N_1   0.312229 0.231916 0.958936 -0.199248
N4    N     N_1   0.402623 0.814565 0.757981 -0.255236
N5    N     N_1   0.945211 0.662143 0.647516 -0.238437
N6    N     N_1   0.654634 0.754991 0.426823 -0.238799
N7    N     N_1   0.379061 0.060683 0.825488 -0.205555
N8    N     N_1   0.721275 0.687869 0.155084 -0.208295
N9    N     N_1   0.485986 0.643572 0.267998 -0.230813
N10   N     N_1   0.374035 0.268293 0.194324 -0.245970
O1    O     O_3   0.500000 0.500000 0.500000 -0.470213
O2    O     O_R   0.299440 0.550140 0.473730 -0.534473
O3    O     O_R   0.684420 0.431670 0.431640 -0.528525
O4    O     O_R   0.331720 0.471780 0.548240 -0.526291
O5    O     O_R   0.684420 0.546410 0.546380 -0.523783
O6    O     O_R   0.525630 0.690350 0.582790 -0.525058
O7    O     O_R   0.571070 0.303900 0.411450 -0.519469
O8    O     O_R   0.412800 0.516450 0.332470 -0.526370
O9    O     O_R   0.490500 0.489300 0.673290 -0.500985
O10   O     O_R   0.525640 0.414150 0.306600 -0.522449
O11   O     O_R   0.571060 0.580100 0.687640 -0.540187
O12   O     O_R   0.412790 0.677900 0.493930 -0.515567
O13   O     O_R   0.490510 0.327840 0.511830 -0.512791
Zn1   Zn    Zn3+2 0.569080 0.577860 0.577850 0.994186
Zn2   Zn    Zn3+2 0.407860 0.560080 0.450890 0.991212
Zn3   Zn    Zn3+2 0.453980 0.448130 0.557350 0.993939
Zn4   Zn    Zn3+2 0.569080 0.413920 0.413920 0.995603

loop_
_geom_bond_atom_site_label_1
_geom_bond_atom_site_label_2
_ccdc_geom_bond_type
C1    O10   A    
C27   C29   A    
C18   C21   A    
C40   O3    A    
C7    C8    A    
C39   C41   S    
C29   C49   S    
C45   C57   A    
C26   C27   A    
C23   C42   S    
C34   C40   S    
C15   C53   S    
C20   F8    S    
C36   C37   A    
C24   C26   A    
C39   O4    A    
C12   C43   S    
C5    C6    A    
O1    Zn2   S    
C11   C14   A    
C20   C25   A    
C33   C36   A    
C56   C57   A    
C44   N1    T    
O4    Zn3   S    
C19   C37   A    
C31   H1    S    
C6    C13   A    
C37   C47   S    
C52   N9    T    
O6    Zn1   S    
C9    C10   A    
C17   C55   A    
O10   Zn4   S    
C4    O11   A    
C1    O8    A    
O8    Zn2   S    
C26   C31   A    
C30   F5    S    
C21   F9    S    
C16   O6    A    
C48   N5    T    
C17   C52   S    
C7    F1    S    
C38   F6    S    
C4    C45   S    
C45   C58   A    
C9    F4    S    
C35   C38   A    
C18   C28   S    
C24   C25   A    
C47   N4    T    
C14   C46   S    
C3    C8    A    
O1    Zn3   S    
C27   C35   A    
O12   Zn2   S    
C56   F2    S    
C28   O13   A    
C15   C55   A    
C40   O5    A    
C43   C44   S    
C5    C9    A    
C29   C30   A    
C19   C38   A    
C3    C56   A    
C31   C32   A    
C53   N10   T    
C28   O7    A    
C49   N6    T    
C42   C48   S    
C8    C51   S    
C22   F10   S    
C16   O12   A    
O13   Zn3   S    
C22   C24   A    
C2    C5    A    
C42   C43   D    
C12   C34   T    
C50   N7    T    
C36   C50   S    
C4    O9    A    
C25   C30   A    
O2    Zn2   S    
C18   C22   A    
C39   O2    A    
C2    C58   A    
C6    C7    A    
C23   C41   T    
C13   C17   A    
C32   C33   A    
O9    Zn3   S    
C2    C3    A    
C1    C55   S    
C51   N8    T    
O11   Zn1   S    
O1    Zn1   S    
C11   C13   A    
O1    Zn4   S    
C58   F3    S    
C16   C19   S    
C33   C35   A    
C10   C11   A    
C10   F11   S    
C54   N2    T    
C20   C21   A    
O3    Zn4   S    
C14   C15   A    
O5    Zn1   S    
C46   N3    T    
C32   F7    S    
O7    Zn4   S    
C54   C57   S    
