data_mof_unit_65721.cif
_audit_creation_date              2012-12-10T20:11:14-0500
_audit_creation_method            fapswitch 2.2
_symmetry_space_group_name_H-M    P1
_symmetry_Int_Tables_number       1
_space_group_crystal_system       triclinic
_cell_length_a                    19.099439
_cell_length_b                    18.506211
_cell_length_c                    14.152303
_cell_angle_alpha                 89.816304
_cell_angle_beta                  90.826971
_cell_angle_gamma                 89.754757
_cell_volume                      5001.65466417

loop_
_atom_site_label
_atom_site_type_symbol
_atom_type_description
_atom_site_fract_x
_atom_site_fract_y
_atom_site_fract_z
_atom_type_partial_charge
C1    C     C_R   0.365618 0.500197 0.501224 1.062897
C2    C     C_R   0.634239 0.499876 0.500609 1.108625
C3    C     C_R   0.964041 0.571089 0.552569 0.142688
C4    C     C_R   0.036761 0.440229 0.587903 0.144401
C5    C     C_R   0.037467 0.569828 0.550141 0.139121
C6    C     C_R   0.963268 0.440530 0.583967 0.135369
C7    C     C_R   0.073148 0.504010 0.566205 0.161611
C8    C     C_R   0.927597 0.505820 0.564570 0.162176
C9    C     C_R   0.550368 0.724588 0.552296 0.130785
C10   C     C_R   0.452728 0.273170 0.445670 0.099324
C11   C     C_R   0.450029 0.728967 0.451044 0.127186
C12   C     C_R   0.548239 0.274239 0.554965 0.105429
C13   C     C_R   0.553563 0.800967 0.552951 0.518955
C14   C     C_R   0.452056 0.196794 0.447275 0.516487
C15   C     C_R   0.451669 0.805184 0.451597 0.556867
C16   C     C_R   0.551163 0.197961 0.554328 0.511541
C17   C     C_R   0.503429 0.842095 0.502958 -0.052271
C18   C     C_R   0.502190 0.158360 0.501104 -0.027610
C19   C     C_R   0.444813 0.962344 0.533937 0.551177
C20   C     C_R   0.562611 0.038277 0.473987 0.549936
C21   C     C_R   0.563133 0.962214 0.474933 0.559427
C22   C     C_R   0.444245 0.038312 0.532744 0.555623
C23   C     C_R   0.503031 0.077288 0.502496 -0.247601
C24   C     C_R   0.504134 0.923224 0.504643 -0.246736
C25   C     C_R   0.499860 0.500087 0.329003 0.897640
C26   C     C_R   0.500200 0.499898 0.670989 0.945490
C27   C     C_1   0.499893 0.500199 0.227605 -0.152594
C28   C     C_1   0.500367 0.499704 0.772367 -0.148424
C29   C     C_1   0.499995 0.500088 0.142400 0.028656
C30   C     C_1   0.500424 0.499673 0.857564 0.027189
C31   C     C_1   0.500187 0.499893 0.042583 0.052546
C32   C     C_1   0.500339 0.499755 0.957376 0.053246
C33   C     C_R   0.735599 0.483275 0.605671 0.455130
C34   C     C_R   0.264841 0.541687 0.592043 0.465159
C35   C     C_R   0.246517 0.459093 0.460529 0.473970
C36   C     C_R   0.752924 0.519458 0.442191 0.480378
C37   C     C_R   0.807256 0.486387 0.622598 0.552487
C38   C     C_R   0.193725 0.540909 0.610359 0.545840
C39   C     C_R   0.175138 0.459477 0.477621 0.545479
C40   C     C_R   0.824705 0.521357 0.458510 0.546047
C41   C     C_R   0.851916 0.505062 0.548881 -0.328756
C42   C     C_R   0.148683 0.500502 0.552511 -0.326831
C43   C     C_R   0.708753 0.499818 0.515567 -0.521179
C44   C     C_R   0.291167 0.500866 0.517017 -0.536415
N1    N     N_R   0.500000 0.689440 0.500000 -0.167095
N2    N     N_R   0.500000 0.310560 0.500000 -0.154812
O1    O     O_R   0.398180 0.560840 0.499980 -0.597827
O2    O     O_R   0.601820 0.439160 0.500020 -0.587250
O3    O     O_R   0.601820 0.560840 0.500020 -0.584523
O4    O     O_R   0.398180 0.439160 0.499980 -0.572486
O5    O     O_R   0.500000 0.560830 0.373710 -0.618803
O6    O     O_R   0.500000 0.439170 0.626290 -0.595317
O7    O     O_R   0.500000 0.560830 0.626290 -0.574573
O8    O     O_R   0.500000 0.439170 0.373710 -0.590084
Zn1   Zn    Zn3+2 0.500000 0.581210 0.500000 1.013918
Zn2   Zn    Zn3+2 0.500000 0.418790 0.500000 1.012152
F1    F     F_    0.692148 0.465930 0.677334 -0.630148
F2    F     F_    0.308300 0.580791 0.648725 -0.592478
F3    F     F_    0.271784 0.420112 0.387309 -0.612849
F4    F     F_    0.726483 0.535846 0.355103 -0.588416
F5    F     F_    0.833153 0.471971 0.710552 -0.587806
F6    F     F_    0.168614 0.579463 0.684100 -0.585013
F7    F     F_    0.131477 0.421650 0.419762 -0.583153
F8    F     F_    0.867881 0.537983 0.386251 -0.580153
N3    N     N_2   0.925893 0.636761 0.538034 -0.284339
H1    H     H_    0.947700 0.672913 0.491575 0.258411
C45   C     C_3   0.901934 0.670430 0.623847 -0.689584
H2    H     H_    0.869416 0.718518 0.605718 0.259342
H3    H     H_    0.947366 0.687894 0.667935 0.248140
H4    H     H_    0.869378 0.632367 0.664988 0.263499
N4    N     N_2   0.074954 0.375542 0.608740 -0.282123
H5    H     H_    0.052728 0.328472 0.584166 0.257363
C46   C     C_3   0.099883 0.369931 0.705456 -0.690815
H6    H     H_    0.132298 0.320329 0.713973 0.255856
H7    H     H_    0.054945 0.366802 0.754284 0.246964
H8    H     H_    0.132799 0.417209 0.724340 0.265268
N5    N     N_2   0.075932 0.634124 0.531474 -0.275565
H9    H     H_    0.056493 0.680067 0.562859 0.257130
C47   C     C_3   0.093679 0.644998 0.433381 -0.696333
H10   H     H_    0.126555 0.694047 0.426819 0.248009
H11   H     H_    0.045514 0.652282 0.389411 0.256810
H12   H     H_    0.123940 0.598314 0.406329 0.248620
N6    N     N_2   0.924740 0.375717 0.598891 -0.279248
H13   H     H_    0.944590 0.342665 0.651661 0.254578
C48   C     C_3   0.906338 0.336781 0.513613 -0.668164
H14   H     H_    0.873723 0.289373 0.531899 0.255240
H15   H     H_    0.954214 0.317500 0.477699 0.252035
H16   H     H_    0.875620 0.371719 0.464292 0.252238
N7    N     N_2   0.599998 0.683848 0.605950 -0.239624
H17   H     H_    0.651043 0.695699 0.589050 0.257096
C49   C     C_3   0.589268 0.684887 0.706979 -0.610030
H18   H     H_    0.622918 0.642999 0.741188 0.238173
H19   H     H_    0.533800 0.673161 0.723692 0.244863
H20   H     H_    0.603476 0.738427 0.736663 0.267830
N8    N     N_2   0.403419 0.311610 0.388705 -0.214085
H21   H     H_    0.352423 0.297248 0.402298 0.298367
C50   C     C_3   0.417821 0.310443 0.288595 -0.577059
H22   H     H_    0.383170 0.349998 0.251513 0.248283
H23   H     H_    0.407716 0.255885 0.259021 0.261315
H24   H     H_    0.473107 0.325326 0.275312 0.225504
N9    N     N_2   0.396904 0.694357 0.396409 -0.269716
H25   H     H_    0.407654 0.645292 0.366408 0.259969
C51   C     C_3   0.324720 0.706528 0.422788 -0.521143
H26   H     H_    0.299676 0.654454 0.441187 0.203035
H27   H     H_    0.295601 0.730713 0.362013 0.249016
H28   H     H_    0.320477 0.743236 0.484528 0.267644
N10   N     N_2   0.596005 0.313778 0.612259 -0.222941
H29   H     H_    0.647601 0.301648 0.598411 0.266404
C52   C     C_3   0.581717 0.311115 0.712393 -0.571488
H30   H     H_    0.614822 0.351341 0.749854 0.266086
H31   H     H_    0.593933 0.256649 0.741569 0.259110
H32   H     H_    0.525895 0.324113 0.725784 0.223153
F9    F     F_    0.604321 0.834686 0.604290 -0.600806
F10   F     F_    0.403929 0.160424 0.394470 -0.597944
F11   F     F_    0.404043 0.843082 0.398896 -0.586914
F12   F     F_    0.600216 0.162774 0.607783 -0.604350
F13   F     F_    0.387526 0.926844 0.565257 -0.548394
F14   F     F_    0.619845 0.073919 0.442810 -0.544821
F15   F     F_    0.620697 0.926599 0.444122 -0.538630
F16   F     F_    0.386501 0.073947 0.562952 -0.544981

loop_
_geom_bond_atom_site_label_1
_geom_bond_atom_site_label_2
_ccdc_geom_bond_type
C9    N1    A    
N9    H25   S    
C27   C29   T    
N10   C52   S    
C46   H6    S    
C14   C18   A    
N8    H21   S    
C47   H12   S    
C20   F14   S    
C50   H22   S    
N5    H9    S    
C22   F16   S    
N6    H13   S    
C38   C42   A    
C52   H31   S    
C48   H14   S    
N4    C46   S    
C35   F3    S    
C7    C42   S    
C9    C13   A    
C11   C15   A    
C12   C16   A    
N3    C45   S    
C10   N2    A    
N10   H29   S    
N7    C49   S    
C1    O4    A    
N5    C47   S    
N9    C51   S    
C46   H7    S    
C3    N3    S    
C4    C7    A    
C16   F12   S    
C50   H23   S    
C39   C42   A    
O7    Zn1   S    
O8    Zn2   S    
C17   C24   S    
C48   H15   S    
C45   H2    S    
C33   C43   A    
C36   C40   A    
C19   C22   A    
C34   C44   A    
C25   O8    A    
C51   H27   S    
C3    C8    A    
C10   C14   A    
C52   H32   S    
C9    N7    S    
C49   H18   S    
C5    C7    A    
C1    O1    A    
C6    C8    A    
C2    O2    A    
C14   F10   S    
C33   C37   A    
C18   C23   S    
C45   H3    S    
C12   N2    A    
C35   C39   A    
C25   O5    A    
C2    O3    A    
C26   O6    A    
C49   H19   S    
C1    C44   S    
C31   C32   T    
C20   C23   A    
C2    C43   S    
C11   N9    S    
C16   C18   A    
C8    C41   S    
C35   C44   A    
C19   F13   S    
C4    C6    A    
C40   C41   A    
N6    C48   S    
C46   H8    S    
C15   F11   S    
C11   N1    A    
C5    N5    S    
C26   O7    A    
C50   H24   S    
O1    Zn1   S    
C48   H16   S    
O2    Zn2   S    
C33   F1    S    
C6    N6    S    
C34   C38   A    
C26   C28   S    
C3    C5    A    
C12   N10   S    
C37   F5    S    
N8    C50   S    
C15   C17   A    
C25   C27   S    
C39   F7    S    
C47   H11   S    
C40   F8    S    
C13   C17   A    
C45   H4    S    
C28   C30   T    
C19   C24   A    
N4    H5    S    
C21   F15   S    
O3    Zn1   S    
C52   H30   S    
C49   H20   S    
C30   C32   S    
C10   N8    S    
C51   H28   S    
O5    Zn1   S    
C37   C41   A    
O4    Zn2   S    
C47   H10   S    
C20   C21   A    
N1    Zn1   S    
C29   C31   S    
N3    H1    S    
C21   C24   A    
N2    Zn2   S    
C51   H26   S    
C34   F2    S    
C36   F4    S    
C22   C23   A    
C36   C43   A    
N7    H17   S    
C4    N4    S    
C13   F9    S    
O6    Zn2   S    
C38   F6    S    
