data_mof_unit_16835.cif
_audit_creation_date              2012-12-10T17:09:20-0500
_audit_creation_method            fapswitch 2.2
_symmetry_space_group_name_H-M    P1
_symmetry_Int_Tables_number       1
_space_group_crystal_system       triclinic
_cell_length_a                    18.50331
_cell_length_b                    18.271754
_cell_length_c                    11.666722
_cell_angle_alpha                 90.001868
_cell_angle_beta                  75.545299
_cell_angle_gamma                 89.99964
_cell_volume                      3819.51974268

loop_
_atom_site_label
_atom_site_type_symbol
_atom_type_description
_atom_site_fract_x
_atom_site_fract_y
_atom_site_fract_z
_atom_type_partial_charge
C1    C     C_R   0.401612 0.102331 0.521206 0.792035
C2    C     C_R   0.598341 0.897618 0.478803 0.792207
C3    C     C_R   0.598385 0.102332 0.478797 0.792236
C4    C     C_R   0.401567 0.897718 0.521214 0.792064
C5    C     C_R   0.901659 0.602382 0.521197 0.792200
C6    C     C_R   0.098389 0.397670 0.478793 0.792036
C7    C     C_R   0.098433 0.602282 0.478786 0.792062
C8    C     C_R   0.901613 0.397669 0.521204 0.792233
C9    C     C_R   0.535702 0.999986 0.960915 0.064445
C10   C     C_R   0.464298 0.000013 0.039085 0.064430
C11   C     C_R   0.035702 0.499984 0.960915 0.064429
C12   C     C_R   0.964298 0.500016 0.039085 0.064444
C13   C     C_R   0.410988 0.000025 0.867678 0.084536
C14   C     C_R   0.589012 0.999975 0.132321 0.084274
C15   C     C_R   0.910988 0.500030 0.867679 0.084275
C16   C     C_R   0.089012 0.499969 0.132322 0.084538
C17   C     C_R   0.401648 0.000033 0.991325 -0.340548
C18   C     C_R   0.598352 0.999968 0.008675 -0.340691
C19   C     C_R   0.901647 0.500039 0.991325 -0.340691
C20   C     C_R   0.098352 0.499961 0.008675 -0.340548
C21   C     C_R   0.542415 0.999980 0.836940 0.022535
C22   C     C_R   0.457585 0.000020 0.163060 0.022800
C23   C     C_R   0.042415 0.499976 0.836940 0.022805
C24   C     C_R   0.957585 0.500024 0.163060 0.022533
C25   C     C_R   0.654586 0.159703 0.465410 -0.077469
C26   C     C_R   0.345271 0.840462 0.534595 -0.076891
C27   C     C_R   0.345407 0.159697 0.534595 -0.077359
C28   C     C_R   0.654450 0.840133 0.465405 -0.077953
C29   C     C_R   0.154728 0.659537 0.465404 -0.076893
C30   C     C_R   0.845409 0.340300 0.534592 -0.077474
C31   C     C_R   0.845549 0.659866 0.534595 -0.077956
C32   C     C_R   0.154596 0.340304 0.465401 -0.077353
C33   C     C_R   0.224416 0.798351 0.644532 -0.234615
C34   C     C_R   0.775103 0.202320 0.354871 -0.234753
C35   C     C_R   0.774647 0.797029 0.354312 -0.234862
C36   C     C_R   0.224868 0.202288 0.645095 -0.234738
C37   C     C_R   0.724889 0.297689 0.645128 -0.234750
C38   C     C_R   0.275582 0.701650 0.355465 -0.234623
C39   C     C_R   0.275132 0.297709 0.354895 -0.234738
C40   C     C_R   0.725348 0.702962 0.645683 -0.234866
C41   C     C_R   0.285627 0.843121 0.635063 -0.237336
C42   C     C_R   0.713925 0.157487 0.364456 -0.237432
C43   C     C_R   0.713496 0.841918 0.363997 -0.237603
C44   C     C_R   0.286050 0.157460 0.635519 -0.237505
C45   C     C_R   0.786069 0.342520 0.635544 -0.237426
C46   C     C_R   0.214372 0.656877 0.364937 -0.237328
C47   C     C_R   0.213950 0.342538 0.364472 -0.237508
C48   C     C_R   0.786500 0.658075 0.635998 -0.237598
C49   C     C_R   0.347502 0.786581 0.446599 0.030249
C50   C     C_R   0.652585 0.213281 0.553794 0.030278
C51   C     C_R   0.652667 0.786846 0.554153 0.030322
C52   C     C_R   0.347420 0.213288 0.446230 0.030289
C53   C     C_R   0.847409 0.286721 0.446210 0.030278
C54   C     C_R   0.152496 0.713421 0.553396 0.030235
C55   C     C_R   0.152583 0.286713 0.553764 0.030290
C56   C     C_R   0.847331 0.713153 0.445849 0.030316
C57   C     C_R   0.281262 0.746801 0.450107 0.131146
C58   C     C_R   0.718877 0.252999 0.550147 0.131266
C59   C     C_R   0.719013 0.747196 0.550381 0.131378
C60   C     C_R   0.281129 0.253005 0.449864 0.131258
C61   C     C_R   0.781117 0.247006 0.449856 0.131273
C62   C     C_R   0.218736 0.753201 0.549889 0.131148
C63   C     C_R   0.218873 0.246995 0.550128 0.131253
C64   C     C_R   0.780984 0.752801 0.449618 0.131387
Cu1   Cu    Cu3+1 0.507800 0.000000 0.383250 0.924003
Cu2   Cu    Cu3+1 0.492200 1.000000 0.616750 0.923957
Cu3   Cu    Cu3+1 0.007800 0.500000 0.383250 0.923959
Cu4   Cu    Cu3+1 0.992200 0.500000 0.616750 0.924004
H1    H     H_    0.637690 0.999959 0.167908 0.117109
H2    H     H_    0.362310 0.000041 0.832091 0.117077
H3    H     H_    0.137689 0.499950 0.167909 0.117076
H4    H     H_    0.862310 0.500049 0.832091 0.117109
H5    H     H_    0.402789 0.000039 0.223831 0.127999
H6    H     H_    0.597211 0.999961 0.776169 0.128011
H7    H     H_    0.902789 0.500047 0.223831 0.128010
H8    H     H_    0.097210 0.499953 0.776169 0.127998
H9    H     H_    0.714138 0.119143 0.293474 0.158921
H10   H     H_    0.285213 0.881771 0.705715 0.158572
H11   H     H_    0.285825 0.119100 0.706482 0.158833
H12   H     H_    0.713515 0.879962 0.292703 0.159183
H13   H     H_    0.214788 0.618225 0.294287 0.158573
H14   H     H_    0.785856 0.380865 0.706524 0.158918
H15   H     H_    0.786479 0.620028 0.707289 0.159180
H16   H     H_    0.214172 0.380894 0.293505 0.158832
H17   H     H_    0.681680 0.300430 0.726642 0.149688
H18   H     H_    0.319053 0.698514 0.274314 0.149719
H19   H     H_    0.318352 0.300460 0.273396 0.149684
H20   H     H_    0.682392 0.700612 0.727536 0.149648
H21   H     H_    0.180945 0.801487 0.725682 0.149714
H22   H     H_    0.818310 0.199585 0.273353 0.149690
H23   H     H_    0.817598 0.799372 0.272454 0.149641
H24   H     H_    0.181644 0.199531 0.726589 0.149683
H25   H     H_    0.345814 0.000053 0.049022 0.136751
H26   H     H_    0.654186 0.999947 0.950977 0.136734
H27   H     H_    0.845814 0.500064 0.049023 0.136733
H28   H     H_    0.154186 0.499935 0.950978 0.136752
N1    N     N_R   0.519530 0.000000 0.207810 -0.180739
N2    N     N_R   0.480470 0.000000 0.792190 -0.180754
N3    N     N_R   0.019530 0.500000 0.207810 -0.180752
N4    N     N_R   0.980470 0.500000 0.792190 -0.180739
O1    O     O_R   0.430030 0.075530 0.417420 -0.589494
O2    O     O_R   0.569970 0.924470 0.582580 -0.589494
O3    O     O_R   0.569970 0.075530 0.582580 -0.589427
O4    O     O_R   0.430030 0.924470 0.417420 -0.589425
O5    O     O_R   0.930030 0.575530 0.417420 -0.589492
O6    O     O_R   0.069970 0.424470 0.582580 -0.589494
O7    O     O_R   0.069970 0.575530 0.582580 -0.589423
O8    O     O_R   0.930030 0.424470 0.417420 -0.589425
O9    O     O_R   0.416860 0.075510 0.614610 -0.591073
O10   O     O_R   0.583140 0.924490 0.385390 -0.591052
O11   O     O_R   0.583140 0.075510 0.385390 -0.590978
O12   O     O_R   0.416860 0.924490 0.614610 -0.590994
O13   O     O_R   0.916860 0.575510 0.614610 -0.591053
O14   O     O_R   0.083140 0.424490 0.385390 -0.591074
O15   O     O_R   0.083140 0.575510 0.385390 -0.590990
O16   O     O_R   0.916860 0.424490 0.614610 -0.590977
C65   C     C_3   0.579547 0.231388 0.645023 -0.403564
C66   C     C_3   0.552818 0.309604 0.628951 -0.372023
C67   C     C_3   0.474037 0.322828 0.705680 -0.865452
H29   H     H_    0.433901 0.284181 0.681442 0.257787
H30   H     H_    0.472783 0.315584 0.800687 0.257983
H31   H     H_    0.456403 0.379568 0.691954 0.241511
H32   H     H_    0.590245 0.351132 0.652631 0.225211
H33   H     H_    0.553300 0.318369 0.534752 0.231428
H34   H     H_    0.533480 0.195022 0.636395 0.225269
H35   H     H_    0.586087 0.223251 0.736219 0.191730
C68   C     C_3   0.420716 0.768260 0.355942 -0.403961
C69   C     C_3   0.447492 0.690241 0.373221 -0.371922
C70   C     C_3   0.526356 0.676838 0.296920 -0.865365
H36   H     H_    0.527748 0.683556 0.201768 0.257954
H37   H     H_    0.566393 0.715745 0.320818 0.257985
H38   H     H_    0.544013 0.620232 0.311473 0.241449
H39   H     H_    0.446894 0.682057 0.467594 0.231327
H40   H     H_    0.410150 0.648452 0.350004 0.225229
H41   H     H_    0.414389 0.775873 0.264521 0.191732
H42   H     H_    0.466666 0.804855 0.364320 0.225089
C71   C     C_3   0.420466 0.231396 0.355022 -0.403567
C72   C     C_3   0.447196 0.309609 0.371114 -0.372039
C73   C     C_3   0.525983 0.322827 0.294402 -0.865419
H43   H     H_    0.566117 0.284198 0.318687 0.257774
H44   H     H_    0.527254 0.315548 0.199393 0.257991
H45   H     H_    0.543604 0.379577 0.308093 0.241529
H46   H     H_    0.409775 0.351142 0.347431 0.225201
H47   H     H_    0.446706 0.318371 0.465319 0.231434
H48   H     H_    0.466530 0.195026 0.363654 0.225271
H49   H     H_    0.413936 0.223262 0.263819 0.191718
C74   C     C_3   0.579798 0.768960 0.645941 -0.403202
C75   C     C_3   0.553112 0.690554 0.631091 -0.372128
C76   C     C_3   0.474402 0.677537 0.708231 -0.865448
H50   H     H_    0.473252 0.685415 0.803077 0.258020
H51   H     H_    0.434164 0.715863 0.683522 0.257558
H52   H     H_    0.456817 0.620639 0.695473 0.241582
H53   H     H_    0.553484 0.681197 0.537074 0.231526
H54   H     H_    0.590615 0.649294 0.655260 0.225170
H55   H     H_    0.586546 0.777623 0.736906 0.191715
H56   H     H_    0.533616 0.805098 0.637061 0.225469
C77   C     C_3   0.079281 0.731744 0.644046 -0.403958
C78   C     C_3   0.052505 0.809762 0.626759 -0.371922
C79   C     C_3   0.973636 0.823166 0.703039 -0.865356
H57   H     H_    0.933608 0.784244 0.679156 0.257992
H58   H     H_    0.972238 0.816473 0.798197 0.257952
H59   H     H_    0.955974 0.879764 0.688446 0.241445
H60   H     H_    0.089843 0.851553 0.649987 0.225230
H61   H     H_    0.053111 0.817946 0.532383 0.231330
H62   H     H_    0.033331 0.695148 0.635665 0.225082
H63   H     H_    0.085603 0.724134 0.735471 0.191734
C80   C     C_3   0.920446 0.268617 0.354975 -0.403552
C81   C     C_3   0.947174 0.190397 0.371019 -0.372033
C82   C     C_3   0.025955 0.177180 0.294280 -0.865467
H64   H     H_    0.027209 0.184453 0.199279 0.257987
H65   H     H_    0.066093 0.215814 0.318545 0.257780
H66   H     H_    0.043585 0.120433 0.307964 0.241514
H67   H     H_    0.946695 0.181619 0.465215 0.231442
H68   H     H_    0.909747 0.148873 0.347328 0.225207
H69   H     H_    0.913904 0.276765 0.263782 0.191734
H70   H     H_    0.966515 0.304978 0.363611 0.225272
C83   C     C_3   0.920201 0.731038 0.354060 -0.403188
C84   C     C_3   0.946880 0.809452 0.368880 -0.372133
C85   C     C_3   0.025602 0.822456 0.291770 -0.865455
H71   H     H_    0.065835 0.784168 0.316580 0.257540
H72   H     H_    0.026784 0.814510 0.196926 0.258033
H73   H     H_    0.043166 0.879372 0.304448 0.241585
H74   H     H_    0.909387 0.850700 0.344654 0.225162
H75   H     H_    0.946488 0.818835 0.462898 0.231541
H76   H     H_    0.966385 0.694909 0.362957 0.225474
H77   H     H_    0.913455 0.722361 0.263097 0.191707
C86   C     C_3   0.079534 0.268597 0.644960 -0.403579
C87   C     C_3   0.052807 0.190389 0.628828 -0.372026
C88   C     C_3   0.974018 0.177159 0.705526 -0.865432
H78   H     H_    0.972754 0.184370 0.800543 0.257986
H79   H     H_    0.933891 0.215826 0.681312 0.257788
H80   H     H_    0.956383 0.120428 0.691742 0.241525
H81   H     H_    0.053299 0.181647 0.534618 0.231434
H82   H     H_    0.090229 0.148850 0.652492 0.225205
H83   H     H_    0.086060 0.276713 0.736169 0.191722
H84   H     H_    0.033472 0.304973 0.636340 0.225263

loop_
_geom_bond_atom_site_label_1
_geom_bond_atom_site_label_2
_ccdc_geom_bond_type
C6    C32   S    
C77   C78   S    
C7    C29   S    
C86   H84   S    
C50   C65   S    
C82   H64   S    
C14   C18   A    
C30   C45   A    
C74   C75   S    
C34   C42   A    
Cu1   O1    S    
C15   N4    A    
C9    C21   A    
C69   C70   S    
C34   H22   S    
C84   C85   S    
C83   H76   S    
C57   C62   A    
C5    O5    A    
C10   C22   A    
C81   H68   S    
C15   H4    S    
C59   C64   A    
C75   H54   S    
C38   H18   S    
C60   C63   A    
C37   H17   S    
Cu3   O14   S    
C68   H41   S    
C33   H21   S    
C72   H46   S    
C76   H51   S    
C73   H45   S    
Cu3   O8    S    
C67   H31   S    
C13   H2    S    
C2    O2    A    
C10   C17   A    
C24   N3    A    
C35   C43   A    
C49   C57   A    
C70   H37   S    
C7    O15   A    
C13   N2    A    
C88   H79   S    
Cu2   O2    S    
C66   C67   S    
C6    O14   A    
Cu3   O15   S    
C52   C60   A    
C1    O9    A    
C25   C50   A    
C53   C61   A    
C27   C44   A    
C53   C80   S    
Cu1   O11   S    
C45   H14   S    
C3    O11   A    
C33   C62   A    
C55   C63   A    
C56   C64   A    
C35   C64   A    
Cu4   O7    S    
C55   C86   S    
C31   C56   A    
C36   C63   A    
C74   H55   S    
C9    C10   A    
C23   H8    S    
C32   C55   A    
C37   C58   A    
C78   H61   S    
Cu4   O13   S    
C85   H73   S    
C5    O13   A    
C36   H24   S    
C58   C61   A    
C23   N4    A    
C20   H28   S    
C87   H82   S    
C22   N1    A    
C82   H65   S    
C16   H3    S    
Cu4   O6    S    
C8    O8    A    
C56   C83   S    
C67   H30   S    
C81   H67   S    
C49   C68   S    
C30   C53   A    
C11   C20   A    
Cu3   Cu4   S    
C50   C58   A    
C71   H49   S    
C3    C25   S    
C75   C76   S    
C76   H52   S    
C77   H62   S    
C41   H10   S    
Cu3   O5    S    
C54   C62   A    
C43   H12   S    
C21   H6    S    
C34   C61   A    
C83   H77   S    
C87   C88   S    
C77   H63   S    
C88   H80   S    
C15   C19   A    
Cu4   N4    S    
C69   H40   S    
C38   C57   A    
C71   H48   S    
C79   H57   S    
C51   C74   S    
C16   C20   A    
C79   H58   S    
C52   C71   S    
C6    O6    A    
C79   H59   S    
C16   N3    A    
C66   H33   S    
C47   H16   S    
C68   H42   S    
C67   H29   S    
C74   H56   S    
C78   H60   S    
Cu4   O16   S    
C81   C82   S    
C87   H81   S    
C83   C84   S    
C31   C48   A    
C78   C79   S    
C18   H26   S    
C14   H1    S    
C7    O7    A    
C26   C49   A    
C51   C59   A    
C75   H53   S    
C37   C45   A    
C68   C69   S    
C1    O1    A    
C80   C81   S    
C19   H27   S    
C27   C52   A    
C14   N1    A    
C39   C47   A    
C70   H36   S    
C65   H35   S    
C46   H13   S    
C3    O3    A    
C40   C48   A    
C2    O10   A    
C86   H83   S    
C28   C51   A    
C39   H19   S    
Cu2   O3    S    
C44   H11   S    
C84   H74   S    
C25   C42   A    
C4    C26   S    
C73   H43   S    
C24   H7    S    
Cu3   N3    S    
C71   C72   S    
C12   C24   A    
C28   C43   A    
C65   C66   S    
Cu1   O4    S    
C48   H15   S    
C13   C17   A    
C29   C46   A    
C33   C41   A    
C70   H38   S    
C8    C30   S    
C86   C87   S    
C1    C27   S    
C72   H47   S    
C76   H50   S    
C54   C77   S    
C21   N2    A    
C73   H44   S    
Cu2   N2    S    
C5    C31   S    
C39   C60   A    
C4    O4    A    
C12   C19   A    
C11   C23   A    
C32   C47   A    
C80   H69   S    
C66   H32   S    
Cu2   O9    S    
C4    O12   A    
C88   H78   S    
Cu1   O10   S    
C38   C46   A    
C36   C44   A    
C72   C73   S    
C8    O16   A    
Cu1   N1    S    
C85   H71   S    
C9    C18   A    
C17   H25   S    
C26   C41   A    
C42   H9    S    
Cu1   Cu2   S    
C29   C54   A    
C40   C59   A    
C2    C28   S    
C82   H66   S    
C22   H5    S    
Cu2   O12   S    
C69   H39   S    
C65   H34   S    
C84   H75   S    
C40   H20   S    
C11   C12   A    
C80   H70   S    
C85   H72   S    
C35   H23   S    
