data_mof_unit_25129.cif
_audit_creation_date              2012-12-10T17:36:47-0500
_audit_creation_method            fapswitch 2.2
_symmetry_space_group_name_H-M    P1
_symmetry_Int_Tables_number       1
_space_group_crystal_system       triclinic
_cell_length_a                    10.668211
_cell_length_b                    12.396447
_cell_length_c                    13.66769
_cell_angle_alpha                 117.632202
_cell_angle_beta                  75.217574
_cell_angle_gamma                 101.564075
_cell_volume                      1541.22800393

loop_
_atom_site_label
_atom_site_type_symbol
_atom_type_description
_atom_site_fract_x
_atom_site_fract_y
_atom_site_fract_z
_atom_type_partial_charge
C1    C     C_R   0.508537 0.853029 0.288098 0.823462
C2    C     C_3   0.005592 0.968652 0.580168 -0.185954
C3    C     C_3   0.939011 0.885798 0.477546 -0.281871
C4    C     C_3   0.878212 0.998073 0.495575 -0.088974
C5    C     C_R   0.535743 0.258353 0.008210 -0.154159
C6    C     C_R   0.522101 0.224141 0.823225 -0.102487
C7    C     C_R   0.547481 0.814864 0.089930 -0.199881
C8    C     C_R   0.595120 0.743405 0.977863 -0.133373
C9    C     C_R   0.604584 0.619518 0.939232 0.183558
C10   C     C_R   0.547021 0.561042 0.010725 -0.025702
C11   C     C_R   0.498205 0.634062 0.126828 -0.108543
C12   C     C_R   0.740730 0.998392 0.497044 0.796972
C13   C     C_R   0.538288 0.432353 0.971367 0.047447
C14   C     C_R   0.515803 0.381460 0.047762 -0.027303
C15   C     C_R   0.455050 0.448133 0.157637 0.040669
C16   C     C_R   0.435174 0.570828 0.194536 0.440553
C17   C     C_R   0.529541 0.351008 0.860392 -0.183015
C18   C     C_R   0.542308 0.179239 0.895128 0.171876
C19   C     C_R   0.511692 0.765176 0.167710 -0.058523
C20   C     C_R   0.712664 0.344724 0.330343 -0.372127
C21   C     C_R   0.308048 0.749224 0.629837 0.245627
C22   C     C_R   0.238256 0.635500 0.613904 0.297523
C23   C     C_R   0.498283 0.143873 0.709464 0.836939
C24   C     C_R   0.303209 0.528385 0.546199 0.467435
C25   C     C_R   0.440306 0.540546 0.508864 -0.118286
C26   C     C_R   0.492181 0.651026 0.499596 0.131055
C27   C     C_R   0.522373 0.441995 0.463259 -0.042649
C28   C     C_R   0.638672 0.445104 0.386248 -0.020005
C29   C     C_R   0.678596 0.547381 0.363582 0.450310
C30   C     C_R   0.607478 0.649045 0.421466 -0.178432
C31   C     C_R   0.499571 0.344728 0.496006 0.335095
C32   C     C_R   0.672614 0.240804 0.350330 0.661278
C33   C     C_R   0.259561 0.000511 0.501327 0.859867
C34   C     C_3   0.995505 0.030122 0.417664 0.140691
C35   C     C_3   0.056481 0.919740 0.401086 0.503802
C36   C     C_3   0.122373 0.000064 0.501552 -0.081217
C37   C     C_3   0.061407 0.111813 0.520193 -0.225708
C38   C     C_3   0.942291 0.080378 0.598574 -0.145316
Cu1   Cu    Cu3+1 0.529830 0.098270 0.475420 1.043522
Cu2   Cu    Cu3+1 0.470170 0.901730 0.524580 1.012246
H1    H     H_    0.517121 0.386294 0.805570 0.208416
H2    H     H_    0.548622 0.911963 0.117165 0.180762
H3    H     H_    0.634644 0.787205 0.922481 0.186137
H4    H     H_    0.800219 0.345897 0.269763 0.200514
H5    H     H_    0.643045 0.722241 0.398378 0.193256
H6    H     H_    0.112981 0.204274 0.539573 0.219950
H7    H     H_    0.892178 0.147033 0.680330 0.168600
H8    H     H_    0.011602 0.944510 0.647381 0.177671
H9    H     H_    0.888159 0.793041 0.459384 0.180394
H10   H     H_    0.540732 0.221759 0.065056 0.175488
N1    N     N_R   0.575030 0.246270 0.438190 -0.248462
N2    N     N_R   0.425760 0.754330 0.561190 -0.224076
O1    O     O_R   0.537510 0.972500 0.318130 -0.549280
O2    O     O_R   0.487140 0.806530 0.359650 -0.556494
O3    O     O_R   0.708330 0.082950 0.479220 -0.535716
O4    O     O_R   0.657960 0.916980 0.520740 -0.600295
O5    O     O_R   0.512860 0.193470 0.640350 -0.578170
O6    O     O_R   0.462490 0.027500 0.681870 -0.531668
O7    O     O_R   0.342040 0.083020 0.479260 -0.558748
O8    O     O_R   0.291670 0.917050 0.520780 -0.572334
O9    O     O_3   0.123885 0.840755 0.296167 -0.586015
C39   C     C_3   0.033505 0.760811 0.228415 -0.320397
H11   H     H_    0.084582 0.720411 0.139560 0.208497
H12   H     H_    0.951205 0.806375 0.232580 0.183724
H13   H     H_    0.994584 0.685587 0.253074 0.197917
I1    I     I_    0.735101 0.541833 0.782221 -0.408305
O10   O     O_3   0.343388 0.622229 0.290573 -0.547682
C40   C     C_3   0.221250 0.599803 0.259730 -0.233515
H14   H     H_    0.184504 0.501524 0.229503 0.172916
H15   H     H_    0.225459 0.629473 0.193632 0.184474
H16   H     H_    0.150759 0.651845 0.335377 0.199451
O11   O     O_3   0.735943 0.135355 0.288444 -0.535265
C41   C     C_3   0.756694 0.101341 0.171803 -0.284618
H17   H     H_    0.774670 0.003415 0.125610 0.207594
H18   H     H_    0.845346 0.153375 0.145864 0.181140
H19   H     H_    0.670793 0.112248 0.145920 0.144656
O12   O     O_3   0.796225 0.554449 0.293988 -0.622669
C42   C     C_3   0.773225 0.516776 0.185281 -0.375200
H20   H     H_    0.716805 0.582359 0.184247 0.170038
H21   H     H_    0.724038 0.422289 0.151860 0.187996
H22   H     H_    0.868094 0.515073 0.127824 0.196379
I2    I     I_    0.368435 0.369698 0.652277 -0.287591
I3    I     I_    0.221502 0.908199 0.762120 -0.262201
I4    I     I_    0.011505 0.067001 0.276810 -0.303499
O13   O     O_3   0.237833 0.411303 0.513432 -0.560093
C43   C     C_3   0.117355 0.401444 0.483677 -0.161734
H23   H     H_    0.100682 0.308329 0.418084 0.209446
H24   H     H_    0.115487 0.464109 0.446487 0.150118
H25   H     H_    0.036854 0.411754 0.556288 0.208265
O14   O     O_3   0.110700 0.628406 0.670049 -0.538062
C44   C     C_3   0.026020 0.668617 0.630983 -0.255263
H26   H     H_    0.074099 0.699018 0.563974 0.129908
H27   H     H_    0.974671 0.744775 0.702991 0.217845
H28   H     H_    0.950074 0.593553 0.596856 0.183457
I5    I     I_    0.584510 0.997911 0.844441 -0.367894
I6    I     I_    0.351219 0.348784 0.249813 -0.376170

loop_
_geom_bond_atom_site_label_1
_geom_bond_atom_site_label_2
_ccdc_geom_bond_type
C23   O6    A    
Cu1   N1    S    
Cu2   O8    S    
C34   C37   S    
C41   H17   S    
C30   H5    S    
C35   C36   S    
C8    H3    S    
C3    H9    S    
C7    C8    A    
C32   O11   S    
O13   C43   S    
C11   C19   A    
C39   H11   S    
C31   I2    S    
C28   C29   A    
C37   C38   S    
C42   H21   S    
C15   C16   A    
Cu1   O5    S    
C33   C36   S    
C34   C35   S    
C7    H2    S    
C1    O1    A    
C9    I1    S    
C39   H12   S    
Cu1   O3    S    
C21   I3    S    
C8    C9    A    
Cu2   O4    S    
C4    C12   S    
C9    C10   A    
O12   C42   S    
C33   O7    A    
C21   C22   A    
C18   I5    S    
C41   H18   S    
C34   I4    S    
C20   H4    S    
C22   O14   S    
C6    C18   A    
C4    C34   S    
C1    C19   S    
Cu2   O6    S    
C27   C31   A    
O10   C40   S    
C24   C25   A    
C15   I6    S    
C42   H20   S    
C40   H14   S    
C24   O13   S    
C5    C18   A    
C20   C28   A    
C2    H8    S    
C25   C26   A    
Cu2   N2    S    
C43   H25   S    
C1    O2    A    
C32   N1    A    
C29   C30   A    
C26   N2    A    
C44   H27   S    
C11   C16   A    
C2    C38   S    
C3    C35   S    
Cu1   O7    S    
C38   H7    S    
C35   O9    S    
C16   O10   S    
C5    C14   A    
C12   O4    A    
C4    C38   S    
C26   C30   A    
C33   O8    A    
C7    C19   A    
C41   H19   S    
C22   C24   A    
C5    H10   S    
C3    C4    S    
C44   H26   S    
C20   C32   A    
C2    C36   S    
C23   O5    A    
C6    C17   A    
C36   C37   S    
C39   H13   S    
C43   H23   S    
C31   N1    A    
O11   C41   S    
C10   C13   A    
C25   C27   A    
Cu2   O2    S    
C13   C17   A    
C2    C3    S    
C44   H28   S    
C42   H22   S    
O14   C44   S    
Cu1   O1    S    
C40   H16   S    
C6    C23   S    
C43   H24   S    
O9    C39   S    
C17   H1    S    
C12   O3    A    
C10   C11   A    
Cu1   Cu2   S    
C29   O12   S    
C40   H15   S    
C27   C28   A    
C14   C15   A    
C37   H6    S    
C13   C14   A    
C21   N2    A    
