data_mof_unit_52030.cif
_audit_creation_date              2012-12-10T17:08:10-0500
_audit_creation_method            fapswitch 2.2
_symmetry_space_group_name_H-M    P1
_symmetry_Int_Tables_number       1
_space_group_crystal_system       triclinic
_cell_length_a                    23.524836
_cell_length_b                    11.032463
_cell_length_c                    9.813591
_cell_angle_alpha                 111.146851
_cell_angle_beta                  98.217257
_cell_angle_gamma                 91.019219
_cell_volume                      2344.43870943

loop_
_atom_site_label
_atom_site_type_symbol
_atom_type_description
_atom_site_fract_x
_atom_site_fract_y
_atom_site_fract_z
_atom_type_partial_charge
C1    C     C_R   0.495856 0.254039 0.440580 0.871057
C2    C     C_R   0.504143 0.745961 0.559420 0.870844
C3    C     C_R   0.231106 0.497376 0.376046 0.469765
C4    C     C_R   0.769057 0.507453 0.625759 0.466595
C5    C     C_R   0.290582 0.496823 0.376643 -0.253528
C6    C     C_R   0.709582 0.507954 0.625079 -0.255743
C7    C     C_R   0.328466 0.500870 0.502952 -0.115661
C8    C     C_R   0.671559 0.499343 0.497132 -0.115117
C9    C     C_R   0.306169 0.505295 0.629697 -0.189424
C10   C     C_R   0.693742 0.490512 0.368831 -0.189715
C11   C     C_R   0.246938 0.504581 0.629628 -0.130220
C12   C     C_R   0.752973 0.491187 0.368889 -0.130798
C13   C     C_R   0.209249 0.500202 0.503558 0.212431
C14   C     C_R   0.790805 0.500037 0.496567 0.214503
C15   C     C_2   0.493590 0.114672 0.407008 -0.329234
C16   C     C_2   0.506405 0.885328 0.592992 -0.329520
C17   C     C_2   0.501057 0.069575 0.516623 -0.136877
C18   C     C_2   0.498932 0.930425 0.483377 -0.136684
C19   C     C_2   0.504779 0.511059 0.081496 -0.064962
C20   C     C_2   0.495220 0.488941 0.918504 -0.064662
C21   C     C_R   0.390948 0.500179 0.501192 0.834164
C22   C     C_R   0.609060 0.499879 0.498825 0.834293
C23   C     C_R   0.883965 0.618033 0.552817 0.650929
C24   C     C_R   0.116118 0.382188 0.447353 0.653346
C25   C     C_R   0.875367 0.386628 0.432674 0.656966
C26   C     C_R   0.124680 0.613627 0.567126 0.645857
C27   C     C_R   0.934801 0.384528 0.433058 -0.079660
C28   C     C_R   0.065256 0.615703 0.566872 -0.075427
C29   C     C_R   0.969910 0.501848 0.499038 -0.051103
C30   C     C_R   0.030159 0.498349 0.501053 -0.049208
C31   C     C_R   0.944793 0.622040 0.562753 -0.141201
C32   C     C_R   0.055289 0.378132 0.437518 -0.146222
C33   C     C_R   0.959225 0.266763 0.368828 -0.166478
C34   C     C_R   0.040842 0.733441 0.631313 -0.160112
C35   C     C_R   0.018409 0.261002 0.367734 0.393705
C36   C     C_R   0.981681 0.739127 0.632789 0.400544
Cu1   Cu    Cu3+1 0.509980 0.521810 0.644910 0.965233
Cu2   Cu    Cu3+1 0.490020 0.478190 0.355090 0.965239
H1    H     H_    0.931532 0.177701 0.317619 0.250515
H2    H     H_    0.068530 0.822512 0.682559 0.249276
H3    H     H_    0.555780 0.624496 0.935076 0.202832
H4    H     H_    0.444220 0.375502 0.064924 0.202812
H5    H     H_    0.307395 0.493786 0.278482 0.203447
H6    H     H_    0.692915 0.514765 0.724650 0.203470
H7    H     H_    0.334403 0.508318 0.728427 0.175189
H8    H     H_    0.665417 0.483920 0.268790 0.175822
H9    H     H_    0.230124 0.507103 0.727673 0.188588
H10   H     H_    0.769680 0.485213 0.269570 0.189047
H11   H     H_    0.491171 0.864501 0.368133 0.182424
H12   H     H_    0.508814 0.135498 0.631867 0.182314
H13   H     H_    0.514184 0.951525 0.708042 0.156694
H14   H     H_    0.485814 0.048475 0.291958 0.156777
H15   H     H_    0.462197 0.415347 0.845082 0.160446
H16   H     H_    0.537802 0.584655 0.154917 0.160844
N1    N     N_R   0.851588 0.501624 0.493801 -0.463167
N2    N     N_R   0.148468 0.498622 0.506227 -0.466325
N3    N     N_2   0.475010 0.445410 0.137370 -0.281934
N4    N     N_2   0.524990 0.554590 0.862630 -0.281839
O1    O     O_R   0.505330 0.332340 0.577400 -0.580574
O2    O     O_R   0.494670 0.667660 0.422600 -0.580585
O3    O     O_R   0.488470 0.295500 0.332650 -0.569227
O4    O     O_R   0.511530 0.704500 0.667350 -0.569294
O5    O     O_R   0.426310 0.518390 0.622390 -0.582323
O6    O     O_R   0.573690 0.481610 0.377610 -0.582551
O7    O     O_R   0.409450 0.481550 0.377650 -0.571076
O8    O     O_R   0.590550 0.518450 0.622350 -0.571260
O9    O     O_2   0.856554 0.728050 0.599148 -0.412462
O10   O     O_2   0.143549 0.272220 0.400820 -0.405814
O11   O     O_2   0.841366 0.274406 0.372762 -0.480329
O12   O     O_2   0.158680 0.725852 0.626956 -0.481776
S1    S     S_3+6 0.041765 0.104663 0.271864 0.094714
O13   O     O_2   0.075765 0.112446 0.156297 -0.195636
O14   O     O_2   0.078749 0.059663 0.379961 -0.193862
O15   O     O_3   0.985202 0.994625 0.187499 -0.490869
H17   H     H_    0.002191 0.913282 0.132483 0.404165
S2    S     S_3+6 0.958372 0.895217 0.729816 0.094384
O16   O     O_2   0.921525 0.941222 0.622415 -0.196088
O17   O     O_2   0.924244 0.886462 0.844745 -0.188080
O18   O     O_3   0.014973 0.004932 0.815229 -0.499908
H18   H     H_    0.997990 0.086293 0.870218 0.395561
S3    S     S_3+6 0.184950 0.494398 0.215453 0.040320
O19   O     O_2   0.143537 0.598855 0.257503 -0.263045
O20   O     O_2   0.219216 0.516675 0.107389 -0.281784
O21   O     O_3   0.147714 0.348185 0.134906 -0.468405
H19   H     H_    0.117437 0.358639 0.059567 0.384343
S4    S     S_3+6 0.815256 0.516894 0.788967 0.043201
O22   O     O_2   0.844169 0.652211 0.862504 -0.223613
O23   O     O_2   0.781483 0.487826 0.894008 -0.281628
O24   O     O_3   0.865727 0.409239 0.746818 -0.510740
H20   H     H_    0.894177 0.432837 0.838726 0.383095

loop_
_geom_bond_atom_site_label_1
_geom_bond_atom_site_label_2
_ccdc_geom_bond_type
C9    H7    S    
C27   C29   A    
C11   H9    S    
C19   C20   S    
S2    O18   S    
C12   H10   S    
Cu1   O4    S    
C27   C33   A    
C33   H1    S    
C34   H2    S    
Cu1   Cu2   S    
S2    O17   D    
H3    N4    S    
C1    O1    A    
C2    O2    A    
C4    S4    S    
C15   C17   D    
C23   O9    S    
C22   O8    A    
C36   S2    S    
Cu1   O5    S    
C10   H8    S    
C8    C22   S    
C16   H13   S    
C1    C15   S    
C2    C16   S    
Cu1   N4    S    
C3    C13   A    
Cu2   O3    S    
C14   N1    S    
C5    H5    S    
C35   S1    S    
C6    H6    S    
H4    N3    S    
S3    O20   D    
S3    O19   D    
Cu2   O6    S    
O15   H17   S    
S4    O23   D    
C32   C35   A    
S2    O16   D    
C4    C6    A    
S1    O14   D    
S4    O22   D    
C6    C8    A    
C7    C21   S    
C19   N3    D    
C26   N2    A    
C23   C31   A    
C24   C32   A    
C3    S3    S    
C29   C30   A    
Cu2   N3    S    
Cu2   O7    S    
Cu1   O8    S    
C17   C18   S    
C15   H14   S    
O21   H19   S    
C9    C11   A    
Cu1   O1    S    
C10   C12   A    
Cu2   O2    S    
C19   H16   S    
C16   C18   D    
C12   C14   A    
C26   O12   S    
C25   C27   A    
C20   N4    D    
S3    O21   S    
C5    C7    A    
C7    C9    A    
C21   O7    A    
C25   N1    A    
C20   H15   S    
C3    C5    A    
S4    O24   S    
C1    O3    A    
C17   H12   S    
S1    O15   S    
C23   N1    A    
C24   N2    A    
C26   C28   A    
C13   N2    S    
C28   C30   A    
S1    O13   D    
C29   C31   A    
C30   C32   A    
C11   C13   A    
C33   C35   A    
C34   C36   A    
C28   C34   A    
C4    C14   A    
C21   O5    A    
C24   O10   S    
C22   O6    A    
O18   H18   S    
C25   O11   S    
C8    C10   A    
C31   C36   A    
O24   H20   S    
C2    O4    A    
C18   H11   S    
