data_mof_unit_9794.cif
_audit_creation_date              2012-12-10T17:18:52-0500
_audit_creation_method            fapswitch 2.2
_symmetry_space_group_name_H-M    P1
_symmetry_Int_Tables_number       1
_space_group_crystal_system       triclinic
_cell_length_a                    9.568442
_cell_length_b                    10.864335
_cell_length_c                    13.42565
_cell_angle_alpha                 92.690997
_cell_angle_beta                  71.832043
_cell_angle_gamma                 90.783349
_cell_volume                      1324.61877139

loop_
_atom_site_label
_atom_site_type_symbol
_atom_type_description
_atom_site_fract_x
_atom_site_fract_y
_atom_site_fract_z
_atom_type_partial_charge
C1    C     C_R   0.504238 0.736678 0.491059 0.798510
C2    C     C_R   0.433736 0.504977 0.981642 0.083366
C3    C     C_R   0.464520 0.538082 0.876017 0.056997
C4    C     C_R   0.543184 0.523894 0.032314 0.089738
C5    C     C_R   0.675650 0.585803 0.980714 0.167490
C6    C     C_R   0.695959 0.631239 0.881939 -0.256317
C7    C     C_R   0.590421 0.610582 0.831716 -0.188767
C8    C     C_R   0.524329 0.483962 0.133469 -0.251798
C9    C     C_R   0.758103 0.571419 0.133417 -0.201876
C10   C     C_R   0.367067 0.500917 0.818430 -0.150375
C11   C     C_R   0.292022 0.871633 0.413803 -0.151811
C12   C     C_R   0.419414 0.502272 0.701309 0.793596
C13   C     C_R   0.160140 0.926996 0.417401 -0.160827
C14   C     C_R   0.124309 0.042256 0.467207 -0.146146
C15   C     C_R   0.226805 0.107429 0.503373 -0.173106
C16   C     C_R   0.368507 0.057927 0.490030 0.096787
C17   C     C_R   0.390406 0.931841 0.460106 0.097907
C18   C     C_R   0.508090 0.869968 0.479582 -0.118855
C19   C     C_R   0.620490 0.937727 0.502327 -0.214480
C20   C     C_R   0.613958 0.064871 0.510547 -0.213653
C21   C     C_R   0.489048 0.126947 0.505476 -0.124045
C22   C     C_R   0.914985 0.339483 0.357790 -0.164632
C23   C     C_R   0.496125 0.262010 0.503963 0.777096
C24   C     C_R   0.016161 0.259843 0.286824 0.149126
C25   C     C_R   0.159730 0.259470 0.289284 -0.296910
C26   C     C_R   0.202220 0.336555 0.359889 -0.194081
C27   C     C_R   0.103561 0.419769 0.430981 0.206741
C28   C     C_R   0.954306 0.420413 0.430479 0.150880
C29   C     C_R   0.899089 0.577285 0.564696 -0.048330
C30   C     C_R   0.046999 0.577016 0.564927 -0.074430
C31   C     C_R   0.579455 0.500675 0.299785 0.774497
C32   C     C_R   0.783703 0.605992 0.030505 -0.217996
C33   C     C_R   0.625559 0.514119 0.186200 -0.054522
C34   C     C_R   0.225230 0.453206 0.874441 0.152390
C35   C     C_R   0.190610 0.436282 0.981903 -0.184511
C36   C     C_R   0.293066 0.458160 0.033900 -0.236345
Cu1   Cu    Cu3+1 0.359340 0.500010 0.500010 0.915283
Cu2   Cu    Cu3+1 0.640660 0.499990 0.499990 0.924779
H1    H     H_    0.838354 0.594552 0.173066 0.158075
H2    H     H_    0.316438 0.782238 0.373482 0.162975
H3    H     H_    0.083758 0.878751 0.384553 0.136283
H4    H     H_    0.018030 0.082593 0.475940 0.141255
H5    H     H_    0.188938 0.193619 0.545134 0.172076
H6    H     H_    0.706202 0.114528 0.523489 0.166655
H7    H     H_    0.822274 0.641521 0.616848 0.123339
H8    H     H_    0.806957 0.335448 0.354032 0.222070
H9    H     H_    0.240185 0.197793 0.236298 0.159744
H10   H     H_    0.313869 0.325219 0.355508 0.213977
H11   H     H_    0.792987 0.684467 0.843787 0.132757
H12   H     H_    0.080311 0.640182 0.618008 0.131984
H13   H     H_    0.885381 0.652835 0.991295 0.136362
H14   H     H_    0.429801 0.431173 0.174684 0.144727
H15   H     H_    0.255809 0.441329 0.116425 0.153405
H16   H     H_    0.083638 0.401429 0.026220 0.150167
H17   H     H_    0.606412 0.656206 0.759354 0.154844
H18   H     H_    0.713572 0.892493 0.514685 0.160560
N1    N     N_R   0.852480 0.498790 0.499000 -0.191212
N2    N     N_R   0.148360 0.498710 0.498970 -0.193539
O1    O     O_R   0.381190 0.680360 0.500010 -0.584648
O2    O     O_R   0.618760 0.680340 0.500000 -0.585288
O3    O     O_R   0.323240 0.499990 0.650990 -0.572701
O4    O     O_R   0.560820 0.499960 0.650980 -0.570780
O5    O     O_R   0.381240 0.319660 0.500000 -0.612857
O6    O     O_R   0.618810 0.319640 0.499990 -0.593647
O7    O     O_R   0.439180 0.500040 0.349020 -0.597431
O8    O     O_R   0.676760 0.500010 0.349010 -0.601630
C37   C     C_3   0.977554 0.172204 0.207757 -0.391916
C38   C     C_3   0.819584 0.179504 0.204228 -0.869739
H19   H     H_    0.740200 0.154297 0.280387 0.253569
H20   H     H_    0.795420 0.273477 0.184723 0.249530
H21   H     H_    0.805746 0.113408 0.142371 0.249415
H22   H     H_    0.052699 0.190766 0.128190 0.203930
H23   H     H_    0.998332 0.076305 0.225015 0.207775
C39   C     C_3   0.106561 0.416547 0.825410 -0.378086
C40   C     C_3   0.135511 0.288781 0.770558 -0.780912
H24   H     H_    0.246159 0.282936 0.711465 0.254667
H25   H     H_    0.127967 0.218115 0.829187 0.236580
H26   H     H_    0.051493 0.268008 0.730825 0.229690
H27   H     H_    0.997286 0.412895 0.886764 0.192552
H28   H     H_    0.091439 0.487094 0.772744 0.214055

loop_
_geom_bond_atom_site_label_1
_geom_bond_atom_site_label_2
_ccdc_geom_bond_type
C19   H18   S    
C31   O8    A    
C16   C21   A    
C35   C36   A    
C7    H17   S    
C4    C8    A    
C13   H3    S    
C28   N1    A    
C1    C18   S    
Cu1   Cu2   S    
C37   H22   S    
C3    C7    A    
C1    O1    A    
C5    C6    A    
C15   C16   A    
C9    H1    S    
C34   C35   A    
C36   H15   S    
C9    C32   A    
Cu1   O5    S    
Cu2   O8    S    
C38   H19   S    
Cu1   O7    S    
C31   C33   S    
C37   H23   S    
C8    H14   S    
Cu1   N2    S    
C24   C37   S    
C26   H10   S    
C14   H4    S    
C5    C32   A    
C23   O5    A    
C30   H12   S    
C39   H28   S    
C13   C14   A    
C35   H16   S    
C9    C33   A    
C20   H6    S    
Cu2   O6    S    
C39   C40   S    
C37   C38   S    
C24   C25   A    
C1    O2    A    
C18   C19   A    
C25   C26   A    
C29   H7    S    
C2    C4    A    
C40   H24   S    
C32   H13   S    
C29   C30   A    
Cu2   N1    S    
C12   O4    A    
C17   C18   A    
C26   C27   A    
C10   C34   A    
C40   H25   S    
Cu1   O1    S    
C10   C12   S    
C34   C39   S    
Cu2   O2    S    
C23   O6    A    
C22   H8    S    
C29   N1    A    
C39   H27   S    
C21   C23   S    
C22   C24   A    
C2    C36   A    
C31   O7    A    
C25   H9    S    
C11   C17   A    
C4    C5    A    
C27   N2    A    
Cu1   O3    S    
C6    C7    A    
C19   C20   A    
C2    C3    A    
C15   H5    S    
C3    C10   A    
C12   O3    A    
C11   C13   A    
C16   C17   A    
C38   H21   S    
C30   N2    A    
C8    C33   A    
C6    H11   S    
C11   H2    S    
C40   H26   S    
C20   C21   A    
C38   H20   S    
C27   C28   A    
C14   C15   A    
C22   C28   A    
Cu2   O4    S    
