data_mof_unit_39766.cif
_audit_creation_date              2012-12-11T14:56:26-0500
_audit_creation_method            fapswitch 2.2
_symmetry_space_group_name_H-M    P1
_symmetry_Int_Tables_number       1
_space_group_crystal_system       triclinic
_cell_length_a                    10.745483
_cell_length_b                    10.746301
_cell_length_c                    17.102153
_cell_angle_alpha                 80.931711
_cell_angle_beta                  89.124244
_cell_angle_gamma                 119.651088
_cell_volume                      1684.77047276

loop_
_atom_site_label
_atom_site_type_symbol
_atom_type_description
_atom_site_fract_x
_atom_site_fract_y
_atom_site_fract_z
_atom_type_partial_charge
C1    C     C_R   0.222680 0.854363 0.128466 0.565944
C2    C     C_R   0.796348 0.428466 0.262514 -0.180948
C3    C     C_R   0.788475 0.413831 0.183435 0.237102
C4    C     C_R   0.651865 0.341907 0.156908 -0.000601
C5    C     C_1   0.668178 0.848714 0.205472 -0.041830
C6    C     C_1   0.681066 0.839329 0.274785 -0.041872
C7    C     C_1   0.180144 0.825847 0.211002 -0.040483
C8    C     C_1   0.150805 0.819705 0.279724 -0.043508
C9    C     C_1   0.646205 0.329030 0.778962 -0.080934
C10   C     C_1   0.653439 0.351089 0.708224 -0.079264
C11   C     C_R   0.635800 0.698877 0.813069 -0.224195
C12   C     C_R   0.636218 0.279440 0.086198 0.574772
C13   C     C_R   0.631267 0.673829 0.736476 -0.220562
C14   C     C_R   0.687133 0.791832 0.673234 0.059089
C15   C     C_R   0.756338 0.935533 0.686315 0.284327
C16   C     C_R   0.772820 0.958931 0.764034 0.313298
C17   C     C_R   0.694723 0.841554 0.826344 0.032145
C18   C     C_R   0.065830 0.852000 0.798911 0.215621
C19   C     C_R   0.078805 0.880178 0.715753 0.221721
C20   C     C_R   0.127743 0.807191 0.671739 -0.039167
C21   C     C_R   0.178989 0.718271 0.711882 0.186509
C22   C     C_R   0.184376 0.710815 0.795305 0.206958
C23   C     C_R   0.639013 0.858837 0.125566 0.540241
C24   C     C_R   0.148533 0.797945 0.833208 -0.043074
C25   C     C_R   0.687516 0.809536 0.357203 0.563019
C26   C     C_R   0.689903 0.396640 0.394985 0.599299
C27   C     C_R   0.103398 0.810281 0.359268 0.560521
C28   C     C_R   0.699242 0.763557 0.595547 0.596366
C29   C     C_R   0.680449 0.385923 0.624804 0.558326
C30   C     C_R   0.093755 0.800855 0.588816 0.583426
C31   C     C_R   0.224550 0.860332 0.899680 0.561163
C32   C     C_R   0.638201 0.285764 0.861684 0.539347
C33   C     C_R   0.646849 0.865540 0.899674 0.530007
C34   C     C_R   0.526583 0.297128 0.207329 -0.181438
C35   C     C_R   0.535227 0.313124 0.286733 0.236241
C36   C     C_R   0.670712 0.369769 0.314974 0.010769
Cr1   Cr    Cr6+3 0.402240 0.783890 0.019450 0.991183
Cr2   Cr    Cr6+3 0.382360 0.097900 0.991800 0.991766
Cr3   Cr    Cr6+3 0.715380 0.118170 0.988700 0.995710
Cr4   Cr    Cr6+3 0.936650 0.882420 0.465510 1.039489
Cr5   Cr    Cr6+3 0.605770 0.565620 0.493360 0.986649
Cr6   Cr    Cr6+3 0.921340 0.550490 0.496380 0.983799
H1    H     H_    0.421180 0.239119 0.187134 0.144263
H2    H     H_    0.901568 0.487408 0.282833 0.137552
H3    H     H_    0.588974 0.607579 0.862295 0.132580
H4    H     H_    0.582908 0.563096 0.726494 0.131617
O1    O     O_R   0.521780 0.757110 0.108900 -0.523524
O2    O     O_R   0.513330 0.228330 0.898660 -0.501992
O3    O     O_R   0.739230 0.266130 0.888050 -0.538604
O4    O     O_R   0.712580 0.991850 0.918770 -0.489060
O5    O     O_3   0.499990 0.999980 0.999980 -0.256485
O6    O     O_R   0.083770 0.911170 0.376030 -0.497916
O7    O     O_R   0.808770 0.880340 0.383890 -0.498528
O8    O     O_R   0.584340 0.689460 0.394160 -0.522284
O9    O     O_R   0.614320 0.443940 0.423590 -0.466176
O10   O     O_R   0.805020 0.410040 0.421340 -0.524832
O11   O     O_R   0.049240 0.685450 0.403290 -0.519426
O12   O     O_R   0.275160 0.783810 0.101120 -0.501132
O13   O     O_R   0.077520 0.903010 0.551800 -0.481802
O14   O     O_R   0.802980 0.872780 0.546830 -0.442224
O15   O     O_R   0.578090 0.681300 0.569920 -0.524948
O16   O     O_R   0.608530 0.436370 0.586530 -0.531192
O17   O     O_R   0.798770 0.401880 0.597100 -0.515798
O18   O     O_R   0.043450 0.677890 0.566230 -0.524562
O19   O     O_3   0.821250 0.666180 0.485090 -0.294968
O20   O     O_R   0.237900 0.972600 0.090980 -0.538007
O21   O     O_R   0.511190 0.220540 0.061620 -0.525498
O22   O     O_R   0.736920 0.257720 0.063840 -0.471494
O23   O     O_R   0.710450 0.984050 0.081720 -0.514370
O24   O     O_R   0.524090 0.765520 0.933110 -0.560438
O25   O     O_R   0.277300 0.791600 0.938160 -0.479795
O26   O     O_R   0.240210 0.981010 0.915190 -0.496980
O27   O     O_3   0.059242 0.991187 0.677127 -0.515245
C37   C     C_3   0.182865 0.127963 0.680357 0.025230
H5    H     H_    0.274663 0.121380 0.706629 0.115707
H6    H     H_    0.151995 0.186151 0.717443 0.182094
C38   C     C_3   0.239010 0.220569 0.597111 -0.378941
H7    H     H_    0.152395 0.231211 0.567981 0.119824
H8    H     H_    0.327548 0.330977 0.601156 0.111341
H9    H     H_    0.281671 0.170959 0.560205 0.189577
O28   O     O_3   0.265517 0.683718 0.668719 -0.560410
C39   C     C_3   0.185887 0.549576 0.642072 0.020305
H10   H     H_    0.067340 0.500367 0.653076 0.147903
H11   H     H_    0.212104 0.468808 0.673290 0.092109
C40   C     C_3   0.230905 0.568211 0.553665 -0.298433
H12   H     H_    0.322555 0.549722 0.546265 0.141160
H13   H     H_    0.140025 0.486902 0.526337 0.089136
H14   H     H_    0.264435 0.679548 0.520858 0.197110
O29   O     O_3   0.175457 0.590858 0.844845 -0.577841
C41   C     C_3   0.298472 0.579247 0.834156 0.037330
H15   H     H_    0.395667 0.686962 0.828097 0.189319
H16   H     H_    0.302212 0.538478 0.779844 0.151003
C42   C     C_3   0.293456 0.468083 0.904169 -0.361530
H17   H     H_    0.183495 0.371983 0.918449 0.127411
H18   H     H_    0.365586 0.427008 0.889370 0.098676
H19   H     H_    0.323188 0.515815 0.958445 0.167741
O30   O     O_3   0.412805 0.261210 0.339329 -0.535056
C43   C     C_3   0.328366 0.322372 0.310304 0.011189
H20   H     H_    0.258089 0.259362 0.267353 0.127524
H21   H     H_    0.395803 0.439481 0.281060 0.137088
C44   C     C_3   0.232325 0.314031 0.379585 -0.347023
H22   H     H_    0.299640 0.379013 0.422715 0.151868
H23   H     H_    0.163027 0.358627 0.357285 0.080067
H24   H     H_    0.162527 0.198917 0.410290 0.174732
O31   O     O_3   0.911921 0.470918 0.130595 -0.543952
C45   C     C_3   0.005155 0.421245 0.160376 0.011159
H25   H     H_    0.945710 0.308025 0.196157 0.128233
H26   H     H_    0.079427 0.496365 0.197660 0.129545
C46   C     C_3   0.094802 0.420823 0.090837 -0.329145
H27   H     H_    0.151564 0.530061 0.051688 0.199438
H28   H     H_    0.175626 0.392308 0.113422 0.058785
H29   H     H_    0.024358 0.339363 0.055368 0.156365
O32   O     O_3   0.806593 0.051006 0.623223 -0.683308
H30   H     H_    0.912710 0.104280 0.621471 0.348799
O33   O     O_3   0.892346 0.079180 0.780349 -0.531389
C47   C     C_3   0.881409 0.203603 0.758443 -0.013981
H31   H     H_    0.769978 0.180173 0.770983 0.166019
H32   H     H_    0.918091 0.252252 0.694745 0.138858
C48   C     C_3   0.982064 0.312440 0.805091 -0.304816
H33   H     H_    0.091728 0.335125 0.788667 0.121363
H34   H     H_    0.973074 0.411689 0.791471 0.162280
H35   H     H_    0.957410 0.266500 0.869832 0.202338
O34   O     O_3   0.000885 0.907281 0.843083 -0.493833
C49   C     C_3   0.929201 0.813803 0.918555 0.031060
H36   H     H_    0.966950 0.738681 0.944204 0.121486
H37   H     H_    0.816217 0.736577 0.913520 0.118016
C50   C     C_3   0.936915 0.904731 0.980311 -0.316282
H38   H     H_    0.940567 0.006735 0.951982 0.192291
H39   H     H_    0.842620 0.840186 0.026108 0.101297
H40   H     H_    0.035106 0.935553 0.010672 0.167500

loop_
_geom_bond_atom_site_label_1
_geom_bond_atom_site_label_2
_ccdc_geom_bond_type
Cr3   O5    S    
C29   O17   A    
C42   H17   S    
Cr4   O14   S    
C30   O18   A    
O27   C37   S    
C23   O23   A    
C19   C20   A    
Cr5   O15   S    
C26   O9    A    
O28   C39   S    
C7    C8    T    
C20   C30   S    
C40   H12   S    
C3    O31   S    
C12   O22   A    
C44   H22   S    
C37   H6    S    
C18   C24   A    
C25   O7    A    
C18   C19   A    
C46   H28   S    
C5    C6    T    
Cr1   O5    S    
C38   H9    S    
C6    C25   S    
C45   H25   S    
C15   C16   A    
C47   H31   S    
C34   C35   A    
Cr3   O22   S    
Cr5   O9    S    
C9    C32   S    
Cr6   O10   S    
Cr2   O20   S    
C2    H2    S    
C16   C17   A    
C37   C38   S    
Cr6   O19   S    
C15   O32   S    
Cr1   O1    S    
C9    C10   T    
Cr2   O2    S    
Cr1   O12   S    
C38   H7    S    
C18   O34   S    
C28   O15   A    
C38   H8    S    
C42   H18   S    
Cr4   O13   S    
C21   C22   A    
C32   O2    A    
C17   C33   S    
Cr5   O16   S    
Cr6   O11   S    
O30   C43   S    
C4    C34   A    
C48   H34   S    
Cr5   O8    S    
C12   O21   A    
Cr2   O26   S    
C23   O1    A    
C37   H5    S    
C40   H13   S    
O34   C49   S    
C25   O8    A    
C27   O11   A    
C46   H29   S    
Cr5   O19   S    
Cr2   O5    S    
C33   O4    A    
Cr4   O6    S    
C35   C36   A    
C50   H39   S    
C41   H16   S    
C5    C23   S    
C19   O27   S    
C30   O13   A    
C1    O20   A    
Cr3   O23   S    
C20   C21   A    
C28   O14   A    
C33   O24   A    
C49   C50   S    
C26   C36   S    
C31   O26   A    
Cr3   O3    S    
C21   O28   S    
C43   H20   S    
C42   H19   S    
C43   H21   S    
Cr4   O19   S    
Cr1   O25   S    
C22   C24   A    
C11   H3    S    
C4    C12   S    
C3    C4    A    
C43   C44   S    
C16   O33   S    
Cr6   O18   S    
C27   O6    A    
C41   C42   S    
C49   H37   S    
O32   H30   S    
C40   H14   S    
C2    C36   A    
C29   O16   A    
C11   C17   A    
C1    C7    S    
C34   H1    S    
O33   C47   S    
C26   O10   A    
C48   H33   S    
Cr4   O7    S    
C44   H24   S    
C39   C40   S    
O31   C45   S    
C39   H11   S    
C47   C48   S    
Cr1   O24   S    
C2    C3    A    
C50   H40   S    
C35   O30   S    
C46   H27   S    
C11   C13   A    
C10   C29   S    
C41   H15   S    
C13   H4    S    
C45   H26   S    
C31   O25   A    
C48   H35   S    
C22   O29   S    
C47   H32   S    
C32   O3    A    
C24   C31   S    
C1    O12   A    
Cr3   O4    S    
Cr2   O21   S    
C44   H23   S    
C39   H10   S    
C8    C27   S    
C14   C15   A    
C14   C28   S    
O29   C41   S    
C13   C14   A    
Cr6   O17   S    
C50   H38   S    
C49   H36   S    
C45   C46   S    
