data_mof_unit_68285.cif
_audit_creation_date              2013-03-05T15:58:58-0500
_audit_creation_method            fapswitch 2.2
_symmetry_space_group_name_H-M    P1
_symmetry_Int_Tables_number       1
_space_group_crystal_system       triclinic
_cell_length_a                    8.175979
_cell_length_b                    12.912549
_cell_length_c                    15.103221
_cell_angle_alpha                 96.98632
_cell_angle_beta                  98.07696
_cell_angle_gamma                 99.162019
_cell_volume                      1541.52383742

loop_
_atom_site_label
_atom_site_type_symbol
_atom_site_description
_atom_site_fract_x
_atom_site_fract_y
_atom_site_fract_z
_atom_type_partial_charge
P1    P     P_3+3 0.998730 0.403530 0.291970 0.524328
O1    O     O_2   0.827880 0.435260 0.277750 -0.306680
O2    O     O_3   0.100280 0.438960 0.391170 -0.433832
O3    O     O_3   0.625580 0.634130 0.333250 -0.382911
O4    O     O_2   0.748774 0.575779 0.189987 -0.301041
O5    O     O_3   0.948008 0.264911 0.276029 -0.535765
O6    O     O_3   0.628464 0.749624 0.189775 -0.523661
H1    H     H_    0.651584 0.846833 0.311140 0.134187
C1    C     C_3   0.524340 0.911380 0.201297 -1.025687
H2    H     H_    0.485728 0.971634 0.249027 0.247763
H3    H     H_    0.637922 0.948669 0.176920 0.284993
P2    P     P_3+3 0.687380 0.751030 0.571310 0.434077
P3    P     P_3+3 0.100487 0.827466 0.378334 0.494263
O7    O     O_2   0.857130 0.766340 0.543890 -0.376993
O8    O     O_3   0.056550 0.691050 0.379010 -0.307898
O9    O     O_2   0.015769 0.875583 0.454350 -0.388150
O10   O     O_3   0.733985 0.787752 0.688811 -0.586042
O11   O     O_3   0.977522 0.854344 0.281323 -0.540787
C2    C     C_3   0.061255 0.851790 0.205958 0.941497
H4    H     H_    0.190839 0.897455 0.225274 -0.136737
C3    C     C_3   0.966206 0.905505 0.135008 -1.003999
H5    H     H_    0.841614 0.856562 0.106214 0.289780
H6    H     H_    0.943814 0.983094 0.165849 0.249941
C4    C     C_3   0.270875 0.767937 0.641655 0.431686
H7    H     H_    0.359653 0.725340 0.609943 0.062196
H8    H     H_    0.151184 0.756771 0.594222 0.127842
C5    C     C_3   0.343735 0.885186 0.663737 -0.508413
H9    H     H_    0.477342 0.895576 0.695518 0.223707
H10   H     H_    0.335656 0.922728 0.601544 0.204467
Ba1   Ba    Ba6+2 0.843750 0.550210 0.455600 1.596975
C6    C     C_3   0.937079 0.226445 0.357859 0.411048
H11   H     H_    0.823913 0.246555 0.382031 0.087038
H12   H     H_    0.048208 0.259191 0.409980 0.139094
C7    C     C_3   0.925531 0.106847 0.341092 -0.932067
H13   H     H_    0.810224 0.070395 0.292789 0.267920
H14   H     H_    0.922133 0.072763 0.404533 0.243926
H15   H     H_    0.037405 0.087447 0.313286 0.252350
C8    C     C_3   0.783792 0.703945 0.729883 0.424678
H16   H     H_    0.885750 0.674903 0.698725 0.100026
H17   H     H_    0.675576 0.638176 0.723851 0.124512
C9    C     C_3   0.848633 0.744349 0.829678 -1.014856
H18   H     H_    0.965941 0.803643 0.837168 0.266242
H19   H     H_    0.874811 0.678021 0.866388 0.240650
H20   H     H_    0.753676 0.782401 0.860743 0.268787
P4    P     P_3+3 0.190990 0.596560 0.708040 0.455572
O12   O     O_2   0.361830 0.564780 0.722310 -0.350570
O13   O     O_3   0.089430 0.561130 0.608830 -0.418956
O14   O     O_3   0.564130 0.365960 0.666760 -0.342677
O15   O     O_3   0.243588 0.732760 0.722847 -0.583208
P5    P     P_3+3 0.095292 0.173251 0.625272 0.464195
O16   O     O_3   0.601940 0.368240 0.453770 -0.392977
O17   O     O_3   0.133170 0.309040 0.621000 -0.353301
O18   O     O_2   0.217519 0.125935 0.569432 -0.370122
O19   O     O_3   0.173990 0.161584 0.736805 -0.501455
Ba2   Ba    Ba6+2 0.346090 0.449880 0.544410 1.557295
P6    P     P_3+3 0.595836 0.620761 0.217121 0.522942
C10   C     C_3   0.559825 0.817485 0.248066 0.465173
H21   H     H_    0.440418 0.778110 0.265360 0.080912
H22   H     H_    0.422779 0.884233 0.142121 0.262843
O20   O     O_3   0.587780 0.631850 0.546230 -0.404415
C11   C     C_3   0.396819 0.269159 0.267136 0.407250
H23   H     H_    0.284635 0.286986 0.295455 0.072865
H24   H     H_    0.491477 0.343129 0.275671 0.099116
C12   C     C_3   0.346036 0.227643 0.165912 -0.340622
H25   H     H_    0.315051 0.292757 0.128493 0.178039
H26   H     H_    0.451433 0.195810 0.140149 0.284752
P7    P     P_3+3 0.508865 0.232713 0.426929 0.422301
O21   O     O_2   0.332590 0.233690 0.456160 -0.381233
O22   O     O_3   0.467341 0.192460 0.309887 -0.587291
H27   H     H_    0.038877 0.916840 0.079005 0.236663
C13   C     C_3   0.061910 0.182501 0.796418 0.766029
H28   H     H_    0.957828 0.218651 0.765590 0.008103
C14   C     C_3   0.992684 0.079034 0.829022 -1.071751
H29   H     H_    0.096718 0.044085 0.861934 0.265734
H30   H     H_    0.909942 0.093534 0.879568 0.254366
H31   H     H_    0.920667 0.020758 0.771336 0.251560
P8    P     P_3+3 0.603503 0.380668 0.784567 0.458009
C15   C     C_3   0.618537 0.189403 0.819634 0.734211
H32   H     H_    0.749954 0.227191 0.847381 0.017524
O23   O     O_2   0.494055 0.458295 0.818396 -0.384130
O24   O     O_3   0.510792 0.263753 0.819393 -0.489138
H33   H     H_    0.621579 0.144857 0.953717 0.269813
C16   C     C_3   0.566908 0.110211 0.882993 -0.972102
H34   H     H_    0.612124 0.034415 0.867410 0.243070
H35   H     H_    0.429110 0.093523 0.880184 0.260076
C17   C     C_R   0.825974 0.439447 0.829860 0.149079
C18   C     C_R   0.898719 0.444422 0.920835 -0.026612
C19   C     C_R   0.044788 0.443426 0.104847 -0.131218
C20   C     C_R   0.879538 0.389776 0.067796 0.405052
C21   C     C_R   0.809452 0.394756 0.979939 -0.363934
C22   C     C_R   0.116214 0.451737 0.198889 0.266477
H36   H     H_    0.680285 0.357051 0.959015 0.201551
C23   C     C_R   0.286742 0.497750 0.224620 -0.445184
C24   C     C_R   0.082859 0.541686 0.798705 0.266529
C25   C     C_R   0.154548 0.552643 0.892905 -0.095804
C26   C     C_R   0.065807 0.496057 0.952244 0.021558
C27   C     C_R   0.313022 0.613736 0.930475 0.292892
C28   C     C_R   0.402325 0.588698 0.008643 0.141839
C29   C     C_R   0.314390 0.539240 0.072230 -0.049063
C30   C     C_R   0.141630 0.493626 0.043773 0.052330
C31   C     C_R   0.386943 0.540248 0.164043 0.252201
C32   C     C_R   0.921683 0.482904 0.769643 -0.496366
H37   H     H_    0.341468 0.504297 0.295028 0.153406
H38   H     H_    0.866563 0.474925 0.699154 0.171327
C33   C     C_R   0.775297 0.178751 0.536527 -0.492731
C34   C     C_R   0.426262 0.808599 0.454369 -0.495564
C35   C     C_R   0.391897 0.984823 0.426166 -0.255932
C36   C     C_R   0.327978 0.876807 0.416227 0.167686
C37   C     C_R   0.583725 0.847426 0.508438 0.255893
C38   C     C_R   0.650499 0.958823 0.518414 -0.037345
C39   C     C_R   0.552682 0.027651 0.475990 -0.020875
C40   C     C_R   0.616481 0.138364 0.486621 0.284443
C41   C     C_R   0.875211 0.112945 0.575383 0.174154
C42   C     C_R   0.811850 0.003970 0.568303 -0.213751
H39   H     H_    0.311084 0.034889 0.397527 0.180032
H40   H     H_    0.890832 0.955683 0.600383 0.177462
H41   H     H_    0.824171 0.262747 0.542778 0.160646
H42   H     H_    0.373579 0.725207 0.448120 0.175514
C43   C     C_3   0.248036 0.939659 0.728946 -0.706443
H43   H     H_    0.114191 0.930802 0.698695 0.251684
H44   H     H_    0.258576 0.909446 0.794918 0.249961
H45   H     H_    0.306000 0.022522 0.743462 0.291370
C44   C     C_3   0.196867 0.137805 0.146315 -0.940311
H46   H     H_    0.225791 0.073690 0.185163 0.281419
H47   H     H_    0.083760 0.166007 0.164787 0.313309
H48   H     H_    0.171799 0.106502 0.072953 0.268074
C45   C     C_3   0.157981 0.261283 0.877735 -0.833252
H49   H     H_    0.073858 0.276501 0.927493 0.189801
H50   H     H_    0.264388 0.229804 0.912279 0.267056
H51   H     H_    0.207796 0.336896 0.855128 0.256325
C46   C     C_3   0.611355 0.135607 0.723274 -0.891095
H52   H     H_    0.661319 0.060835 0.721515 0.208369
H53   H     H_    0.483535 0.121314 0.683905 0.298620
H54   H     H_    0.688777 0.191170 0.689776 0.204807
N1    N     N_R   0.065538 0.742354 0.167849 0.236059
O25   O     O_R   0.150677 0.685650 0.214856 -0.465580
O26   O     O_R   0.000258 0.703972 0.084323 -0.437056
N2    N     N_R   0.775523 0.325424 0.114811 0.244881
O27   O     O_R   0.785970 0.225517 0.110053 -0.436932
O28   O     O_R   0.633178 0.353445 0.125588 -0.476099
C47   C     C_3   0.589089 0.599309 0.009974 -0.727033
H55   H     H_    0.621538 0.597583 0.941141 0.231849
H56   H     H_    0.658567 0.676128 0.046419 0.282286
H57   H     H_    0.632665 0.530850 0.035886 0.260814
C48   C     C_3   0.373944 0.720599 0.904676 -0.863802
H58   H     H_    0.450183 0.775166 0.963952 0.226441
H59   H     H_    0.455325 0.713766 0.852399 0.274766
H60   H     H_    0.265524 0.758959 0.884092 0.251103

loop_
_geom_bond_atom_site_label_1
_geom_bond_atom_site_label_2
_geom_bond_distance
_ccdc_geom_bond_type
O14   Ba2   2.818418 S    
Ba1   O16   2.814248 S    
C5    H10   1.106897 S    
C7    H15   1.109532 S    
C14   H30   1.107334 S    
C14   H29   1.110054 S    
O4    P6    1.544742 D    
C2    H4    1.107994 S    
C4    C5    1.514061 S    
C46   H54   1.097762 S    
C33   H41   1.082325 S    
C23   H37   1.081908 S    
Ba2   O21   2.921803 S    
C44   H46   1.107741 S    
P4    O12   1.511724 D    
P5    O19   1.749938 S    
P3    O11   1.760352 S    
C33   C41   1.393330 A    
C2    C3    1.533528 S    
C4    H8    1.106604 S    
P6    C31   1.867484 S    
C7    H13   1.106538 S    
P1    O2    1.583070 S    
C47   H56   1.099759 S    
C48   H58   1.111912 S    
C8    H16   1.106270 S    
C44   H47   1.104835 S    
C2    N1    1.467271 S    
C28   C29   1.429706 A    
P1    O1    1.511485 D    
C9    H18   1.110620 S    
C11   H24   1.111076 S    
C38   C39   1.435587 A    
C3    H5    1.108980 S    
O2    Ba2   2.817580 S    
C15   C16   1.534151 S    
O19   C13   1.405273 S    
C29   C30   1.424645 A    
Ba1   O20   2.919126 S    
O12   Ba2   2.882587 S    
P5    O17   1.742020 S    
C35   C36   1.391371 A    
C6    H12   1.104402 S    
P8    O24   1.752457 S    
C1    H2    1.109223 S    
C38   C42   1.420142 A    
C7    H14   1.103962 S    
O17   Ba2   2.783042 S    
P2    Ba1   3.463227 S    
P4    O13   1.583225 S    
O5    C6    1.395834 S    
P1    C22   1.920514 S    
Ba2   O20   2.813720 S    
O3    P6    1.719976 S    
C9    H19   1.107835 S    
C13   C45   1.526673 S    
C11   H23   1.109391 S    
C27   C48   1.506787 S    
O6    P6    1.751352 S    
O7    Ba1   2.921488 S    
P3    C36   1.851409 S    
P4    C24   1.880287 S    
P2    C37   1.888527 S    
C48   H59   1.106014 S    
C27   C28   1.399009 A    
C43   H44   1.110662 S    
P5    O18   1.545671 D    
P7    O21   1.566980 D    
Ba1   O13   2.816845 S    
N1    O25   1.294053 A    
C4    H7    1.104327 S    
C8    C9    1.523504 S    
C47   H57   1.098534 S    
C23   C31   1.413832 A    
C13   C14   1.531455 S    
C15   H32   1.106770 S    
O11   C2    1.407986 S    
C44   H48   1.110813 S    
O16   Ba2   2.918381 S    
P1    O5    1.750574 S    
C1    H22   1.110735 S    
C12   H26   1.109527 S    
O14   P8    1.744376 S    
P2    O10   1.751327 S    
O2    Ba1   2.932998 S    
C15   C46   1.523514 S    
C45   H50   1.109468 S    
H1    C10   1.111177 S    
C22   C23   1.405597 A    
C21   H36   1.075745 S    
C16   H34   1.110660 S    
C19   C22   1.442153 A    
P4    O15   1.721743 S    
C18   C26   1.409505 A    
C6    C7    1.519766 S    
O16   P7    1.767079 S    
C32   H38   1.082040 S    
C1    H3    1.107508 S    
C35   H39   1.079504 S    
C19   C30   1.444017 A    
N2    O28   1.298024 A    
C16   H35   1.106605 S    
C33   C40   1.392778 A    
P2    O7    1.493596 D    
P8    C17   1.853889 S    
C20   N2    1.416366 S    
P3    O8    1.742371 S    
C28   C47   1.508279 S    
C9    H20   1.109984 S    
P3    O9    1.539763 D    
C46   H52   1.105514 S    
C17   C32   1.392361 A    
C5    H9    1.109945 S    
C48   H60   1.107982 S    
O8    Ba1   2.782474 S    
O13   Ba2   2.933835 S    
C41   C42   1.405545 A    
C43   H45   1.081548 S    
C11   O22   1.401061 S    
C4    O15   1.392813 S    
N1    O26   1.302458 A    
C39   C40   1.422936 A    
C29   C31   1.427207 A    
C17   C18   1.408017 A    
C35   C39   1.410477 A    
C6    H11   1.097792 S    
C46   H53   1.103186 S    
C42   H40   1.074390 S    
C43   H43   1.107378 S    
C25   C27   1.407861 A    
C5    C43   1.516635 S    
C12   C44   1.511698 S    
Ba1   Ba2   4.506751 S    
C3    H27   1.110630 S    
O1    Ba1   2.882009 S    
P5    C41   1.855251 S    
C12   H25   1.110713 S    
C3    H6    1.105932 S    
C45   H51   1.108734 S    
C13   H28   1.107643 S    
C47   H55   1.106980 S    
C11   C12   1.532440 S    
C8    H17   1.109771 S    
P8    O23   1.534948 D    
C15   O24   1.402496 S    
C10   H21   1.107123 S    
C34   C36   1.404273 A    
C26   C30   1.439527 A    
P1    Ba1   3.435977 S    
C14   H31   1.107823 S    
C1    C10   1.521788 S    
O10   C8    1.397979 S    
C24   C25   1.441528 A    
O3    Ba1   2.819057 S    
N2    O27   1.300378 A    
P2    O20   1.596030 S    
P7    C40   1.859250 S    
C19   C20   1.419030 A    
P4    Ba2   3.436525 S    
H33   C16   1.107614 S    
C18   C21   1.383500 A    
C25   C26   1.427117 A    
P7    O22   1.749824 S    
C20   C21   1.382768 A    
C37   C38   1.436620 A    
O6    C10   1.402003 S    
C34   H42   1.081715 S    
C45   H49   1.108500 S    
C24   C32   1.393979 A    
C34   C37   1.405380 A    
