data_mof_unit_18921.cif
_audit_creation_date              2012-12-10T16:58:31-0500
_audit_creation_method            fapswitch 2.2
_symmetry_space_group_name_H-M    P1
_symmetry_Int_Tables_number       1
_space_group_crystal_system       triclinic
_cell_length_a                    7.735244
_cell_length_b                    8.565718
_cell_length_c                    23.153913
_cell_angle_alpha                 90.871301
_cell_angle_beta                  85.257784
_cell_angle_gamma                 94.150605
_cell_volume                      1524.80284948

loop_
_atom_site_label
_atom_site_type_symbol
_atom_type_description
_atom_site_fract_x
_atom_site_fract_y
_atom_site_fract_z
_atom_type_partial_charge
C1    C     C_R   0.546301 0.795028 0.498279 0.968645
C2    C     C_R   0.361418 0.466980 0.292087 -0.055011
C3    C     C_R   0.538634 0.576999 0.769376 0.438889
C4    C     C_R   0.387319 0.468389 0.230770 0.441209
C5    C     C_R   0.551954 0.421919 0.788165 0.122719
C6    C     C_R   0.557878 0.482546 0.203551 0.115552
C7    C     C_2   0.570524 0.958710 0.496777 -0.355890
C8    C     C_2   0.429405 0.041199 0.501055 -0.313027
C9    C     C_R   0.501292 0.498950 0.610580 0.957112
C10   C     C_R   0.499713 0.503276 0.388625 0.924449
C11   C     C_R   0.521957 0.312685 0.119869 0.612591
C12   C     C_R   0.453666 0.204963 0.500791 1.004063
C13   C     C_R   0.729999 0.476315 0.868246 0.607740
C14   C     C_R   0.693477 0.555235 0.107974 0.567810
C15   C     C_R   0.487455 0.287427 0.880328 0.562802
C16   C     C_R   0.723941 0.525372 0.048639 -0.027078
C17   C     C_R   0.511494 0.275397 0.939278 -0.027201
C18   C     C_R   0.628899 0.398706 0.024160 -0.022147
C19   C     C_R   0.629625 0.384582 0.963729 -0.021538
C20   C     C_R   0.526045 0.291239 0.059882 -0.027649
C21   C     C_R   0.741476 0.485416 0.928008 -0.020277
C22   C     C_R   0.838869 0.623462 0.012850 -0.132560
C23   C     C_R   0.528498 0.296650 0.749510 -0.192476
C24   C     C_R   0.412088 0.165586 0.975008 -0.129285
C25   C     C_R   0.851945 0.600093 0.952964 -0.117554
C26   C     C_R   0.423681 0.170371 0.034838 -0.123052
C27   C     C_3   0.568355 0.770748 0.686522 -0.324739
C28   C     C_3   0.766308 0.804839 0.676597 -0.360188
C29   C     C_3   0.815199 0.967556 0.651956 -0.743466
C30   C     C_3   0.185495 0.404895 0.320560 -0.293620
C31   C     C_3   0.191741 0.235525 0.341001 -0.399743
C32   C     C_3   0.009562 0.154178 0.351576 -0.765744
C33   C     C_R   0.696405 0.528093 0.236172 -0.184079
C34   C     C_R   0.493480 0.323441 0.692976 0.327628
C35   C     C_R   0.668824 0.557864 0.294759 0.340428
C36   C     C_R   0.502610 0.477226 0.672392 -0.177313
C37   C     C_R   0.506270 0.511881 0.324721 -0.220051
C38   C     C_R   0.528807 0.606107 0.710101 -0.089937
Cl1   Cl    Cl    0.442904 0.161060 0.648292 -0.677564
Cl2   Cl    Cl    0.843262 0.659274 0.327494 -0.616062
Cl3   Cl    Cl    0.529604 0.733771 0.820172 -0.584586
Cl4   Cl    Cl    0.208887 0.457202 0.187015 -0.593126
H1    H     H_    0.916927 0.719375 0.030884 0.197184
H2    H     H_    0.986236 0.619331 0.542664 0.189776
H3    H     H_    0.755869 0.980861 0.610402 0.270628
H4    H     H_    0.771321 0.058393 0.683432 0.286480
H5    H     H_    0.958743 0.984701 0.643665 0.261257
H6    H     H_    0.826628 0.795564 0.718255 0.279137
H7    H     H_    0.821303 0.716916 0.645813 0.220902
H8    H     H_    0.508133 0.784575 0.645153 0.201073
H9    H     H_    0.511591 0.858959 0.716640 0.276508
H10   H     H_    0.926078 0.223263 0.381966 0.245695
H11   H     H_    0.947689 0.139192 0.310034 0.288953
H12   H     H_    0.323258 0.077854 0.957023 0.200448
H13   H     H_    0.018452 0.036737 0.370324 0.272434
H14   H     H_    0.266173 0.167028 0.307538 0.267699
H15   H     H_    0.258570 0.234131 0.381588 0.215312
H16   H     H_    0.139731 0.482115 0.356487 0.243214
H17   H     H_    0.082395 0.406575 0.290246 0.268488
H18   H     H_    0.939263 0.678993 0.926237 0.205255
H19   H     H_    0.343731 0.085921 0.061529 0.203599
H20   H     H_    0.536778 0.177495 0.763438 0.221217
H21   H     H_    0.827151 0.544909 0.215621 0.249031
H22   H     H_    0.703415 0.010767 0.492500 0.176722
H23   H     H_    0.296516 0.989164 0.505290 0.178573
H24   H     H_    0.014313 0.380278 0.457810 0.190081
N1    N     N_R   0.591759 0.449931 0.142604 -0.329166
N2    N     N_R   0.592252 0.391889 0.846349 -0.333424
N3    N     N_2   0.950330 0.457950 0.484560 -0.160183
N4    N     N_2   0.049670 0.542050 0.515440 -0.161726
O1    O     O_R   0.389250 0.738570 0.503790 -0.616442
O2    O     O_2   0.850036 0.556856 0.832434 -0.521955
O3    O     O_2   0.760313 0.690735 0.130310 -0.519458
O4    O     O_2   0.356038 0.200590 0.857983 -0.522690
O5    O     O_R   0.610750 0.261430 0.496210 -0.615931
O6    O     O_R   0.678390 0.711620 0.493890 -0.615803
O7    O     O_R   0.321610 0.288380 0.506110 -0.624082
O8    O     O_R   0.355400 0.513520 0.588790 -0.593514
O9    O     O_R   0.644600 0.486480 0.411210 -0.571098
O10   O     O_R   0.644550 0.486570 0.578900 -0.621180
O11   O     O_R   0.355450 0.513430 0.421100 -0.639732
O12   O     O_2   0.445175 0.199411 0.155165 -0.512373
Zn1   Zn    Zn3+2 0.306930 0.518000 0.506610 0.971840
Zn2   Zn    Zn3+2 0.693070 0.482000 0.493390 0.980578

loop_
_geom_bond_atom_site_label_1
_geom_bond_atom_site_label_2
_ccdc_geom_bond_type
O10   Zn2   S    
O6    Zn2   S    
C7    C8    D    
C1    O1    A    
C4    Cl4   S    
C29   H5    S    
C10   C37   S    
C28   C29   S    
C35   C37   A    
C26   H19   S    
C24   C26   A    
O9    Zn2   S    
O5    Zn2   S    
H24   N3    S    
O7    Zn1   S    
C27   C38   S    
C24   H12   S    
C18   C19   A    
C32   H10   S    
C17   C19   A    
O8    Zn1   S    
C23   H20   S    
C3    Cl3   S    
C22   H1    S    
C3    C38   A    
C11   N1    A    
C22   C25   A    
C9    C36   S    
C14   N1    A    
H2    N4    S    
C25   H18   S    
C31   H14   S    
C32   H13   S    
C34   C36   A    
C27   H8    S    
C8    C12   S    
C8    H23   S    
C30   H17   S    
C5    N2    S    
O11   Zn1   S    
C27   H9    S    
O1    Zn1   S    
C11   O12   S    
C11   C20   A    
C17   C24   A    
C34   Cl1   S    
C14   O3    S    
C4    C6    A    
C29   H3    S    
C9    O10   A    
C2    C4    A    
C28   H7    S    
C31   C32   S    
C5    C23   A    
C33   H21   S    
C23   C34   A    
C12   O7    A    
C13   C21   A    
N4    Zn1   S    
C6    N1    S    
C14   C16   A    
C32   H11   S    
C15   C17   A    
C21   C25   A    
C28   H6    S    
C16   C22   A    
C19   C21   A    
C1    C7    S    
C1    O6    A    
C3    C5    A    
C10   O9    A    
C13   O2    S    
C10   O11   A    
C6    C33   A    
C29   H4    S    
C2    C30   S    
C31   H15   S    
C36   C38   A    
C35   Cl2   S    
N3    Zn2   S    
C2    C37   A    
C30   C31   S    
C20   C26   A    
C15   N2    A    
C30   H16   S    
C33   C35   A    
C18   C20   A    
C9    O8    A    
N3    N4    D    
C7    H22   S    
C15   O4    S    
C16   C18   A    
C12   O5    A    
C27   C28   S    
C13   N2    A    
