data_mof_unit_67284.cif
_audit_creation_date              2013-03-05T16:01:59-0500
_audit_creation_method            fapswitch 2.2
_symmetry_space_group_name_H-M    P1
_symmetry_Int_Tables_number       1
_space_group_crystal_system       triclinic
_cell_length_a                    8.29122
_cell_length_b                    14.422851
_cell_length_c                    14.956705
_cell_angle_alpha                 94.992969
_cell_angle_beta                  97.373822
_cell_angle_gamma                 92.394143
_cell_volume                      1764.50662904

loop_
_atom_site_label
_atom_site_type_symbol
_atom_site_description
_atom_site_fract_x
_atom_site_fract_y
_atom_site_fract_z
_atom_type_partial_charge
P1    P     P_3+3 0.018620 0.416870 0.295980 0.529009
O1    O     O_2   0.841250 0.444240 0.280450 -0.317023
O2    O     O_3   0.112870 0.447390 0.393710 -0.417984
O3    O     O_3   0.597960 0.615760 0.327700 -0.385243
O4    O     O_2   0.699768 0.553724 0.173140 -0.336053
O5    O     O_3   0.991337 0.294940 0.279242 -0.495165
O6    O     O_3   0.588591 0.722841 0.173036 -0.590468
C1    C     C_3   0.640600 0.888036 0.219092 -0.800299
H1    H     H_    0.773191 0.891827 0.219378 0.245501
P2    P     P_3+3 0.635650 0.716500 0.560900 0.506418
P3    P     P_3+3 0.041486 0.786801 0.377096 0.547293
O7    O     O_2   0.802240 0.729720 0.532850 -0.306718
O8    O     O_3   0.017190 0.664840 0.371090 -0.385154
O9    O     O_2   0.894876 0.829201 0.416860 -0.405511
O10   O     O_3   0.674428 0.734704 0.679006 -0.529574
O11   O     O_3   0.022794 0.822061 0.266582 -0.486587
C2    C     C_3   0.988767 0.745016 0.200908 0.167797
H2    H     H_    0.091314 0.698601 0.201361 0.126194
C3    C     C_3   0.953824 0.778924 0.105647 0.310899
H3    H     H_    0.834296 0.810875 0.098773 0.090645
C4    C     C_3   0.280884 0.750578 0.679991 0.134014
H4    H     H_    0.379546 0.706914 0.661820 0.082624
H5    H     H_    0.207980 0.768035 0.617062 0.076835
C5    C     C_3   0.357937 0.841411 0.733628 0.348338
Ba1   Ba    Ba6+2 0.833410 0.543320 0.453520 1.655204
C6    C     C_3   0.981099 0.257292 0.361774 0.255588
H6    H     H_    0.100891 0.266300 0.404429 0.095202
C7    C     C_3   0.930205 0.152212 0.346720 -0.173745
H7    H     H_    0.796436 0.141506 0.341483 0.159450
H8    H     H_    0.982352 0.117959 0.406903 0.076697
C8    C     C_3   0.733889 0.655443 0.716307 0.327895
H9    H     H_    0.651195 0.592712 0.695333 0.124490
C9    C     C_3   0.746564 0.673465 0.818401 -0.664870
H10   H     H_    0.819076 0.739616 0.841375 0.322870
H11   H     H_    0.805368 0.616111 0.851643 0.216446
P4    P     P_3+3 0.171070 0.583210 0.704020 0.490615
O12   O     O_2   0.348460 0.555790 0.719610 -0.413831
O13   O     O_3   0.076820 0.552690 0.606290 -0.395001
O14   O     O_3   0.591740 0.384320 0.672310 -0.390519
O15   O     O_3   0.175878 0.704706 0.729581 -0.503435
P5    P     P_3+3 0.153512 0.217105 0.640714 0.492008
O16   O     O_3   0.629090 0.386360 0.459240 -0.381256
O17   O     O_3   0.172500 0.335240 0.628910 -0.381537
O18   O     O_2   0.271209 0.170051 0.580957 -0.385694
O19   O     O_3   0.231051 0.196730 0.751564 -0.472041
Ba2   Ba    Ba6+2 0.356410 0.456750 0.546480 1.591843
P6    P     P_3+3 0.562701 0.609797 0.208942 0.523848
C10   C     C_3   0.578206 0.793033 0.244253 0.743931
H12   H     H_    0.616522 0.944699 0.270181 0.232184
O20   O     O_3   0.560600 0.613720 0.540760 -0.413156
C11   C     C_3   0.460569 0.287070 0.268398 0.708373
H13   H     H_    0.425366 0.351993 0.305207 -0.005695
C12   C     C_3   0.308097 0.231170 0.223544 -0.709614
H14   H     H_    0.244913 0.204501 0.277263 0.230387
P7    P     P_3+3 0.564039 0.268654 0.440296 0.414199
O21   O     O_2   0.387470 0.270310 0.467210 -0.396290
O22   O     O_3   0.549957 0.228962 0.325013 -0.610740
C13   C     C_3   0.168448 0.260816 0.812834 0.240528
H15   H     H_    0.203674 0.333352 0.800563 0.090554
H16   H     H_    0.033863 0.251686 0.806306 0.039979
C14   C     C_3   0.239333 0.246735 0.910260 -0.060543
H17   H     H_    0.374007 0.253492 0.918539 0.207212
H18   H     H_    0.198843 0.302562 0.956882 0.097677
P8    P     P_3+3 0.632735 0.387278 0.788570 0.520814
C15   C     C_3   0.636532 0.209362 0.758337 0.243152
H19   H     H_    0.767422 0.221555 0.752121 0.017871
O23   O     O_2   0.508382 0.450926 0.827591 -0.374121
O24   O     O_3   0.584592 0.276720 0.820341 -0.478377
H20   H     H_    0.563398 0.210521 0.690822 0.125401
H21   H     H_    0.640237 0.059830 0.736745 0.105607
C16   C     C_3   0.610611 0.112618 0.789659 -0.069610
H22   H     H_    0.481196 0.099426 0.798070 0.215848
C17   C     C_R   0.359727 0.550904 0.166194 0.311461
H23   H     H_    0.331873 0.518263 0.301371 0.177150
H24   H     H_    0.483830 0.618320 0.024787 0.196276
C18   C     C_R   0.121164 0.471776 0.208805 0.185857
C19   C     C_R   0.931233 0.471417 0.766030 -0.590109
C20   C     C_R   0.843188 0.432901 0.828255 0.124617
C21   C     C_R   0.910325 0.432400 0.919120 0.180996
C22   C     C_R   0.061587 0.483438 0.952591 -0.058335
C23   C     C_R   0.146322 0.527113 0.887477 -0.038112
C24   C     C_R   0.130528 0.495404 0.047738 0.081350
C25   C     C_R   0.287700 0.541903 0.073678 -0.033072
C26   C     C_R   0.366622 0.581152 0.007683 -0.045861
C27   C     C_R   0.295309 0.576731 0.918106 0.057915
C28   C     C_R   0.047306 0.466721 0.119198 -0.172836
C29   C     C_R   0.276020 0.514009 0.231597 -0.406525
C30   C     C_R   0.079580 0.520830 0.793347 0.269134
H25   H     H_    0.922110 0.443780 0.110290 0.235236
H26   H     H_    0.360955 0.613160 0.873205 0.162252
C31   C     C_R   0.703935 0.945769 0.569311 0.341257
C32   C     C_R   0.506927 0.806358 0.514466 0.177988
C33   C     C_R   0.350236 0.774391 0.474917 -0.444941
C34   C     C_R   0.236282 0.835195 0.441787 0.376823
C35   C     C_R   0.281133 0.929783 0.445051 -0.138505
C36   C     C_R   0.439964 0.963904 0.480989 0.033635
C37   C     C_R   0.552939 0.904090 0.522620 -0.180015
H27   H     H_    0.315815 0.700644 0.469459 0.178890
C38   C     C_R   0.637358 0.097324 0.515835 -0.063182
C39   C     C_R   0.746189 0.040868 0.564027 -0.105115
C40   C     C_R   0.683285 0.192813 0.512674 0.237246
C41   C     C_R   0.833391 0.229998 0.557668 -0.511483
C42   C     C_R   0.943639 0.172850 0.600649 0.199352
C43   C     C_R   0.898441 0.080472 0.606456 -0.201975
C44   C     C_R   0.485270 0.057568 0.474741 -0.081310
H28   H     H_    0.193638 0.976207 0.416482 0.171080
H29   H     H_    0.868757 0.302551 0.554291 0.171026
H30   H     H_    0.398954 0.098925 0.437696 0.176347
H31   H     H_    0.655377 0.778375 0.306888 0.068346
N1    N     N_R   0.435447 0.826380 0.824464 0.241244
O25   O     O_R   0.349899 0.794359 0.883267 -0.291788
O26   O     O_R   0.581544 0.862370 0.852458 -0.312975
H32   H     H_    0.452909 0.868304 0.694947 0.015365
N2    N     N_R   0.237918 0.911799 0.740281 0.262879
O27   O     O_R   0.254799 0.988545 0.702012 -0.413940
O28   O     O_R   0.121657 0.901870 0.789993 -0.182133
H33   H     H_    0.890957 0.293826 0.398347 0.072424
N3    N     N_R   0.982585 0.106377 0.265066 0.283439
O29   O     O_R   0.909864 0.121072 0.185590 -0.189695
O30   O     O_R   0.086267 0.041343 0.271425 -0.348126
H34   H     H_    0.855517 0.643603 0.696591 0.121459
H35   H     H_    0.623317 0.678110 0.839088 0.232491
N4    N     N_R   0.410256 0.798546 0.262435 0.216715
O31   O     O_R   0.335403 0.875928 0.258174 -0.343705
O32   O     O_R   0.339454 0.727402 0.291351 -0.500074
N5    N     N_R   0.555611 0.312221 0.197436 0.240381
O33   O     O_R   0.497116 0.368252 0.139434 -0.416373
O34   O     O_R   0.680444 0.265309 0.180427 -0.235350
H36   H     H_    0.227568 0.275118 0.181939 0.228416
H37   H     H_    0.340409 0.170562 0.179460 0.284325
H38   H     H_    0.580189 0.902263 0.151345 0.302035
N6    N     N_R   0.078925 0.848787 0.090859 0.303279
O35   O     O_R   0.039587 0.933545 0.078461 -0.208073
O36   O     O_R   0.226345 0.825154 0.082265 -0.268262
N7    N     N_R   0.188264 0.155642 0.935647 0.299338
O37   O     O_R   0.239039 0.080189 0.896800 -0.236254
O38   O     O_R   0.111537 0.149931 0.005707 -0.225497
H39   H     H_    0.881870 0.703126 0.214455 0.126617
N8    N     N_R   0.712479 0.103197 0.875043 0.298768
O39   O     O_R   0.669754 0.139173 0.950720 -0.213882
O40   O     O_R   0.834026 0.048938 0.877078 -0.213159
H40   H     H_    0.878202 0.467873 0.695790 0.186005
N9    N     N_R   0.829636 0.372183 0.972439 0.237302
O41   O     O_R   0.898061 0.297892 0.998515 -0.324062
O42   O     O_R   0.686686 0.390693 0.994298 -0.285526
H41   H     H_    0.985540 0.040548 0.643757 0.251117
N10   N     N_R   0.808515 0.897378 0.630755 0.253180
O43   O     O_R   0.950885 0.876449 0.609677 -0.377817
O44   O     O_R   0.789572 0.907191 0.715939 -0.305212
N11   N     N_R   0.942354 0.700379 0.036138 0.198065
O45   O     O_R   0.032415 0.700545 0.971129 -0.370800
O46   O     O_R   0.826821 0.635787 0.032151 -0.430589

loop_
_geom_bond_atom_site_label_1
_geom_bond_atom_site_label_2
_geom_bond_distance
_ccdc_geom_bond_type
P7    O21   1.567913 D    
C5    N2    1.457046 S    
N5    O33   1.299092 A    
C41   C42   1.390163 A    
P3    O8    1.755300 S    
C35   C36   1.408359 A    
C6    H33   1.105954 S    
C36   C44   1.401199 A    
C10   N4    1.456728 S    
C31   N10   1.428697 S    
O3    Ba1   2.830826 S    
N4    O31   1.301894 A    
O5    C6    1.401979 S    
C19   C20   1.392175 A    
P4    C30   1.892668 S    
O14   P8    1.724867 S    
O4    P6    1.545947 D    
C6    H6    1.105681 S    
C40   C41   1.398526 A    
P8    O24   1.747911 S    
P4    O12   1.533161 D    
N10   O44   1.299923 A    
P2    O10   1.749059 S    
P1    C18   1.859577 S    
Ba1   O13   2.837602 S    
P3    O9    1.545852 D    
H24   C26   1.079812 S    
N4    O32   1.294851 A    
C13   H16   1.108856 S    
N9    O41   1.299533 A    
C39   C43   1.411941 A    
C3    N11   1.460768 S    
N9    O42   1.301399 A    
P1    O1    1.532732 D    
O16   Ba2   2.926274 S    
C14   H18   1.110047 S    
C19   H40   1.081579 S    
C17   C29   1.398492 A    
C2    C3    1.542817 S    
N1    O25   1.301299 A    
C21   N9    1.430679 S    
N10   O43   1.301012 A    
C19   C30   1.390969 A    
C1    H1    1.097859 S    
C8    C9    1.515844 S    
P4    Ba2   3.414039 S    
C2    H39   1.101948 S    
C11   O22   1.408198 S    
H23   C29   1.081543 S    
C13   C14   1.533513 S    
C10   H31   1.106171 S    
P2    C32   1.839299 S    
C5    H32   1.111614 S    
C4    H4    1.099974 S    
N3    O29   1.300786 A    
P1    Ba1   3.413363 S    
P5    O17   1.730925 S    
O8    Ba1   2.747524 S    
C34   C35   1.393968 A    
C32   C37   1.435445 A    
N2    O27   1.300114 A    
N3    O30   1.299898 A    
C38   C44   1.405691 A    
C44   H30   1.079987 S    
O19   C13   1.406502 S    
C11   H13   1.113295 S    
P8    O23   1.544867 D    
C43   H41   1.073119 S    
N7    O37   1.300034 A    
C5    N1    1.464449 S    
C26   C27   1.388278 A    
P6    C17   1.863409 S    
C22   C24   1.456677 A    
C20   C21   1.401696 A    
N6    O35   1.300918 A    
C16   N8    1.457960 S    
C13   H15   1.111365 S    
C12   H14   1.101338 S    
P5    C42   1.835060 S    
C11   C12   1.516981 S    
O6    P6    1.773560 S    
C1    C10   1.538578 S    
Ba1   O20   2.927234 S    
C35   H28   1.080734 S    
O16   P7    1.747504 S    
P3    O11   1.761238 S    
C25   C26   1.398233 A    
P4    O15   1.758405 S    
N8    O39   1.300749 A    
C15   O24   1.403536 S    
C36   C37   1.421494 A    
C1    H38   1.110949 S    
C2    H2    1.103610 S    
C41   H29   1.082070 S    
C33   C34   1.389957 A    
C31   C37   1.433892 A    
C18   C29   1.386334 A    
C8    H34   1.102285 S    
H21   C16   1.107684 S    
P2    O7    1.503609 D    
O14   Ba2   2.830234 S    
P2    Ba1   3.438972 S    
C38   C40   1.419909 A    
C15   H19   1.109104 S    
P7    O22   1.756502 S    
C9    H35   1.108016 S    
C31   C39   1.412832 A    
P5    O18   1.544442 D    
N11   O46   1.300040 A    
C12   H36   1.110032 S    
P2    O20   1.572416 S    
C18   C28   1.394670 A    
C42   C43   1.381994 A    
C14   N7    1.459871 S    
C3    N6    1.466439 S    
N7    O38   1.300482 A    
Ba2   O20   2.783824 S    
C7    H7    1.105163 S    
N5    O34   1.299966 A    
C11   N5    1.461798 S    
P8    C20   1.843979 S    
C8    H9    1.109346 S    
P3    C34   1.849062 S    
C22   C23   1.443702 A    
C28   H25   1.064364 S    
Ba1   O16   2.784332 S    
N2    O28   1.301351 A    
C27   H26   1.074551 S    
C7    H8    1.112022 S    
O10   C8    1.395924 S    
P7    C40   1.835115 S    
O2    Ba2   2.838262 S    
C6    C7    1.545460 S    
C38   C39   1.411867 A    
O7    Ba1   2.878146 S    
O6    C10   1.417752 S    
C33   H27   1.083039 S    
C3    H3    1.106945 S    
C4    H5    1.105706 S    
C16   H22   1.106861 S    
C15   C16   1.525512 S    
C24   C28   1.425495 A    
N8    O40   1.300419 A    
O11   C2    1.411349 S    
C4    O15   1.396020 S    
C15   H20   1.110973 S    
Ba1   Ba2   4.520455 S    
P4    O13   1.583385 S    
C32   C33   1.398397 A    
C9    H11   1.101024 S    
C9    H10   1.109864 S    
O1    Ba1   2.855520 S    
C14   H17   1.106780 S    
O17   Ba2   2.748062 S    
N1    O26   1.300576 A    
O13   Ba2   2.945088 S    
C23   C30   1.438816 A    
C21   C22   1.436288 A    
O2    Ba1   2.944108 S    
N6    O36   1.301623 A    
C24   C25   1.431918 A    
C4    C5    1.543888 S    
Ba2   O21   2.878191 S    
P1    O5    1.755569 S    
P5    O19   1.753708 S    
N11   O45   1.299857 A    
C7    N3    1.461756 S    
C12   H37   1.111415 S    
P1    O2    1.583385 S    
O12   Ba2   2.856201 S    
C1    H12   1.111617 S    
C17   C25   1.427703 A    
C23   C27   1.404184 A    
O3    P6    1.756660 S    
