data_mof_unit_44929.cif
_audit_creation_date              2012-12-11T16:43:16-0500
_audit_creation_method            fapswitch 2.2
_symmetry_space_group_name_H-M    P1
_symmetry_Int_Tables_number       1
_space_group_crystal_system       triclinic
_cell_length_a                    6.92502
_cell_length_b                    23.273247
_cell_length_c                    25.818254
_cell_angle_alpha                 104.73015
_cell_angle_beta                  90.242538
_cell_angle_gamma                 90.537718
_cell_volume                      4024.03983384

loop_
_atom_site_label
_atom_site_type_symbol
_atom_type_description
_atom_site_fract_x
_atom_site_fract_y
_atom_site_fract_z
_atom_type_partial_charge
O1    O     O_R   0.505750 0.453350 0.547660 -0.544108
O2    O     O_R   0.170990 0.432220 0.437590 -0.544588
O3    O     O_R   0.005600 0.546650 0.452340 -0.533167
C1    C     C_R   0.339696 0.415234 0.417547 0.698019
O4    O     O_R   0.175720 0.446240 0.546340 -0.546320
O5    O     O_R   0.010370 0.560770 0.561860 -0.530560
C2    C     C_R   0.344683 0.434165 0.562840 0.677205
O6    O     O_R   0.500990 0.439230 0.438140 -0.542952
O7    O     O_3   0.340820 0.537560 0.504970 -0.352573
V1    V     V_3+5 0.064050 0.493030 0.499080 1.429601
O8    O     O_R   0.680940 0.567780 0.562410 -0.545894
C3    C     C_R   0.851646 0.586128 0.581208 0.755661
O9    O     O_R   0.676210 0.553760 0.453660 -0.536959
C4    C     C_R   0.845441 0.566105 0.437404 0.731381
V2    V     V_3+5 0.564640 0.506970 0.500920 1.433996
O10   O     O_3   0.837740 0.462440 0.495030 -0.378610
C5    C     C_R   0.778070 0.866443 0.107282 -0.164362
H1    H     H_    0.650761 0.871144 0.084255 0.123065
C6    C     C_R   0.766290 0.830653 0.143398 -0.144580
H2    H     H_    0.630389 0.808929 0.147652 0.109989
C7    C     C_R   0.927142 0.823986 0.174602 0.089459
C8    C     C_R   0.100973 0.853098 0.168360 -0.143966
H3    H     H_    0.227395 0.848364 0.191721 0.110998
C9    C     C_R   0.114040 0.887927 0.131440 -0.163583
H4    H     H_    0.250127 0.909721 0.127553 0.119255
C10   C     C_R   0.952271 0.895430 0.100717 -0.053060
C11   C     C_R   0.971471 0.810029 0.267216 -0.152617
H5    H     H_    0.023526 0.855447 0.280695 0.118861
C12   C     C_R   0.959511 0.775105 0.304039 -0.139582
H6    H     H_    0.001093 0.794549 0.345302 0.130806
C13   C     C_R   0.896102 0.715551 0.287745 0.065317
C14   C     C_R   0.835295 0.692841 0.234311 -0.153027
H7    H     H_    0.784252 0.647340 0.220626 0.112293
C15   C     C_R   0.842775 0.728254 0.197786 -0.148146
H8    H     H_    0.796989 0.709429 0.156759 0.114147
C16   C     C_R   0.913614 0.786929 0.213686 0.075030
C17   C     C_R   0.718303 0.645587 0.330271 -0.073891
H9    H     H_    0.595200 0.648424 0.305080 0.111931
C18   C     C_R   0.702080 0.610571 0.366874 -0.113832
H10   H     H_    0.567860 0.586873 0.368601 0.122644
C19   C     C_R   0.858251 0.605280 0.400049 -0.108121
C20   C     C_R   0.030366 0.636391 0.396224 -0.110223
H11   H     H_    0.152444 0.632131 0.421343 0.182926
C21   C     C_R   0.048366 0.672304 0.359931 0.002190
C22   C     C_R   0.889371 0.677349 0.326434 -0.005400
C23   C     C_R   0.720077 0.647823 0.666793 -0.254781
C24   C     C_R   0.867668 0.638410 0.628485 -0.101718
C25   C     C_R   0.032241 0.677118 0.637108 -0.073337
C26   C     C_R   0.050657 0.722278 0.685760 0.017484
C27   C     C_R   0.901139 0.730011 0.724128 0.054308
C28   C     C_R   0.735212 0.693093 0.714208 0.098168
C29   C     C_R   0.212646 0.761015 0.696838 -0.182907
C30   C     C_R   0.228116 0.804993 0.744853 -0.167453
C31   C     C_R   0.081534 0.812427 0.782958 0.090492
C32   C     C_R   0.916146 0.775360 0.772449 0.061581
C33   C     C_R   0.764979 0.783942 0.810102 0.088739
C34   C     C_R   0.601399 0.746746 0.799664 -0.190696
C35   C     C_R   0.587020 0.701606 0.752269 -0.180762
C36   C     C_R   0.096644 0.856945 0.831062 -0.222895
C37   C     C_R   0.945457 0.866349 0.868291 -0.082974
C38   C     C_R   0.779531 0.829773 0.857397 -0.218969
H12   H     H_    0.594191 0.618729 0.660223 0.120705
H13   H     H_    0.329986 0.757911 0.668849 0.130019
H14   H     H_    0.355370 0.833455 0.752082 0.135224
H15   H     H_    0.224038 0.885367 0.838882 0.124706
H16   H     H_    0.662381 0.836654 0.885982 0.127333
H17   H     H_    0.483969 0.752702 0.828086 0.133206
H18   H     H_    0.458818 0.673564 0.745183 0.129974
C39   C     C_R   0.289638 0.171051 0.139140 -0.197676
C40   C     C_R   0.456111 0.135569 0.130856 -0.081967
C41   C     C_R   0.602817 0.147348 0.170086 -0.219378
C42   C     C_R   0.581204 0.192746 0.217578 0.128246
C43   C     C_R   0.413506 0.228191 0.225353 0.081059
C44   C     C_R   0.268707 0.217531 0.185664 0.044408
C45   C     C_R   0.723796 0.203022 0.257669 -0.168438
C46   C     C_R   0.701911 0.248120 0.304694 -0.192455
C47   C     C_R   0.537160 0.283989 0.312566 0.113318
C48   C     C_R   0.390887 0.274147 0.272838 0.076710
C49   C     C_R   0.223686 0.310311 0.280448 0.007154
C50   C     C_R   0.081882 0.300775 0.238823 -0.019941
C51   C     C_R   0.105412 0.253662 0.192640 -0.175663
C52   C     C_R   0.518095 0.329825 0.359396 -0.218038
C53   C     C_R   0.352396 0.365306 0.368382 -0.070501
C54   C     C_R   0.205016 0.354634 0.329361 -0.228472
H19   H     H_    0.176172 0.162709 0.108995 0.128661
H20   H     H_    0.731022 0.120125 0.164367 0.118893
H21   H     H_    0.853125 0.176361 0.252550 0.124657
H22   H     H_    0.815338 0.255374 0.334779 0.124876
H23   H     H_    0.632407 0.337606 0.389288 0.123766
H24   H     H_    0.078524 0.382009 0.337788 0.107415
H25   H     H_    0.996736 0.245531 0.161182 0.170228
C55   C     C_R   0.275294 0.115407 0.877695 -0.157733
H26   H     H_    0.143245 0.096080 0.888407 0.121238
C56   C     C_R   0.263988 0.150984 0.841551 -0.141050
H27   H     H_    0.124089 0.157439 0.825142 0.101030
C57   C     C_R   0.431176 0.176808 0.825947 0.094951
C58   C     C_R   0.610270 0.165985 0.847517 -0.138646
H28   H     H_    0.741712 0.185785 0.837010 0.099719
C59   C     C_R   0.621724 0.130197 0.883617 -0.158476
H29   H     H_    0.761911 0.122908 0.899417 0.120089
C60   C     C_R   0.454262 0.104435 0.899202 -0.054885
C61   C     C_R   0.561311 0.212019 0.748134 -0.149126
H30   H     H_    0.681977 0.182146 0.745237 0.111501
C62   C     C_R   0.548182 0.247008 0.711470 -0.149857
H31   H     H_    0.659338 0.243110 0.681447 0.109600
C63   C     C_R   0.391789 0.285554 0.712835 0.081432
C64   C     C_R   0.248835 0.288088 0.751879 -0.150915
H32   H     H_    0.128166 0.317961 0.754777 0.110118
C65   C     C_R   0.261963 0.253101 0.788542 -0.149687
H33   H     H_    0.150803 0.256997 0.818564 0.109655
C66   C     C_R   0.418338 0.214548 0.787171 0.081750
C67   C     C_R   0.199718 0.334074 0.652489 -0.140724
H34   H     H_    0.068316 0.314269 0.663016 0.099879
C68   C     C_R   0.188148 0.369850 0.616383 -0.163652
H35   H     H_    0.047916 0.377126 0.600602 0.118701
C69   C     C_R   0.355544 0.395619 0.600770 -0.052235
C70   C     C_R   0.534574 0.384659 0.622251 -0.161273
H36   H     H_    0.666577 0.403988 0.611513 0.119375
C71   C     C_R   0.545996 0.349093 0.658404 -0.144230
H37   H     H_    0.685936 0.342648 0.674795 0.100534
C72   C     C_R   0.378864 0.323270 0.674042 0.095390
O11   O     O_R   0.308350 0.060850 0.061810 -0.539759
O12   O     O_R   0.633860 0.053770 0.953650 -0.541977
O13   O     O_R   0.798960 0.939210 0.938150 -0.539134
C73   C     C_R   0.464963 0.065885 0.937131 0.692795
O14   O     O_R   0.638360 0.067800 0.062400 -0.539210
O15   O     O_R   0.803500 0.953330 0.047670 -0.540131
C74   C     C_R   0.469570 0.084946 0.082312 0.710791
O16   O     O_R   0.303810 0.046730 0.952290 -0.540665
O17   O     O_3   0.468430 0.962490 0.995010 -0.369236
V3    V     V_3+5 0.745300 0.006960 0.000930 1.401777
O18   O     O_R   0.132880 0.946160 0.046390 -0.541769
C75   C     C_R   0.963745 0.934038 0.062816 0.687994
O19   O     O_R   0.128380 0.932130 0.937650 -0.542537
C76   C     C_R   0.958488 0.915452 0.917624 0.712770
V4    V     V_3+5 0.244670 0.992930 0.999140 1.398505
O20   O     O_3   0.971670 0.037510 0.005000 -0.368245
C77   C     C_2   0.236863 0.701750 0.356168 0.325952
H38   H     H_    0.273699 0.716254 0.320696 0.055970
O21   O     O_2   0.353981 0.710221 0.392899 -0.512787
C78   C     C_2   0.180830 0.672166 0.594820 0.418610
H39   H     H_    0.333201 0.672435 0.604799 0.031558
O22   O     O_2   0.133518 0.668965 0.548544 -0.517358
C79   C     C_2   0.911199 0.339951 0.241102 0.391599
H40   H     H_    0.899182 0.381643 0.271083 0.033190
O23   O     O_2   0.780309 0.326359 0.208262 -0.528146

loop_
_geom_bond_atom_site_label_1
_geom_bond_atom_site_label_2
_ccdc_geom_bond_type
C32   C33   A    
C11   C12   A    
C19   C20   A    
C6    H2    S    
C1    O6    A    
C62   C63   A    
C58   H28   S    
C18   C19   A    
C7    C16   S    
C30   C31   A    
C33   C34   A    
C12   H6    S    
C52   H23   S    
C54   H24   S    
C23   H12   S    
C53   C54   A    
C5    C10   A    
C47   C52   A    
C6    C7    A    
C9    C10   A    
C70   C71   A    
O5    C3    A    
C49   C54   A    
C45   H21   S    
C30   H14   S    
O12   C73   A    
C63   C64   A    
V2    O10   S    
O16   V4    S    
C69   C70   A    
C15   H8    S    
C43   C44   A    
C67   H34   S    
C65   C66   A    
C23   C24   A    
O8    V2    S    
C38   H16   S    
C24   C25   A    
O18   C75   A    
C50   C79   S    
C60   C73   S    
C43   C48   A    
C40   C41   A    
O1    V2    S    
O9    C4    A    
O7    V1    S    
C46   H22   S    
C56   C57   A    
C36   C37   A    
C7    C8    A    
C21   C77   S    
C64   C65   A    
C61   C66   A    
C39   C40   A    
C20   C21   A    
C34   H17   S    
C3    C24   S    
C67   C68   A    
C62   H31   S    
C58   C59   A    
C27   C28   A    
C31   C36   A    
C71   C72   A    
C57   C66   S    
C61   H30   S    
C9    H4    S    
C42   C43   A    
C79   O23   D    
C18   H10   S    
O4    C2    A    
C48   C49   A    
C50   C51   A    
O19   V4    S    
C47   C48   A    
C23   C28   A    
O13   V3    S    
C37   C38   A    
C14   C15   A    
C2    C69   S    
O2    C1    A    
C45   C46   A    
C17   H9    S    
V3    O20   S    
C41   H20   S    
C59   H29   S    
O18   V4    S    
C26   C29   A    
C57   C58   A    
C55   C56   A    
C5    H1    S    
C39   C44   A    
C28   C35   A    
C46   C47   A    
C61   C62   A    
C37   C76   S    
O11   V4    S    
O3    C4    A    
C77   O21   D    
C55   C60   A    
C4    C19   S    
C35   H18   S    
C25   C26   A    
C59   C60   A    
C52   C53   A    
O6    V2    S    
O9    V2    S    
C8    C9    A    
C20   H11   S    
C64   H32   S    
C17   C22   A    
O2    V1    S    
C39   H19   S    
C29   C30   A    
C8    H3    S    
C40   C74   S    
C31   C32   A    
O14   C74   A    
O13   C76   A    
O12   V3    S    
O1    C2    A    
C13   C14   A    
O17   V4    S    
C21   C22   A    
O15   C75   A    
V4    O20   S    
C29   H13   S    
O5    V1    S    
C68   C69   A    
C71   H37   S    
C68   H35   S    
O19   C76   A    
C11   C16   A    
C27   C32   A    
C79   H40   S    
C14   H7    S    
C78   O22   D    
O17   V3    S    
O7    V2    S    
O4    V1    S    
C12   C13   A    
O3    V1    S    
V1    O10   S    
C78   H39   S    
C36   H15   S    
C42   C45   A    
C34   C35   A    
C1    C53   S    
O14   V3    S    
C63   C72   S    
C55   H26   S    
C5    C6    A    
C25   C78   S    
C15   C16   A    
O11   C74   A    
C56   H27   S    
O15   V3    S    
C77   H38   S    
C49   C50   A    
C51   H25   S    
C73   O16   A    
C67   C72   A    
C41   C42   A    
C17   C18   A    
C26   C27   A    
C13   C22   S    
C65   H33   S    
C11   H5    S    
C10   C75   S    
C33   C38   A    
C44   C51   A    
C70   H36   S    
O8    C3    A    
