data_mof_unit_52345.cif
_audit_creation_date              2012-12-10T17:08:12-0500
_audit_creation_method            fapswitch 2.2
_symmetry_space_group_name_H-M    P1
_symmetry_Int_Tables_number       1
_space_group_crystal_system       triclinic
_cell_length_a                    23.478402
_cell_length_b                    11.06035
_cell_length_c                    9.937717
_cell_angle_alpha                 111.305307
_cell_angle_beta                  97.922029
_cell_angle_gamma                 93.155566
_cell_volume                      2365.80581236

loop_
_atom_site_label
_atom_site_type_symbol
_atom_type_description
_atom_site_fract_x
_atom_site_fract_y
_atom_site_fract_z
_atom_type_partial_charge
C1    C     C_R   0.498259 0.253925 0.439559 0.764823
C2    C     C_R   0.506620 0.746113 0.559982 0.807051
C3    C     C_R   0.245393 0.593771 0.581591 0.312456
C4    C     C_R   0.746700 0.410850 0.352893 0.282401
C5    C     C_R   0.304867 0.599069 0.580886 -0.296289
C6    C     C_R   0.688551 0.413824 0.366260 -0.328828
C7    C     C_R   0.328932 0.488522 0.500534 -0.176457
C8    C     C_R   0.671470 0.495610 0.495018 -0.138528
C9    C     C_R   0.294626 0.366611 0.441339 0.140608
C10   C     C_R   0.714067 0.570618 0.616641 0.173354
C11   C     C_R   0.235079 0.361449 0.449931 0.287414
C12   C     C_R   0.773254 0.556801 0.609167 0.209285
C13   C     C_R   0.208292 0.479220 0.488285 0.132469
C14   C     C_R   0.789648 0.480391 0.475090 0.223685
C15   C     C_2   0.500592 0.112795 0.402631 0.094057
C16   C     C_2   0.517458 0.887039 0.596414 0.084275
C17   C     C_2   0.520976 0.070576 0.508777 -0.176192
C18   C     C_2   0.516723 0.931379 0.486237 -0.215534
C19   C     C_2   0.512053 0.486588 0.070982 0.361497
C20   C     C_2   0.496314 0.480099 0.913052 0.369987
C21   C     C_R   0.391317 0.497793 0.500433 0.840127
C22   C     C_R   0.608971 0.500428 0.499181 0.843857
C23   C     C_R   0.882651 0.594067 0.487760 0.626072
C24   C     C_R   0.109451 0.369193 0.359400 0.618236
C25   C     C_R   0.874231 0.364280 0.428347 0.616094
C26   C     C_R   0.121878 0.595615 0.467232 0.642133
C27   C     C_R   0.932684 0.360191 0.408248 -0.090944
C28   C     C_R   0.062481 0.600589 0.477586 -0.076340
C29   C     C_R   0.967735 0.480153 0.447066 -0.115203
C30   C     C_R   0.027055 0.480894 0.436104 -0.114179
C31   C     C_R   0.943167 0.599297 0.494354 -0.081369
C32   C     C_R   0.050151 0.362168 0.370440 -0.102236
C33   C     C_R   0.956286 0.240780 0.345937 0.228420
C34   C     C_R   0.038212 0.720245 0.529583 0.188097
C35   C     C_R   0.013693 0.242110 0.319047 0.190862
C36   C     C_R   0.979048 0.719735 0.543102 0.203141
Cu1   Cu    Cu3+1 0.509980 0.521810 0.644910 0.957256
Cu2   Cu    Cu3+1 0.490020 0.478190 0.355090 0.944763
H1    H     H_    0.332688 0.688401 0.647415 0.181377
H2    H     H_    0.656320 0.353097 0.274172 0.203205
H3    H     H_    0.507743 0.861968 0.373591 0.199380
H4    H     H_    0.539075 0.141735 0.615635 0.153406
N1    N     N_R   0.850196 0.479200 0.462635 -0.443201
N2    N     N_R   0.145752 0.480742 0.443724 -0.447096
N3    N     N_2   0.475010 0.445410 0.137370 -0.102349
N4    N     N_2   0.524990 0.554590 0.862630 -0.107131
O1    O     O_R   0.505330 0.332340 0.577400 -0.561770
O2    O     O_R   0.494670 0.667660 0.422600 -0.607008
O3    O     O_R   0.488470 0.295500 0.332650 -0.580295
O4    O     O_R   0.511530 0.704500 0.667350 -0.565912
O5    O     O_R   0.426310 0.518390 0.622390 -0.573903
O6    O     O_R   0.573690 0.481610 0.377610 -0.554297
O7    O     O_R   0.409450 0.481550 0.377650 -0.572219
O8    O     O_R   0.590550 0.518450 0.622350 -0.550841
O9    O     O_2   0.855939 0.702219 0.503624 -0.507058
O10   O     O_2   0.129139 0.271894 0.256048 -0.531812
O11   O     O_2   0.841178 0.254976 0.413028 -0.489255
O12   O     O_2   0.154164 0.701032 0.469305 -0.478457
N5    N     N_2   0.921039 0.118821 0.299345 -0.362336
H5    H     H_    0.925177 0.053217 0.197343 0.262951
C37   C     C_3   0.922987 0.059649 0.407896 -0.549246
H6    H     H_    0.965402 0.023332 0.423760 0.181596
H7    H     H_    0.888646 0.975792 0.370104 0.246674
H8    H     H_    0.915683 0.130912 0.514713 0.238030
N6    N     N_2   0.073494 0.841198 0.570109 -0.391062
H9    H     H_    0.058541 0.903391 0.520769 0.225963
C38   C     C_3   0.098714 0.905061 0.723449 -0.542610
H10   H     H_    0.073423 0.985208 0.778471 0.184510
H11   H     H_    0.143529 0.948216 0.732403 0.265477
H12   H     H_    0.100261 0.835179 0.780562 0.243142
N7    N     N_2   0.541578 0.680243 0.962454 -0.393310
H13   H     H_    0.509820 0.740991 0.963221 0.251537
C39   C     C_3   0.597769 0.735316 0.956387 -0.537643
H14   H     H_    0.609688 0.831192 0.048514 0.196417
H15   H     H_    0.597126 0.750610 0.852502 0.271653
H16   H     H_    0.630918 0.670178 0.966810 0.223326
N8    N     N_2   0.417901 0.451505 0.085595 -0.369723
H17   H     H_    0.404253 0.541763 0.135540 0.260837
C40   C     C_3   0.377336 0.342428 0.072284 -0.567151
H18   H     H_    0.355765 0.293876 0.956414 0.195375
H19   H     H_    0.342817 0.377214 0.138359 0.217301
H20   H     H_    0.399290 0.269682 0.107477 0.228383
N9    N     N_2   0.033343 0.120842 0.239882 -0.428135
H21   H     H_    0.044951 0.110124 0.140187 0.281486
C41   C     C_3   0.065999 0.056901 0.323757 -0.606901
H22   H     H_    0.045952 0.954736 0.288958 0.211713
H23   H     H_    0.066738 0.107463 0.443385 0.209873
H24   H     H_    0.111077 0.054059 0.301993 0.268818
N10   N     N_2   0.956548 0.839664 0.615205 -0.379559
H25   H     H_    0.974525 0.920798 0.602206 0.238841
C42   C     C_3   0.950337 0.864518 0.765731 -0.605777
H26   H     H_    0.929675 0.955530 0.809979 0.225049
H27   H     H_    0.993253 0.876126 0.834547 0.200582
H28   H     H_    0.922664 0.783172 0.772857 0.251065
Br1   Br    Br    0.222022 0.726925 0.745069 -0.528427
Br2   Br    Br    0.765014 0.316597 0.162594 -0.513821
N11   N     N_2   0.319737 0.248413 0.381194 -0.436362
H29   H     H_    0.346776 0.250357 0.308551 0.254323
C43   C     C_3   0.345322 0.197820 0.487804 -0.712220
H30   H     H_    0.353457 0.095359 0.431239 0.234772
H31   H     H_    0.316160 0.199194 0.567097 0.242951
H32   H     H_    0.386939 0.256804 0.547446 0.242800
N12   N     N_2   0.697564 0.664728 0.742188 -0.434557
H33   H     H_    0.720233 0.669783 0.840940 0.257296
C44   C     C_3   0.693630 0.791564 0.732267 -0.669497
H34   H     H_    0.735467 0.830102 0.714382 0.244586
H35   H     H_    0.683150 0.861844 0.835711 0.231035
H36   H     H_    0.658933 0.784402 0.640646 0.227357
N13   N     N_2   0.205407 0.243377 0.445256 -0.378285
H37   H     H_    0.221814 0.158253 0.389389 0.296166
C45   C     C_3   0.190754 0.248551 0.584002 -0.694452
H38   H     H_    0.169670 0.151826 0.571366 0.230044
H39   H     H_    0.160181 0.322080 0.621472 0.241180
H40   H     H_    0.230375 0.273895 0.668516 0.224335
N14   N     N_2   0.817077 0.623835 0.733330 -0.431072
H41   H     H_    0.809728 0.715771 0.799489 0.268804
C46   C     C_3   0.837490 0.545170 0.814623 -0.680161
H42   H     H_    0.873788 0.602367 0.903423 0.229043
H43   H     H_    0.853552 0.456129 0.741814 0.247714
H44   H     H_    0.802046 0.516448 0.864303 0.241307
N15   N     N_2   0.532113 0.971016 0.747505 -0.423948
H45   H     H_    0.559440 0.055401 0.775101 0.252404
C47   C     C_3   0.487453 0.977414 0.836165 -0.688231
H46   H     H_    0.499717 0.061025 0.942435 0.213896
H47   H     H_    0.482272 0.887860 0.860152 0.248312
H48   H     H_    0.445265 0.988922 0.778877 0.225567
N16   N     N_2   0.485161 0.023822 0.254084 -0.433201
H49   H     H_    0.500462 0.058001 0.180717 0.259964
C48   C     C_3   0.424628 0.973499 0.208849 -0.694280
H50   H     H_    0.417933 0.897448 0.096520 0.228122
H51   H     H_    0.398050 0.053149 0.207463 0.231038
H52   H     H_    0.410404 0.928172 0.283541 0.239581
N17   N     N_2   0.455501 0.376791 0.811780 -0.386222
H53   H     H_    0.413060 0.396520 0.808202 0.257013
C49   C     C_3   0.464622 0.247711 0.807624 -0.697897
H54   H     H_    0.444802 0.174203 0.698973 0.237786
H55   H     H_    0.444474 0.226006 0.891148 0.233032
H56   H     H_    0.511525 0.239673 0.829402 0.223727
N18   N     N_2   0.570922 0.523470 0.139809 -0.395187
H57   H     H_    0.583287 0.622611 0.179961 0.260596
C50   C     C_3   0.612098 0.445462 0.061158 -0.676637
H58   H     H_    0.656467 0.482243 0.123911 0.252843
H59   H     H_    0.611344 0.451312 0.951946 0.227235
H60   H     H_    0.602134 0.341629 0.046442 0.227395

loop_
_geom_bond_atom_site_label_1
_geom_bond_atom_site_label_2
_ccdc_geom_bond_type
C36   N10   S    
C49   H56   S    
C21   O7    A    
C11   N13   S    
C46   H42   S    
N18   C50   S    
C39   H14   S    
C45   H38   S    
C25   N1    A    
N16   C48   S    
N11   H29   S    
C26   N2    A    
C49   H54   S    
C22   O8    A    
Cu2   O3    S    
N8    H17   S    
C27   C33   A    
C44   H35   S    
Cu1   Cu2   S    
C10   N12   S    
C46   H43   S    
Cu1   O5    S    
C47   H47   S    
Cu2   O6    S    
N14   H41   S    
C23   N1    A    
C27   C29   A    
C49   H55   S    
C37   H7    S    
C17   H4    S    
Cu2   N3    S    
C2    O4    A    
C4    Br2   S    
C45   H39   S    
C19   C20   S    
N14   C46   S    
C8    C22   S    
C1    C15   S    
C20   N17   S    
Cu1   O1    S    
C2    C16   S    
Cu2   O2    S    
C3    C13   A    
C12   N14   S    
C41   H23   S    
C28   C34   A    
N5    H5    S    
C33   N5    S    
C15   N16   S    
C39   H15   S    
C25   O11   S    
C34   N6    S    
N11   C43   S    
C5    C7    A    
N8    C40   S    
C44   H36   S    
N5    C37   S    
C38   H10   S    
C32   C35   A    
C47   H46   S    
C4    C6    A    
C18   H3    S    
C42   H26   S    
C40   H19   S    
C35   N9    S    
C1    O1    A    
C47   H48   S    
C6    C8    A    
N6    C38   S    
C41   H22   S    
C38   H11   S    
C50   H59   S    
C23   C31   A    
C37   H8    S    
C16   N15   S    
C24   C32   A    
C29   C30   A    
C42   H27   S    
C9    C11   A    
N9    H21   S    
C17   C18   S    
N15   H45   S    
N12   C44   S    
C26   O12   S    
N4    N7    S    
C10   C12   A    
Cu1   O8    S    
C8    C10   A    
N9    C41   S    
C12   C14   A    
N6    H9    S    
C5    H1    S    
N17   H53   S    
C24   N2    A    
C39   H16   S    
C6    H2    S    
C46   H44   S    
C24   O10   S    
N16   H49   S    
C21   O5    A    
C22   O6    A    
C48   H50   S    
C41   H24   S    
C15   C17   D    
C9    N11   S    
C43   H31   S    
C3    C5    A    
C40   H20   S    
C3    Br1   S    
N18   H57   S    
C19   N3    D    
C23   O9    S    
C50   H60   S    
C25   C27   A    
C44   H34   S    
C26   C28   A    
C43   H30   S    
C38   H12   S    
C2    O2    A    
C48   H52   S    
N13   C45   S    
N10   H25   S    
N7    H13   S    
C29   C31   A    
C7    C21   S    
N13   H37   S    
C42   H28   S    
C30   C32   A    
Cu1   O4    S    
C11   C13   A    
Cu2   O7    S    
C28   C30   A    
C33   C35   A    
C45   H40   S    
C34   C36   A    
C13   N2    S    
C4    C14   A    
C37   H6    S    
N15   C47   S    
C40   H18   S    
C7    C9    A    
C43   H32   S    
C16   C18   D    
N10   C42   S    
N7    C39   S    
N12   H33   S    
N17   C49   S    
C31   C36   A    
N3    N8    S    
Cu1   N4    S    
C50   H58   S    
C1    O3    A    
C19   N18   S    
C20   N4    D    
C14   N1    S    
C48   H51   S    
