data_mof_unit_19104.cif
_audit_creation_date              2012-12-11T17:01:24-0500
_audit_creation_method            fapswitch 2.2
_symmetry_space_group_name_H-M    P1
_symmetry_Int_Tables_number       1
_space_group_crystal_system       triclinic
_cell_length_a                    19.424959
_cell_length_b                    7.09524
_cell_length_c                    17.586901
_cell_angle_alpha                 89.999828
_cell_angle_beta                  108.686828
_cell_angle_gamma                 89.999607
_cell_volume                      2296.13121954

loop_
_atom_site_label
_atom_site_type_symbol
_atom_type_description
_atom_site_fract_x
_atom_site_fract_y
_atom_site_fract_z
_atom_type_partial_charge
O1    O     O_R   0.413720 0.494330 0.415730 -0.535308
O2    O     O_R   0.586280 0.994330 0.584270 -0.535308
O3    O     O_R   0.560210 0.819300 0.430070 -0.545718
O4    O     O_R   0.439790 0.319300 0.569930 -0.545717
C1    C     C_R   0.584088 0.655356 0.417527 0.724680
C2    C     C_R   0.415915 0.155356 0.582475 0.724695
O5    O     O_R   0.412670 0.823730 0.406310 -0.544117
O6    O     O_R   0.587330 0.323730 0.593690 -0.544123
O7    O     O_R   0.437690 0.998790 0.560340 -0.532824
O8    O     O_R   0.562310 0.498790 0.439660 -0.532835
C3    C     C_R   0.385390 0.655253 0.383413 0.700600
C4    C     C_R   0.614610 0.155252 0.616587 0.700583
O9    O     O_3   0.508380 0.662350 0.550560 -0.374035
O10   O     O_3   0.491620 0.162350 0.449440 -0.374038
V1    V     V_3+5 0.498450 0.935370 0.490620 1.385407
V2    V     V_3+5 0.501550 0.435370 0.509380 1.385404
C5    C     C_R   0.696574 0.997729 0.741280 0.058931
C6    C     C_R   0.303428 0.497730 0.258721 0.058930
C7    C     C_R   0.681979 0.147583 0.686548 -0.102616
C8    C     C_R   0.318021 0.647585 0.313451 -0.102619
C9    C     C_R   0.732893 0.296163 0.702840 -0.177241
C10   C     C_R   0.267105 0.796164 0.297159 -0.177239
H1    H     H_    0.723523 0.417617 0.663688 0.123815
H2    H     H_    0.276475 0.917619 0.336310 0.123818
C11   C     C_R   0.798892 0.283714 0.766803 -0.181259
C12   C     C_R   0.201106 0.783713 0.233196 -0.181255
H3    H     H_    0.838070 0.396614 0.775161 0.134413
H4    H     H_    0.161928 0.896613 0.224838 0.134414
C13   C     C_R   0.815668 0.123085 0.816766 -0.133521
C14   C     C_R   0.184332 0.623083 0.183235 -0.133520
C15   C     C_R   0.761181 0.986508 0.804934 0.105692
C16   C     C_R   0.238819 0.486507 0.195067 0.105690
C17   C     C_3   0.763610 0.776747 0.799131 -0.036226
C18   C     C_3   0.236393 0.276746 0.200872 -0.036226
C19   C     C_3   0.692767 0.789508 0.728885 -0.388224
C20   C     C_3   0.307237 0.289510 0.271117 -0.388220
H5    H     H_    0.810576 0.726381 0.781587 0.141213
H6    H     H_    0.189428 0.226380 0.218418 0.141213
H7    H     H_    0.644730 0.726621 0.740681 0.179217
H8    H     H_    0.355273 0.226623 0.259321 0.179217
C21   C     C_R   0.311955 0.995314 0.617506 0.111327
C22   C     C_R   0.688035 0.495278 0.382479 0.111292
C23   C     C_R   0.362809 0.146055 0.627720 -0.094793
C24   C     C_R   0.637195 0.646054 0.372284 -0.094815
C25   C     C_R   0.362779 0.292540 0.681631 -0.268015
C26   C     C_R   0.637238 0.792567 0.318389 -0.268012
C27   C     C_R   0.315625 0.289778 0.727372 0.089716
C28   C     C_R   0.684388 0.789801 0.272643 0.089711
C29   C     C_R   0.269313 0.134066 0.722295 0.014693
C30   C     C_R   0.730688 0.634068 0.277706 0.014703
C31   C     C_R   0.268520 0.983796 0.668964 0.082392
C32   C     C_R   0.731470 0.483771 0.331022 0.082388
C33   C     C_R   0.314781 0.439984 0.779091 -0.172215
C34   C     C_R   0.685237 0.940019 0.220932 -0.172237
C35   C     C_R   0.267998 0.437156 0.825182 -0.192187
C36   C     C_R   0.732019 0.937190 0.174839 -0.192204
C37   C     C_R   0.221882 0.282872 0.821262 0.091862
C38   C     C_R   0.778128 0.782894 0.178749 0.091856
C39   C     C_R   0.223067 0.129774 0.770316 0.065559
C40   C     C_R   0.776933 0.629776 0.229684 0.065567
C41   C     C_R   0.177914 0.972608 0.767277 0.091578
C42   C     C_R   0.822074 0.472587 0.232707 0.091574
C43   C     C_R   0.179247 0.821259 0.716843 -0.195743
C44   C     C_R   0.820732 0.321218 0.283129 -0.195753
C45   C     C_R   0.223836 0.826302 0.668482 -0.184194
C46   C     C_R   0.776143 0.326259 0.331491 -0.184203
C47   C     C_R   0.174796 0.278735 0.867547 -0.222352
C48   C     C_R   0.825214 0.778758 0.132465 -0.222359
C49   C     C_R   0.129855 0.121551 0.864921 -0.079405
C50   C     C_R   0.870144 0.621551 0.135078 -0.079402
C51   C     C_R   0.132282 0.968611 0.814928 -0.220181
C52   C     C_R   0.867704 0.468588 0.185056 -0.220183
H9    H     H_    0.399965 0.410011 0.688246 0.138314
H10   H     H_    0.600064 0.910061 0.311787 0.138312
H11   H     H_    0.097874 0.846786 0.812219 0.130142
H12   H     H_    0.902101 0.346741 0.187751 0.130145
H13   H     H_    0.145698 0.698055 0.714771 0.134442
H14   H     H_    0.854274 0.198002 0.285192 0.134451
H15   H     H_    0.223766 0.703375 0.632124 0.145685
H16   H     H_    0.776207 0.203320 0.367841 0.145690
O11   O     O_R   0.937800 0.775460 0.060470 -0.539283
O12   O     O_R   0.062200 0.275460 0.939530 -0.539280
O13   O     O_R   0.087350 0.441340 0.093710 -0.541943
O14   O     O_R   0.912650 0.941340 0.906290 -0.541944
C53   C     C_R   0.114749 0.610267 0.116399 0.698906
C54   C     C_R   0.885251 0.110268 0.883601 0.698903
O15   O     O_R   0.939820 0.446010 0.069950 -0.542393
O16   O     O_R   0.060180 0.946010 0.930050 -0.542391
O17   O     O_R   0.913690 0.271230 0.915700 -0.535567
O18   O     O_R   0.086310 0.771230 0.084300 -0.535567
C55   C     C_R   0.918742 0.614343 0.085006 0.698828
C56   C     C_R   0.081258 0.114343 0.914994 0.698826
O19   O     O_3   0.991670 0.603050 0.949510 -0.373702
O20   O     O_3   0.008330 0.103050 0.050490 -0.373704
V3    V     V_3+5 0.001550 0.329940 0.009370 1.389038
V4    V     V_3+5 0.998450 0.829940 0.990630 1.389039
H17   H     H_    0.267965 0.555759 0.863997 0.132310
H18   H     H_    0.732055 0.055797 0.136028 0.132321
H19   H     H_    0.174036 0.396491 0.906565 0.127672
H20   H     H_    0.825983 0.896532 0.093459 0.127674
C57   C     C_3   0.755634 0.679078 0.873497 -0.736992
H21   H     H_    0.710954 0.742629 0.891652 0.206050
H22   H     H_    0.743697 0.527302 0.860824 0.219465
H23   H     H_    0.807106 0.692071 0.924129 0.210680
C58   C     C_3   0.244368 0.179074 0.126507 -0.737003
H24   H     H_    0.289042 0.242636 0.108344 0.206050
H25   H     H_    0.256314 0.027303 0.139183 0.219468
H26   H     H_    0.192893 0.192048 0.075877 0.210681
H27   H     H_    0.699157 0.749340 0.670427 0.147321
H28   H     H_    0.300848 0.249341 0.329576 0.147323
C59   C     C_3   0.299417 0.857155 0.548409 -0.762312
H29   H     H_    0.312683 0.919426 0.497025 0.199597
H30   H     H_    0.331796 0.727169 0.569223 0.211447
H31   H     H_    0.241035 0.820506 0.522527 0.189871
C60   C     C_3   0.700552 0.357039 0.451550 -0.762147
H32   H     H_    0.687286 0.419279 0.502944 0.199607
H33   H     H_    0.668149 0.227078 0.430699 0.211423
H34   H     H_    0.758945 0.320330 0.477438 0.189826
H35   H     H_    0.349987 0.560774 0.783434 0.131496
H36   H     H_    0.650037 0.060811 0.216596 0.131511

loop_
_geom_bond_atom_site_label_1
_geom_bond_atom_site_label_2
_ccdc_geom_bond_type
C51   H11   S    
C43   C45   A    
O4    V2    S    
C57   H21   S    
C45   H15   S    
C34   H36   S    
C19   H7    S    
C59   H29   S    
O1    C3    A    
C36   H18   S    
C52   H12   S    
O2    C4    A    
C2    O7    A    
O16   V4    S    
C32   C46   A    
C27   C29   A    
C28   C34   A    
C58   H25   S    
C17   C57   S    
C25   H9    S    
O19   V4    S    
C7    C9    A    
O14   C54   A    
O15   C55   A    
C31   C45   A    
C37   C39   A    
C38   C40   A    
C60   H32   S    
O12   C56   A    
C40   C42   A    
O14   V4    S    
C25   C27   A    
C49   C51   A    
C42   C44   A    
C17   C19   S    
C50   C55   S    
C29   C31   A    
O15   V3    S    
C30   C32   A    
C15   C17   S    
C49   C56   S    
C18   C20   S    
C19   H27   S    
C47   H19   S    
C27   C33   A    
C41   C51   A    
C28   C30   A    
O6    V2    S    
C21   C23   A    
C22   C24   A    
C37   C47   A    
C24   C26   A    
C26   C28   A    
C33   C35   A    
C11   C13   A    
C58   H26   S    
C34   C36   A    
C3    C8    S    
C39   C41   A    
O16   C56   A    
C20   H8    S    
O4    C2    A    
O11   V4    S    
C60   H33   S    
C16   C18   S    
C17   H5    S    
C47   C49   A    
C44   C46   A    
O17   V3    S    
O5    C3    A    
C48   H20   S    
O6    C4    A    
C60   H34   S    
O13   V3    S    
C35   H17   S    
C41   C43   A    
C42   C52   A    
C59   H30   S    
O1    V2    S    
C14   C53   S    
O20   V4    S    
O2    V1    S    
C23   C25   A    
C13   C54   S    
C38   C48   A    
O13   C53   A    
C1    C24   S    
C8    C10   A    
C12   C14   A    
C57   H23   S    
C2    C23   S    
C35   C37   A    
C20   H28   S    
C5    C15   A    
C10   H2    S    
C6    C16   A    
C26   H10   S    
O3    V1    S    
C43   H13   S    
C9    C11   A    
O12   V3    S    
C18   H6    S    
C18   C58   S    
C44   H14   S    
O3    C1    A    
C54   O17   A    
C53   O18   A    
C33   H35   S    
O18   V4    S    
C11   H3    S    
C46   H16   S    
C58   H24   S    
C12   H4    S    
C29   C39   A    
C30   C40   A    
C9    H1    S    
O7    V1    S    
C1    O8    A    
C13   C15   A    
O8    V2    S    
C14   C16   A    
O19   V3    S    
C4    C7    S    
O5    V1    S    
C5    C7    A    
C36   C38   A    
C59   H31   S    
C6    C8    A    
O20   V3    S    
C10   C12   A    
O11   C55   A    
C22   C60   S    
C57   H22   S    
C21   C59   S    
O9    V2    S    
C48   C50   A    
O10   V1    S    
C50   C52   A    
C5    C19   S    
C6    C20   S    
C21   C31   A    
C22   C32   A    
