data_mof_unit_12100.cif
_audit_creation_date              2012-12-10T18:05:43-0500
_audit_creation_method            fapswitch 2.2
_symmetry_space_group_name_H-M    P1
_symmetry_Int_Tables_number       1
_space_group_crystal_system       triclinic
_cell_length_a                    10.838812
_cell_length_b                    10.827838
_cell_length_c                    9.51984
_cell_angle_alpha                 91.246022
_cell_angle_beta                  90.648817
_cell_angle_gamma                 89.47345
_cell_volume                      1116.8764918

loop_
_atom_site_label
_atom_site_type_symbol
_atom_type_description
_atom_site_fract_x
_atom_site_fract_y
_atom_site_fract_z
_atom_type_partial_charge
C1    C     C_R   0.499404 0.262034 0.498334 0.841109
C2    C     C_R   0.497024 0.737713 0.501189 0.854159
C3    C     C_R   0.871900 0.498324 0.502107 -0.074371
C4    C     C_R   0.128481 0.507096 0.498802 -0.084991
C5    C     C_R   0.941128 0.450207 0.615227 -0.000559
C6    C     C_R   0.059927 0.558796 0.387475 0.003915
C7    C     C_R   0.541660 0.058446 0.380214 0.446400
C8    C     C_R   0.431204 0.939831 0.605673 0.462419
C9    C     C_R   0.549094 0.930873 0.389884 -0.366887
C10   C     C_R   0.440301 0.068453 0.606929 -0.369436
C11   C     C_R   0.494780 0.871370 0.502017 -0.175269
C12   C     C_R   0.495764 0.128029 0.495174 -0.179334
C13   C     C_R   0.414587 0.434070 0.071695 -0.001363
C14   C     C_R   0.584667 0.566915 0.928338 0.008065
C15   C     C_R   0.414848 0.433766 0.922879 -0.041273
C16   C     C_R   0.584748 0.566764 0.077116 -0.023679
C17   C     C_R   0.262328 0.503394 0.499370 0.781694
C18   C     C_R   0.737878 0.497916 0.500781 0.791120
C19   C     C_R   0.253167 0.791859 0.202237 -0.120283
C20   C     C_R   0.812813 0.197872 0.835827 -0.138114
C21   C     C_R   0.185473 0.734559 0.305778 -0.119432
C22   C     C_R   0.846795 0.264329 0.718389 -0.125416
C23   C     C_R   0.119694 0.626333 0.273742 0.132861
C24   C     C_R   0.886433 0.386793 0.734819 0.144202
C25   C     C_R   0.119574 0.578086 0.135803 -0.170207
C26   C     C_R   0.888327 0.443180 0.869038 -0.168340
C27   C     C_R   0.187124 0.635987 0.032104 -0.150957
C28   C     C_R   0.852429 0.376970 0.985917 -0.152843
C29   C     C_R   0.255561 0.741683 0.065927 -0.104999
C30   C     C_R   0.817160 0.253733 0.969667 -0.115907
C31   C     C_R   0.931971 0.552003 0.389105 -0.248657
C32   C     C_R   0.068659 0.455228 0.611985 -0.255103
Cu1   Cu    Cu3+1 0.500000 0.500020 0.640660 0.960770
Cu2   Cu    Cu3+1 0.500000 0.499980 0.359340 0.959960
H1    H     H_    0.310346 0.784790 0.986604 0.168566
H2    H     H_    0.793185 0.201612 0.060988 0.166108
H3    H     H_    0.346911 0.380161 0.864780 0.112316
H4    H     H_    0.652640 0.620403 0.135248 0.110834
H5    H     H_    0.304898 0.874100 0.228618 0.107087
H6    H     H_    0.785238 0.102427 0.823227 0.127821
H7    H     H_    0.187024 0.772226 0.411783 0.109877
H8    H     H_    0.846474 0.219246 0.615667 0.113976
H9    H     H_    0.071290 0.493491 0.110060 0.122023
H10   H     H_    0.919766 0.537372 0.883205 0.122119
H11   H     H_    0.188509 0.597412 0.926260 0.143498
H12   H     H_    0.854070 0.420370 0.089423 0.136183
H13   H     H_    0.879105 0.592544 0.304067 0.144246
H14   H     H_    0.121675 0.414905 0.697148 0.148500
H15   H     H_    0.592852 0.878192 0.305744 0.180544
H16   H     H_    0.396912 0.121907 0.690482 0.161907
H17   H     H_    0.346346 0.380957 0.125487 0.116395
H18   H     H_    0.652450 0.620623 0.874528 0.118057
N1    N     N_R   0.500030 0.500030 0.852070 -0.153241
N2    N     N_R   0.499970 0.499970 0.147930 -0.151667
O1    O     O_R   0.499990 0.319660 0.618740 -0.585469
O2    O     O_R   0.500010 0.680340 0.381260 -0.593987
O3    O     O_R   0.499990 0.319630 0.381170 -0.550383
O4    O     O_R   0.500010 0.680370 0.618830 -0.546471
O5    O     O_R   0.319650 0.500020 0.618780 -0.596598
O6    O     O_R   0.680350 0.499980 0.381220 -0.590912
O7    O     O_R   0.319640 0.500000 0.381210 -0.576253
O8    O     O_R   0.680360 0.500000 0.618790 -0.580649
O9    O     O_3   0.580316 0.113619 0.258792 -0.569746
C33   C     C_3   0.486287 0.097790 0.155527 0.067285
H19   H     H_    0.403228 0.153592 0.184505 0.137646
H20   H     H_    0.459520 0.999252 0.141319 0.131211
C34   C     C_3   0.531507 0.139525 0.014250 -0.771154
H21   H     H_    0.604933 0.075622 0.975939 0.235021
H22   H     H_    0.453977 0.138509 0.937167 0.194745
H23   H     H_    0.568111 0.234509 0.023834 0.264335
O10   O     O_3   0.354632 0.880896 0.698530 -0.576734
C35   C     C_3   0.231360 0.923095 0.678421 0.043035
H24   H     H_    0.210722 0.947519 0.567102 0.124251
H25   H     H_    0.213921 0.006116 0.746371 0.147498
C36   C     C_3   0.141096 0.822869 0.717262 -0.812729
H26   H     H_    0.132350 0.819555 0.832716 0.238385
H27   H     H_    0.048423 0.843807 0.672317 0.202937
H28   H     H_    0.172575 0.731527 0.675625 0.260335

loop_
_geom_bond_atom_site_label_1
_geom_bond_atom_site_label_2
_ccdc_geom_bond_type
Cu1   O1    S    
Cu2   O2    S    
Cu1   O4    S    
C27   C29   A    
C35   H25   S    
C25   H9    S    
C26   H10   S    
C20   C30   A    
C28   H12   S    
C15   N1    A    
C19   C21   A    
C24   C26   A    
C20   H6    S    
C3    C18   S    
C15   H3    S    
C17   O7    A    
C13   H17   S    
C14   H18   S    
Cu1   O8    S    
Cu2   O3    S    
C5    C32   A    
C27   H11   S    
C6    C31   A    
Cu1   O5    S    
C31   H13   S    
Cu2   O6    S    
C32   H14   S    
C1    C12   S    
C35   C36   S    
C2    C11   S    
C21   C23   A    
Cu1   N1    S    
C7    C12   A    
C34   H21   S    
C33   C34   S    
C9    H15   S    
C4    C6    A    
C18   O8    A    
Cu2   O7    S    
C34   H22   S    
C33   H20   S    
C36   H26   S    
C1    O3    A    
C9    C11   A    
Cu1   Cu2   S    
C3    C31   A    
C36   H27   S    
C7    O9    S    
C4    C32   A    
C10   C12   A    
C17   O5    A    
C21   H7    S    
C4    C17   S    
C18   O6    A    
C20   C22   A    
Cu2   N2    S    
C13   C15   A    
C22   C24   A    
C10   H16   S    
C13   N2    A    
C7    C9    A    
C8    O10   S    
C8    C10   A    
C35   H24   S    
C3    C5    A    
C2    O4    A    
C25   C27   A    
C29   H1    S    
C26   C28   A    
C30   H2    S    
C34   H23   S    
C33   H19   S    
C28   C30   A    
C1    O1    A    
O10   C35   S    
C2    O2    A    
C22   H8    S    
C5    C24   S    
C8    C11   A    
C6    C23   S    
C14   C16   A    
C23   C25   A    
C36   H28   S    
C16   N2    A    
O9    C33   S    
C14   N1    A    
C19   H5    S    
C16   H4    S    
C19   C29   A    
