data_mof_unit_28931.cif
_audit_creation_date              2012-12-11T15:57:52-0500
_audit_creation_method            fapswitch 2.2
_symmetry_space_group_name_H-M    P1
_symmetry_Int_Tables_number       1
_space_group_crystal_system       triclinic
_cell_length_a                    10.686952
_cell_length_b                    10.801323
_cell_length_c                    17.01363
_cell_angle_alpha                 99.803295
_cell_angle_beta                  99.939447
_cell_angle_gamma                 61.25273
_cell_volume                      1687.35936546

loop_
_atom_site_label
_atom_site_type_symbol
_atom_type_description
_atom_site_fract_x
_atom_site_fract_y
_atom_site_fract_z
_atom_type_partial_charge
C1    C     C_R   0.387651 0.694379 0.389956 0.568860
C2    C     C_2   0.340242 0.352030 0.835631 -0.104947
C3    C     C_2   0.448926 0.274951 0.790175 -0.021757
C4    C     C_R   0.368823 0.346221 0.357295 0.543611
C5    C     C_2   0.433098 0.330031 0.715827 -0.105907
C6    C     C_1   0.818880 0.342217 0.708558 -0.056721
C7    C     C_1   0.845863 0.313427 0.776142 -0.055579
C8    C     C_1   0.359206 0.763523 0.713667 -0.052772
C9    C     C_1   0.326129 0.810975 0.780463 -0.051235
C10   C     C_R   0.892892 0.308748 0.086124 0.546991
C11   C     C_R   0.319373 0.299546 0.119779 0.565567
C12   C     C_2   0.823419 0.335085 0.157380 -0.113156
C13   C     C_R   0.292938 0.894181 0.085368 0.524728
C14   C     C_R   0.886252 0.296723 0.858459 0.547197
C15   C     C_R   0.309381 0.294304 0.895788 0.549243
C16   C     C_R   0.774679 0.377639 0.404071 0.539595
C17   C     C_R   0.280579 0.880880 0.857144 0.549980
C18   C     C_R   0.381917 0.713707 0.631494 0.555356
C19   C     C_R   0.365656 0.345399 0.579472 0.548797
C20   C     C_R   0.773567 0.381178 0.629568 0.537090
C21   C     C_1   0.342397 0.335755 0.273942 -0.033013
C22   C     C_1   0.331662 0.325819 0.203074 -0.003574
C23   C     C_2   0.837780 0.225512 0.191629 -0.160752
C24   C     C_2   0.840450 0.332231 0.329807 -0.104526
C25   C     C_3   0.214813 0.293025 0.656569 -0.288259
C26   C     C_3   0.269039 0.134131 0.657692 -0.407486
C27   C     C_3   0.576615 0.130825 0.807623 -0.243535
C28   C     C_3   0.684687 0.064618 0.745203 -0.424375
C29   C     C_2   0.810998 0.242342 0.274593 -0.141840
C30   C     C_2   0.392108 0.688232 0.303181 0.273203
C31   C     C_2   0.327473 0.853617 0.166990 0.298546
C32   C     C_2   0.459052 0.755498 0.192974 -0.054066
C33   C     C_2   0.486497 0.714782 0.275260 -0.055579
C34   C     C_2   0.335494 0.328221 0.654344 0.020498
Cr1   Cr    Cr6+3 0.608020 0.610770 0.522990 1.014836
Cr2   Cr    Cr6+3 0.289390 0.599570 0.488050 1.020253
Cr3   Cr    Cr6+3 0.602610 0.289690 0.489020 1.017440
Cr4   Cr    Cr6+3 0.053780 0.052210 0.965970 1.021382
Cr5   Cr    Cr6+3 0.060060 0.372530 0.992430 1.041984
Cr6   Cr    Cr6+3 0.372600 0.061970 0.991430 1.018880
H1    H     H_    0.874839 0.119957 0.159778 0.163183
H2    H     H_    0.332041 0.097970 0.715599 0.160012
H3    H     H_    0.176120 0.112005 0.650121 0.154463
H4    H     H_    0.153153 0.353223 0.708459 0.150225
H5    H     H_    0.137707 0.326967 0.601989 0.149457
H6    H     H_    0.139140 0.003007 0.194315 0.327395
H7    H     H_    0.234057 0.640487 0.277518 0.338045
H8    H     H_    0.632327 0.044099 0.685699 0.173161
H9    H     H_    0.730671 0.134986 0.740226 0.163907
H10   H     H_    0.773789 0.961958 0.763543 0.146965
H11   H     H_    0.634394 0.143002 0.866963 0.167057
H12   H     H_    0.517407 0.354356 0.707343 0.123566
H13   H     H_    0.538314 0.052315 0.808926 0.177691
H14   H     H_    0.257884 0.456438 0.819626 0.099222
H15   H     H_    0.761564 0.182803 0.289156 0.170826
H16   H     H_    0.779836 0.441621 0.188382 0.104797
H17   H     H_    0.893676 0.388305 0.315369 0.109888
H18   H     H_    0.546283 0.708851 0.155232 0.064742
H19   H     H_    0.574309 0.723007 0.314549 0.097991
H20   H     H_    0.336476 0.072931 0.607954 0.179700
O1    O     O_R   0.749250 0.499990 0.439200 -0.527712
O2    O     O_R   0.411120 0.181190 0.091480 -0.514401
O3    O     O_R   0.364220 0.944920 0.062310 -0.515520
O4    O     O_R   0.477870 0.725740 0.440280 -0.507024
O5    O     O_R   0.158740 0.906940 0.874970 -0.504374
O6    O     O_R   0.930920 0.176940 0.885610 -0.500761
O7    O     O_R   0.910730 0.394510 0.895320 -0.506767
O8    O     O_R   0.185840 0.361180 0.920280 -0.495781
O9    O     O_R   0.399210 0.173040 0.915160 -0.528671
O10   O     O_R   0.353170 0.937370 0.898860 -0.500104
O11   O     O_3   0.162150 0.162240 0.983280 -0.254176
O12   O     O_R   0.299400 0.468710 0.556310 -0.512271
O13   O     O_R   0.260770 0.742210 0.412610 -0.491542
O14   O     O_R   0.297990 0.466320 0.394220 -0.532039
O15   O     O_R   0.487720 0.253870 0.385870 -0.503452
O16   O     O_R   0.721940 0.304340 0.422320 -0.494607
O17   O     O_R   0.750770 0.502570 0.614050 -0.510087
O18   O     O_R   0.479280 0.728140 0.602370 -0.487578
O19   O     O_R   0.262290 0.744790 0.587460 -0.496077
O20   O     O_3   0.224072 0.925024 0.220288 -0.659367
O21   O     O_3   0.294696 0.659491 0.248450 -0.677114
O22   O     O_R   0.489240 0.256450 0.560730 -0.512763
O23   O     O_R   0.723350 0.306730 0.584410 -0.499306
O24   O     O_3   0.500010 0.500010 0.500020 -0.303766
O25   O     O_R   0.170650 0.915100 0.051290 -0.509594
O26   O     O_R   0.941960 0.184500 0.049060 -0.505360
O27   O     O_R   0.922640 0.402670 0.071640 -0.509085
O28   O     O_R   0.196880 0.368740 0.083740 -0.487955

loop_
_geom_bond_atom_site_label_1
_geom_bond_atom_site_label_2
_ccdc_geom_bond_type
Cr6   O11   S    
Cr5   O8    S    
Cr5   O27   S    
C11   O2    A    
C31   O20   S    
C12   C23   D    
Cr6   O3    S    
Cr6   O10   S    
C20   O17   A    
Cr4   O26   S    
C23   C29   S    
Cr6   O2    S    
C24   C29   D    
C4    O15   A    
C28   H10   S    
C7    C14   S    
C28   H8    S    
Cr4   O6    S    
C8    C9    T    
C14   O7    A    
C5    H12   S    
Cr1   O4    S    
C32   H18   S    
C19   O22   A    
C4    O14   A    
C25   C34   S    
Cr3   O15   S    
C17   O10   A    
C33   H19   S    
C21   C22   T    
C19   O12   A    
C18   O19   A    
Cr5   O28   S    
C10   C12   S    
C25   H4    S    
C27   H11   S    
C26   H3    S    
C15   O9    A    
C10   O27   A    
Cr6   O9    S    
Cr4   O25   S    
Cr1   O1    S    
C2    H14   S    
C24   H17   S    
C29   H15   S    
C25   C26   S    
Cr2   O19   S    
C8    C18   S    
C28   H9    S    
C31   C32   D    
C13   O3    A    
Cr4   O5    S    
C11   O28   A    
C18   O18   A    
C5    C34   D    
C14   O6    A    
Cr3   O24   S    
C2    C15   S    
C12   H16   S    
Cr2   O14   S    
C9    C17   S    
Cr3   O16   S    
Cr3   O22   S    
C16   O1    A    
C1    O4    A    
C25   H5    S    
C26   H2    S    
Cr4   O11   S    
C10   O26   A    
C11   C22   S    
C30   C33   D    
C16   O16   A    
Cr5   O7    S    
C13   C31   S    
C3    C5    S    
C19   C34   S    
Cr1   O24   S    
C27   H13   S    
C6    C7    T    
C6    C20   S    
Cr1   O18   S    
C17   O5    A    
C23   H1    S    
C1    O13   A    
C32   C33   S    
C30   O21   S    
C3    C27   S    
C2    C3    D    
H6    O20   S    
C4    C21   S    
Cr2   O24   S    
C15   O8    A    
C1    C30   S    
Cr1   O17   S    
H7    O21   S    
Cr2   O13   S    
C16   C24   S    
C20   O23   A    
C13   O25   A    
C27   C28   S    
Cr5   O11   S    
Cr3   O23   S    
C26   H20   S    
Cr2   O12   S    
