data_mof_unit_12438.cif
_audit_creation_date              2012-12-10T16:48:48-0500
_audit_creation_method            fapswitch 2.2
_symmetry_space_group_name_H-M    P1
_symmetry_Int_Tables_number       1
_space_group_crystal_system       triclinic
_cell_length_a                    17.339588
_cell_length_b                    8.6912
_cell_length_c                    7.416157
_cell_angle_alpha                 103.04988
_cell_angle_beta                  89.255229
_cell_angle_gamma                 93.002428
_cell_volume                      1087.26906539

loop_
_atom_site_label
_atom_site_type_symbol
_atom_type_description
_atom_site_fract_x
_atom_site_fract_y
_atom_site_fract_z
_atom_type_partial_charge
C1    C     C_R   0.497660 0.199658 0.453540 0.888355
C2    C     C_R   0.502340 0.800342 0.546460 0.888357
C3    C     C_2   0.496512 0.031792 0.427329 -0.372871
C4    C     C_2   0.503488 0.968208 0.572671 -0.372871
C5    C     C_R   0.350942 0.501161 0.528254 0.796180
C6    C     C_R   0.649057 0.498838 0.471746 0.796179
C7    C     C_R   0.266394 0.494245 0.548594 -0.042989
C8    C     C_R   0.733606 0.505753 0.451406 -0.042990
C9    C     C_R   0.222692 0.436389 0.387020 -0.245995
C10   C     C_R   0.777309 0.563614 0.612978 -0.245992
C11   C     C_R   0.142941 0.429454 0.393295 -0.157560
C12   C     C_R   0.857060 0.570552 0.606703 -0.157560
C13   C     C_R   0.104754 0.481966 0.561358 0.146426
C14   C     C_R   0.895246 0.518038 0.438639 0.146426
C15   C     C_R   0.147025 0.533975 0.724757 -0.162505
C16   C     C_R   0.852975 0.466022 0.275242 -0.162506
C17   C     C_R   0.227906 0.541900 0.721380 0.153112
C18   C     C_R   0.772094 0.458093 0.278620 0.153112
C19   C     C_2   0.020509 0.485043 0.569527 -0.214943
C20   C     C_2   0.979492 0.514964 0.430471 -0.214943
Cu1   Cu    Cu3+1 0.508700 0.517250 0.683000 0.942744
Cu2   Cu    Cu3+1 0.491300 0.482750 0.317000 0.942744
H1    H     H_    0.250119 0.395506 0.253921 0.165728
H2    H     H_    0.749882 0.604498 0.746077 0.165726
H3    H     H_    0.007798 0.532885 0.304794 0.141185
H4    H     H_    0.992203 0.467122 0.695203 0.141186
H5    H     H_    0.116570 0.572170 0.854533 0.121117
H6    H     H_    0.883430 0.427825 0.145465 0.121117
H7    H     H_    0.888598 0.617807 0.733845 0.133612
H8    H     H_    0.111403 0.382201 0.266153 0.133611
H9    H     H_    0.489913 0.960174 0.287254 0.178588
H10   H     H_    0.510087 0.039825 0.712746 0.178588
H11   H     H_    0.439599 0.379501 0.958306 0.221499
H12   H     H_    0.560401 0.620498 0.041693 0.221500
N1    N     N_2   0.478180 0.456750 0.041980 -0.219645
N2    N     N_2   0.521820 0.543250 0.958020 -0.219645
O1    O     O_R   0.505650 0.286040 0.618880 -0.581842
O2    O     O_R   0.494350 0.713960 0.381120 -0.581842
O3    O     O_R   0.490960 0.256910 0.309800 -0.587661
O4    O     O_R   0.509040 0.743090 0.690200 -0.587660
O5    O     O_R   0.394600 0.516230 0.672450 -0.588122
O6    O     O_R   0.605400 0.483770 0.327550 -0.588122
O7    O     O_R   0.379910 0.487100 0.363380 -0.588545
O8    O     O_R   0.620090 0.512900 0.636620 -0.588545
C21   C     C_3   0.729832 0.395662 0.098162 -0.823698
H13   H     H_    0.691214 0.291900 0.108179 0.241529
H14   H     H_    0.695872 0.489895 0.063714 0.240077
H15   H     H_    0.770222 0.356680 0.981154 0.216224
C22   C     C_3   0.270167 0.604322 0.901842 -0.823701
H16   H     H_    0.308780 0.708093 0.891840 0.241530
H17   H     H_    0.229776 0.643282 0.018855 0.216223
H18   H     H_    0.304131 0.510088 0.936274 0.240077

loop_
_geom_bond_atom_site_label_1
_geom_bond_atom_site_label_2
_ccdc_geom_bond_type
C16   H6    S    
C2    C4    S    
C15   C17   A    
C2    O4    A    
C12   H7    S    
C4    H10   S    
Cu1   O8    S    
C11   C13   A    
C2    O2    A    
C15   H5    S    
C19   C20   D    
C1    O1    A    
C22   H18   S    
C22   H17   S    
C21   H14   S    
C5    O7    A    
Cu1   N2    S    
C6    O8    A    
C21   H13   S    
C3    H9    S    
Cu2   N1    S    
C9    C11   A    
Cu2   O6    S    
Cu1   O4    S    
C10   C12   A    
Cu1   O5    S    
Cu2   O3    S    
C8    C10   A    
H11   N1    S    
C12   C14   A    
H12   N2    S    
C13   C15   A    
C14   C16   A    
C20   H3    S    
C1    O3    A    
C3    C4    D    
Cu2   O2    S    
C18   C21   S    
C14   C20   S    
Cu1   O1    S    
C7    C9    A    
C22   H16   S    
C6    O6    A    
C21   H15   S    
C17   C22   S    
C5    C7    S    
C19   H4    S    
C5    O5    A    
C9    H1    S    
C13   C19   S    
C6    C8    S    
C10   H2    S    
Cu1   Cu2   S    
C16   C18   A    
C8    C18   A    
Cu2   O7    S    
C11   H8    S    
C1    C3    S    
N1    N2    D    
C7    C17   A    
