data_mof_unit_36166.cif
_audit_creation_date              2013-03-05T16:10:36-0500
_audit_creation_method            fapswitch 2.2
_symmetry_space_group_name_H-M    P1
_symmetry_Int_Tables_number       1
_space_group_crystal_system       triclinic
_cell_length_a                    14.752862
_cell_length_b                    15.846863
_cell_length_c                    9.531121
_cell_angle_alpha                 90.409219
_cell_angle_beta                  89.95274
_cell_angle_gamma                 90.021328
_cell_volume                      2228.19047029

loop_
_atom_site_label
_atom_site_type_symbol
_atom_site_description
_atom_site_fract_x
_atom_site_fract_y
_atom_site_fract_z
_atom_type_partial_charge
O1    O     O_R   0.091250 0.408820 0.620260 -0.585509
O2    O     O_R   0.091250 0.408820 0.379740 -0.588911
O3    O     O_R   0.091250 0.591180 0.620260 -0.606000
O4    O     O_R   0.091250 0.591180 0.379740 -0.607602
O5    O     O_R   0.591250 0.908820 0.620260 -0.606653
O6    O     O_R   0.591250 0.908820 0.379740 -0.606866
O7    O     O_R   0.591250 0.091180 0.620260 -0.590792
O8    O     O_R   0.591250 0.091180 0.379740 -0.579518
C1    C     C_R   0.121930 0.381578 0.500223 0.749255
C2    C     C_R   0.121034 0.619325 0.500069 0.700608
C3    C     C_R   0.620909 0.880544 0.499831 0.699829
C4    C     C_R   0.620004 0.120109 0.499910 0.743246
O9    O     O_R   0.908940 0.408800 0.620260 -0.587871
O10   O     O_R   0.908940 0.408800 0.379740 -0.584986
O11   O     O_R   0.908940 0.591200 0.620260 -0.571284
O12   O     O_R   0.908940 0.591200 0.379740 -0.573591
O13   O     O_R   0.408940 0.908800 0.620260 -0.573850
O14   O     O_R   0.408940 0.908800 0.379740 -0.571315
O15   O     O_R   0.408940 0.091200 0.620260 -0.586850
O16   O     O_R   0.408940 0.091200 0.379740 -0.585478
C5    C     C_R   0.878461 0.381700 0.499692 0.820831
C6    C     C_R   0.878383 0.618117 0.500286 0.821250
C7    C     C_R   0.378591 0.881699 0.499727 0.820933
C8    C     C_R   0.378004 0.117867 0.500389 0.817661
Cu1   Cu    Cu3+1 0.000100 0.500000 0.642410 0.934525
Cu2   Cu    Cu3+1 0.000100 0.500000 0.357590 0.932065
Cu3   Cu    Cu3+1 0.500100 0.000000 0.642410 0.932640
Cu4   Cu    Cu3+1 0.500100 0.000000 0.357590 0.935606
C9    C     C_3   0.830467 0.249681 0.616891 -0.300006
C10   C     C_3   0.811960 0.264885 0.357309 -0.350451
C11   C     C_3   0.810723 0.733437 0.644324 -0.346343
C12   C     C_3   0.833091 0.751438 0.384387 -0.339882
C13   C     C_3   0.337696 0.744908 0.607369 -0.337259
C14   C     C_3   0.305723 0.770674 0.351967 -0.343997
C15   C     C_3   0.315939 0.237865 0.640018 -0.333263
C16   C     C_3   0.328689 0.247383 0.378639 -0.327777
H1    H     H_    0.833213 0.282919 0.719169 0.168295
H2    H     H_    0.793156 0.308322 0.271355 0.167759
H3    H     H_    0.788425 0.689747 0.728399 0.200681
H4    H     H_    0.842344 0.719349 0.281103 0.169378
H5    H     H_    0.349236 0.773838 0.712631 0.167077
H6    H     H_    0.279803 0.816763 0.274432 0.204567
H7    H     H_    0.302557 0.195539 0.729716 0.157545
H8    H     H_    0.324592 0.212443 0.277785 0.154691
H9    H     H_    0.898159 0.220700 0.597122 0.221289
H10   H     H_    0.882413 0.243063 0.337110 0.208029
H11   H     H_    0.881376 0.752158 0.671603 0.187470
H12   H     H_    0.898688 0.782691 0.410635 0.195481
H13   H     H_    0.403240 0.716167 0.573690 0.193439
H14   H     H_    0.375179 0.753888 0.315898 0.195981
H15   H     H_    0.386409 0.261902 0.650290 0.216928
H16   H     H_    0.399031 0.272207 0.388862 0.223992
C17   C     C_3   0.262267 0.677768 0.621357 -0.173058
C18   C     C_3   0.241099 0.694075 0.353589 -0.140335
C19   C     C_3   0.244391 0.308775 0.646142 -0.149808
C20   C     C_3   0.258129 0.318550 0.373896 -0.163468
C21   C     C_3   0.755483 0.182634 0.627870 -0.181872
C22   C     C_3   0.743941 0.191167 0.356531 -0.152559
C23   C     C_3   0.745746 0.809627 0.641875 -0.142662
C24   C     C_3   0.755925 0.816307 0.369252 -0.150068
H17   H     H_    0.226411 0.689147 0.722744 0.143106
H18   H     H_    0.189016 0.705668 0.271335 0.119258
H19   H     H_    0.194268 0.289859 0.727550 0.157208
H20   H     H_    0.216683 0.307876 0.277788 0.160606
H21   H     H_    0.715449 0.196689 0.724213 0.194455
H22   H     H_    0.694517 0.204392 0.271234 0.166248
H23   H     H_    0.696262 0.800173 0.728789 0.117001
H24   H     H_    0.715758 0.798729 0.274355 0.144393
H25   H     H_    0.707838 0.380127 0.625378 0.204072
H26   H     H_    0.697320 0.396977 0.440230 0.215406
H27   H     H_    0.696513 0.602253 0.552990 0.215718
H28   H     H_    0.708691 0.623059 0.369269 0.218025
H29   H     H_    0.214479 0.872318 0.645102 0.218343
H30   H     H_    0.195326 0.898531 0.464727 0.209516
H31   H     H_    0.196816 0.107846 0.572976 0.219242
H32   H     H_    0.205528 0.116097 0.385886 0.205730
H33   H     H_    0.102681 0.772382 0.623465 0.181330
H34   H     H_    0.095773 0.787559 0.437971 0.187177
H35   H     H_    0.094542 0.216612 0.576619 0.224025
H36   H     H_    0.101134 0.222921 0.391738 0.236286
H37   H     H_    0.597055 0.278913 0.604895 0.232057
H38   H     H_    0.597167 0.286849 0.419542 0.225268
H39   H     H_    0.598247 0.714309 0.580969 0.189785
H40   H     H_    0.596843 0.723184 0.394132 0.183176
C25   C     C_3   0.712566 0.348635 0.520923 -0.369589
C26   C     C_3   0.712783 0.652196 0.475534 -0.343241
C27   C     C_3   0.214486 0.846388 0.536413 -0.340537
C28   C     C_3   0.211962 0.152135 0.486012 -0.373052
C29   C     C_3   0.809404 0.312987 0.498844 0.022054
C30   C     C_3   0.809873 0.687045 0.500851 0.047063
C31   C     C_3   0.310250 0.812626 0.499081 0.042874
C32   C     C_3   0.309488 0.187046 0.501354 0.030505
C33   C     C_3   0.191573 0.687963 0.499603 -0.000260
C34   C     C_3   0.191940 0.312847 0.502384 0.034370
C35   C     C_3   0.689999 0.188913 0.498928 -0.003802
C36   C     C_3   0.691041 0.811577 0.499817 0.008560
C37   C     C_3   0.143605 0.774233 0.525331 -0.401196
C38   C     C_3   0.142613 0.225801 0.488259 -0.390834
C39   C     C_3   0.641763 0.276296 0.511620 -0.369708
C40   C     C_3   0.642101 0.724661 0.487546 -0.409301
C41   C     C_3   0.909318 0.520008 0.082971 -0.102805
C42   C     C_3   0.911000 0.525936 0.916777 -0.122745
C43   C     C_3   0.038745 0.419582 0.081765 -0.106995
C44   C     C_3   0.032274 0.417249 0.915963 -0.089047
C45   C     C_3   0.532817 0.082619 0.084029 -0.082518
C46   C     C_3   0.539259 0.080282 0.918194 -0.111124
C47   C     C_3   0.410805 0.974571 0.083440 -0.123029
C48   C     C_3   0.409222 0.980387 0.917228 -0.104496
H41   H     H_    0.890757 0.584564 0.120476 0.157491
H42   H     H_    0.902139 0.594545 0.894017 0.153168
H43   H     H_    0.112821 0.418173 0.106370 0.137648
H44   H     H_    0.102882 0.406276 0.878567 0.137052
H45   H     H_    0.603546 0.093106 0.121272 0.140679
H46   H     H_    0.613359 0.081266 0.893485 0.153041
H47   H     H_    0.401346 0.906065 0.106479 0.152797
H48   H     H_    0.390297 0.915893 0.879818 0.157442
H49   H     H_    0.038839 0.630711 0.118875 0.157078
H50   H     H_    0.051233 0.627482 0.874831 0.162701
H51   H     H_    0.131464 0.560035 0.124579 0.140541
H52   H     H_    0.136480 0.549009 0.882599 0.148752
H53   H     H_    0.636219 0.950395 0.116931 0.157422
H54   H     H_    0.631291 0.939363 0.874162 0.146674
H55   H     H_    0.550497 0.872295 0.124888 0.162872
H56   H     H_    0.538117 0.869177 0.880894 0.156703
C49   C     C_3   0.061731 0.567022 0.083854 -0.248755
C50   C     C_3   0.065971 0.563581 0.916712 -0.252489
C51   C     C_3   0.565629 0.936133 0.082998 -0.252748
C52   C     C_3   0.561465 0.932755 0.915769 -0.246277
N1    N     N_3   0.001260 0.500000 0.143650 -0.185208
N2    N     N_3   0.001260 0.500000 0.856350 -0.187496
N3    N     N_3   0.501260 0.000000 0.143650 -0.188699
N4    N     N_3   0.501260 1.000000 0.856350 -0.186493
C53   C     C_2   0.303192 0.591527 0.632344 0.447107
H57   H     H_    0.280205 0.541140 0.564458 0.088401
O17   O     O_2   0.361077 0.577453 0.720632 -0.489571
C54   C     C_2   0.288239 0.613453 0.310368 0.345790
H58   H     H_    0.247606 0.562283 0.270935 0.049562
O18   O     O_2   0.370242 0.604317 0.319748 -0.505816
C55   C     C_2   0.281996 0.391117 0.702604 0.429084
H59   H     H_    0.235900 0.441460 0.730988 0.046397
O19   O     O_2   0.362722 0.400994 0.725949 -0.451806
C56   C     C_2   0.304622 0.401523 0.350444 0.337475
H60   H     H_    0.293040 0.433539 0.252269 0.073889
O20   O     O_2   0.361457 0.428646 0.431899 -0.471910
C57   C     C_2   0.795859 0.097155 0.651191 0.446019
H61   H     H_    0.777762 0.045482 0.583227 0.066031
O21   O     O_2   0.847310 0.085244 0.749409 -0.499398
C58   C     C_2   0.788920 0.109568 0.313879 0.328667
H62   H     H_    0.752873 0.066315 0.245158 0.087392
O22   O     O_2   0.865147 0.091529 0.353790 -0.495341
C59   C     C_2   0.795622 0.889859 0.677813 0.325406
H63   H     H_    0.765230 0.934191 0.750713 0.091931
O23   O     O_2   0.870143 0.905370 0.628177 -0.509702
C60   C     C_2   0.793681 0.901977 0.339204 0.441721
H64   H     H_    0.778056 0.953934 0.408036 0.077657
O24   O     O_2   0.840933 0.913417 0.235746 -0.519378
C61   C     C_2   0.833046 0.465214 0.136365 0.437473
H65   H     H_    0.822202 0.402785 0.093349 -0.010826
O25   O     O_2   0.777925 0.493093 0.220312 -0.562789
C62   C     C_2   0.828983 0.486576 0.845322 0.438375
H66   H     H_    0.816550 0.419679 0.846619 0.034018
O26   O     O_2   0.771504 0.530958 0.790825 -0.579448
C63   C     C_2   0.004342 0.339297 0.147762 0.434662
H67   H     H_    0.933613 0.328433 0.163415 0.043284
O27   O     O_2   0.056235 0.280878 0.168730 -0.584474
C64   C     C_2   0.979823 0.341473 0.863239 0.481122
H68   H     H_    0.913302 0.328046 0.904480 -0.017331
O28   O     O_2   0.015529 0.289126 0.786806 -0.565905
C65   C     C_2   0.481030 0.158781 0.137055 0.475802
H69   H     H_    0.414450 0.172626 0.096760 -0.022722
O29   O     O_2   0.517536 0.211123 0.212493 -0.578388
C66   C     C_2   0.505690 0.160898 0.852206 0.431305
H70   H     H_    0.435264 0.172138 0.835280 0.047485
O30   O     O_2   0.558011 0.219189 0.832308 -0.582082
C67   C     C_2   0.329105 0.014729 0.154731 0.441127
H71   H     H_    0.316556 0.081500 0.150914 0.032967
O31   O     O_2   0.271907 0.971160 0.211832 -0.580447
C68   C     C_2   0.333362 0.035565 0.863838 0.438362
H72   H     H_    0.323329 0.098315 0.905969 -0.011400
O32   O     O_2   0.277725 0.007753 0.780779 -0.563419

loop_
_geom_bond_atom_site_label_1
_geom_bond_atom_site_label_2
_geom_bond_distance
_ccdc_geom_bond_type
C3    C36   1.505257 S    
C64   O28   1.219574 D    
C41   C42   1.587645 S    
C27   C31   1.551087 S    
C65   O29   1.219352 D    
C65   H69   1.078159 S    
H35   C38   1.110897 S    
C63   H67   1.068022 S    
C14   H6    1.110928 S    
C9    C29   1.544607 S    
C68   H72   1.079934 S    
C19   C55   1.513268 S    
C67   O31   1.220300 D    
C5    C29   1.490885 S    
C46   N4    1.506501 S    
O13   C7    1.303202 A    
C45   C65   1.512329 S    
C46   H46   1.118212 S    
C16   C20   1.535978 S    
O10   C5    1.303729 A    
C45   H45   1.114472 S    
C63   O27   1.219217 D    
C58   O22   1.222118 D    
H53   C51   1.113347 S    
C21   C57   1.498073 S    
C13   C31   1.548416 S    
C48   C68   1.511309 S    
H52   C50   1.113379 S    
C68   O32   1.220857 D    
O11   Cu1   1.987013 S    
C34   C38   1.564357 S    
C41   H41   1.115405 S    
C52   N4    1.501773 S    
O7    Cu3   1.985717 S    
C10   H2    1.109273 S    
C43   H43   1.118166 S    
H38   C39   1.110921 S    
C11   C23   1.542231 S    
C14   C31   1.548964 S    
H29   C27   1.111710 S    
C18   C33   1.574865 S    
C23   H23   1.114596 S    
O5    Cu3   1.984252 S    
C17   H17   1.114836 S    
C22   H22   1.113569 S    
O11   C6    1.304103 A    
O6    Cu4   1.986682 S    
C28   C32   1.547951 S    
C19   H19   1.113956 S    
C22   C58   1.506759 S    
C47   C48   1.587711 S    
C20   H20   1.113638 S    
C4    C35   1.501501 S    
H33   C37   1.113402 S    
H30   C27   1.112681 S    
C15   H7    1.107955 S    
H32   C28   1.112743 S    
C60   O24   1.221660 D    
C16   H16   1.113776 S    
H56   C52   1.113270 S    
C20   C56   1.500849 S    
C15   C32   1.545723 S    
C16   C32   1.541964 S    
C59   O23   1.222095 D    
C49   C50   1.594769 S    
C59   H63   1.081701 S    
C41   C61   1.511210 S    
C61   O25   1.220978 D    
C11   H11   1.114087 S    
O1    Cu1   1.984252 S    
Cu3   N4    2.039174 S    
C12   H12   1.114753 S    
O9    Cu1   1.984090 S    
C19   C34   1.575864 S    
Cu1   N2    2.039174 S    
C8    C32   1.491419 S    
C57   O21   1.221436 D    
C66   O30   1.219343 D    
C57   H61   1.074216 S    
C51   N3    1.500584 S    
C13   C17   1.545641 S    
O7    C4    1.308601 A    
C12   C30   1.551147 S    
C14   H14   1.112300 S    
C17   C33   1.570120 S    
O14   C7    1.303368 A    
O13   Cu3   1.984090 S    
O1    C1    1.300923 A    
O16   C8    1.304422 A    
O3    Cu1   1.985717 S    
O14   Cu4   1.986050 S    
C58   H62   1.084207 S    
C45   N3    1.504504 S    
C26   C30   1.553353 S    
C42   C62   1.520412 S    
O6    C3    1.307922 A    
C44   H44   1.113991 S    
C25   C29   1.550102 S    
C10   C22   1.539721 S    
O16   Cu4   1.984582 S    
C2    C33   1.505080 S    
Cu1   Cu2   2.714653 S    
C15   C19   1.542761 S    
C61   H65   1.080084 S    
C9    H9    1.114679 S    
H40   C40   1.113434 S    
O2    C1    1.310718 A    
C20   C34   1.568741 S    
C22   C35   1.573364 S    
C25   C39   1.552700 S    
H25   C25   1.112609 S    
H27   C26   1.112162 S    
H55   C51   1.112693 S    
C67   H71   1.075123 S    
O8    C4    1.301968 A    
C11   C30   1.547972 S    
C18   C54   1.509389 S    
H34   C37   1.113299 S    
C6    C30   1.488424 S    
C17   C53   1.498675 S    
O2    Cu2   1.986682 S    
O10   Cu2   1.986050 S    
C43   N1    1.505658 S    
C47   H47   1.117798 S    
C60   H64   1.074072 S    
Cu2   N1    2.039146 S    
C24   C36   1.571566 S    
C54   O18   1.221896 D    
C9    C21   1.537571 S    
C14   C18   1.543384 S    
H39   C40   1.113288 S    
C15   H15   1.111236 S    
C53   H57   1.078890 S    
O8    Cu4   1.983758 S    
C7    C31   1.487884 S    
C42   H42   1.117913 S    
C23   C36   1.577330 S    
C12   C24   1.541686 S    
O4    C2    1.304108 A    
C51   C52   1.595623 S    
C33   C37   1.557416 S    
C43   C44   1.583409 S    
C56   O20   1.219247 D    
O15   Cu3   1.987013 S    
C66   H70   1.066791 S    
H51   C49   1.105733 S    
H49   C49   1.113265 S    
O12   C6    1.302895 A    
H36   C38   1.105970 S    
C46   C66   1.511721 S    
C10   H10   1.111745 S    
C42   N2    1.506497 S    
C21   H21   1.112611 S    
C54   H58   1.074156 S    
O12   Cu2   1.984582 S    
O4    Cu2   1.983758 S    
C55   H59   1.081260 S    
O5    C3    1.304493 A    
C23   C59   1.506239 S    
H28   C26   1.111779 S    
C18   H18   1.114408 S    
C45   C46   1.583546 S    
C43   C63   1.510741 S    
H37   C39   1.107083 S    
Cu4   N3    2.039146 S    
C13   H5    1.113258 S    
C62   H66   1.075951 S    
C48   H48   1.115518 S    
C47   N3    1.506680 S    
C10   C29   1.545146 S    
O15   C8    1.303874 A    
O3    C2    1.307906 A    
O9    C5    1.304157 A    
C26   C40   1.554978 S    
C55   O19   1.221521 D    
C64   H68   1.078546 S    
C47   C67   1.520683 S    
C36   C40   1.558563 S    
C11   H3    1.112217 S    
C35   C39   1.561013 S    
C12   H4    1.113092 S    
H54   C52   1.108710 S    
C24   C60   1.496684 S    
C48   N4    1.509277 S    
C16   H8    1.107564 S    
C44   C64   1.511489 S    
C49   N1    1.501934 S    
H31   C28   1.112383 S    
C24   H24   1.115339 S    
C21   C35   1.567580 S    
C9    H1    1.105471 S    
Cu3   Cu4   2.714653 S    
C53   O17   1.221098 D    
C50   N2    1.499827 S    
C56   H60   1.081334 S    
C44   N2    1.504431 S    
H50   C50   1.112706 S    
H26   C25   1.112555 S    
C13   H13   1.114997 S    
C1    C34   1.501563 S    
C28   C38   1.552561 S    
C62   O26   1.220615 D    
C27   C37   1.552298 S    
C41   N1    1.509666 S    
