data_mof_unit_5675.cif
_audit_creation_date              2013-03-05T16:21:22-0500
_audit_creation_method            fapswitch 2.2
_symmetry_space_group_name_H-M    P1
_symmetry_Int_Tables_number       1
_space_group_crystal_system       triclinic
_cell_length_a                    8.720739
_cell_length_b                    15.114155
_cell_length_c                    13.943124
_cell_angle_alpha                 88.696683
_cell_angle_beta                  97.099852
_cell_angle_gamma                 91.882134
_cell_volume                      1822.39663454

loop_
_atom_site_label
_atom_site_type_symbol
_atom_site_description
_atom_site_fract_x
_atom_site_fract_y
_atom_site_fract_z
_atom_type_partial_charge
O1    O     O_R   0.500010 0.371450 0.581430 -0.584865
O2    O     O_R   0.499990 0.628550 0.418570 -0.559839
O3    O     O_R   0.500010 0.371460 0.418560 -0.546447
O4    O     O_R   0.499990 0.628540 0.581440 -0.566678
C1    C     C_R   0.498470 0.330147 0.500821 0.925290
C2    C     C_R   0.494280 0.670204 0.498711 0.859673
O5    O     O_R   0.274840 0.499990 0.562640 -0.576479
O6    O     O_R   0.725160 0.500010 0.437360 -0.608530
O7    O     O_R   0.274840 0.500000 0.399770 -0.589120
O8    O     O_R   0.725160 0.500000 0.600230 -0.559162
C3    C     C_R   0.204205 0.498081 0.475739 0.935639
C4    C     C_R   0.795934 0.500171 0.524507 0.907481
Cu1   Cu    Cu3+1 0.500000 0.499990 0.596430 1.036219
Cu2   Cu    Cu3+1 0.500000 0.500010 0.403570 1.031837
C5    C     C_2   0.038971 0.492691 0.462996 -0.295771
C6    C     C_2   0.961516 0.501970 0.538288 -0.265598
H1    H     H_    0.980974 0.479605 0.391322 0.177349
H2    H     H_    0.020038 0.512341 0.610844 0.201473
C7    C     C_R   0.579002 0.092753 0.569280 -0.224180
C8    C     C_R   0.542784 0.912829 0.435206 -0.220586
H3    H     H_    0.658974 0.054642 0.618268 0.205329
H4    H     H_    0.597368 0.954002 0.383581 0.199522
C9    C     C_R   0.591923 0.184847 0.568395 0.274377
C10   C     C_R   0.546125 0.821404 0.429215 0.311022
C11   C     C_R   0.489622 0.233484 0.502266 -0.295307
C12   C     C_R   0.477620 0.767146 0.496961 -0.290557
C13   C     C_R   0.375248 0.189389 0.438106 0.304737
C14   C     C_R   0.397552 0.806785 0.566963 0.304794
C15   C     C_R   0.363561 0.096232 0.439818 0.064486
C16   C     C_R   0.392724 0.899785 0.571291 0.058195
C17   C     C_R   0.468178 0.048816 0.505185 0.003143
C18   C     C_R   0.467850 0.952055 0.505154 0.015921
C19   C     C_R   0.610355 0.539631 0.111461 -0.202912
C20   C     C_R   0.430596 0.434561 0.891360 -0.199418
H5    H     H_    0.708186 0.566670 0.078280 0.189613
H6    H     H_    0.387280 0.377366 0.929107 0.187209
C21   C     C_R   0.614983 0.541543 0.212510 0.325779
C22   C     C_R   0.431588 0.431880 0.790610 0.323426
N1    N     N_R   0.500000 0.500020 0.258690 -0.207685
N2    N     N_R   0.500000 0.499980 0.741310 -0.204609
C23   C     C_R   0.374327 0.463824 0.203108 0.029644
C24   C     C_R   0.556531 0.573116 0.791554 0.053130
H7    H     H_    0.281830 0.433537 0.238484 0.204398
H8    H     H_    0.606436 0.627567 0.753215 0.186672
C25   C     C_R   0.357113 0.470314 0.100436 0.243235
C26   C     C_R   0.542666 0.581931 0.891353 0.248830
C27   C     C_R   0.480015 0.507789 0.052758 0.024690
C28   C     C_R   0.481429 0.509769 0.943725 0.019526
N3    N     N_R   0.713430 0.227419 0.631928 0.137543
O9    O     O_R   0.795969 0.292495 0.600244 -0.353026
O10   O     O_R   0.756571 0.193126 0.717061 -0.322449
N4    N     N_R   0.618780 0.785327 0.353074 0.116224
O11   O     O_R   0.532454 0.757004 0.276414 -0.304524
O12   O     O_R   0.764398 0.803855 0.348107 -0.355633
N5    N     N_R   0.269790 0.239499 0.372657 0.120011
O13   O     O_R   0.275563 0.236794 0.279977 -0.317447
O14   O     O_R   0.172209 0.290607 0.405854 -0.377438
N6    N     N_R   0.312891 0.752754 0.629705 0.137635
O15   O     O_R   0.200840 0.699983 0.593338 -0.359687
O16   O     O_R   0.347313 0.756185 0.723056 -0.313606
C29   C     C_3   0.238484 0.046633 0.375396 -0.666247
H9    H     H_    0.291758 0.006953 0.322973 0.242231
H10   H     H_    0.172267 0.001476 0.420199 0.226762
H11   H     H_    0.153881 0.090622 0.334209 0.273194
C30   C     C_3   0.302793 0.941342 0.643945 -0.672030
H12   H     H_    0.359430 0.927713 0.718282 0.271749
H13   H     H_    0.294610 0.014104 0.634667 0.220133
H14   H     H_    0.182706 0.913287 0.636370 0.250266
C31   C     C_3   0.747237 0.594657 0.264019 -0.603388
H15   H     H_    0.722227 0.620079 0.333333 0.273280
H16   H     H_    0.852374 0.554981 0.272561 0.183672
H17   H     H_    0.772109 0.654578 0.220181 0.250506
C32   C     C_3   0.351554 0.352683 0.741021 -0.666153
H18   H     H_    0.278863 0.372291 0.673790 0.249170
H19   H     H_    0.437832 0.303420 0.728060 0.240533
H20   H     H_    0.271193 0.318701 0.786844 0.215675
N7    N     N_R   0.212034 0.443004 0.047323 0.112167
O17   O     O_R   0.152871 0.489407 0.972882 -0.311903
O18   O     O_R   0.128319 0.379489 0.081030 -0.308269
N8    N     N_R   0.583609 0.665674 0.935980 0.130966
O19   O     O_R   0.499464 0.696803 0.997553 -0.268795
O20   O     O_R   0.691418 0.716571 0.905438 -0.306019

loop_
_geom_bond_atom_site_label_1
_geom_bond_atom_site_label_2
_geom_bond_distance
_ccdc_geom_bond_type
C10   N4    1.428693 S    
C22   N2    1.384454 A    
N5    O13   1.301037 A    
C21   C31   1.500373 S    
C13   C15   1.408216 A    
C32   H19   1.108906 S    
C32   H18   1.105096 S    
C7    C17   1.394666 A    
N1    C23   1.367831 A    
N7    O17   1.301411 A    
O5    C3    1.290100 A    
O1    C1    1.296446 A    
C7    H3    1.084190 S    
C10   C12   1.412006 A    
C13   N5    1.434930 S    
C9    N3    1.438976 S    
N6    O16   1.300937 A    
C5    C6    1.328995 D    
C29   H10   1.110585 S    
C24   C26   1.421174 A    
C25   C27   1.424998 A    
O4    Cu1   1.949405 S    
C31   H16   1.104680 S    
Cu1   N2    2.020076 S    
Cu2   N1    2.020078 S    
C3    C5    1.429762 S    
C4    C6    1.432432 S    
N3    O10   1.301401 A    
C29   H9    1.109949 S    
N2    C24   1.367390 A    
Cu1   Cu2   2.689064 S    
C15   C17   1.408649 A    
C23   H7    1.080436 S    
O2    C2    1.302031 A    
C24   H8    1.080022 S    
N4    O12   1.301288 A    
C26   C28   1.424734 A    
N7    O18   1.301405 A    
C15   C29   1.514369 S    
C8    C10   1.387708 A    
N8    O20   1.301381 A    
C30   H13   1.108003 S    
N6    O15   1.301096 A    
C19   C21   1.405446 A    
C29   H11   1.107379 S    
C7    C9    1.392680 A    
O7    Cu2   1.957715 S    
C27   C28   1.521441 S    
O6    C4    1.293089 A    
C30   H14   1.110505 S    
O7    C3    1.288798 A    
O3    Cu2   1.949403 S    
O8    C4    1.287066 A    
C1    C11   1.460300 S    
O4    C2    1.297839 A    
C8    H4    1.084821 S    
N3    O9    1.301165 A    
N5    O14   1.300746 A    
C19   C27   1.394834 A    
C32   H20   1.111414 S    
O1    Cu1   1.958725 S    
C31   H17   1.111553 S    
N4    O11   1.301245 A    
C8    C18   1.392482 A    
C5    H1    1.082191 S    
O6    Cu2   1.961850 S    
C20   C22   1.407379 A    
C17   C18   1.462379 S    
N8    O19   1.301426 A    
O3    C1    1.294715 A    
O8    Cu1   1.957713 S    
C14   N6    1.436964 S    
C11   C13   1.414986 A    
C12   C14   1.421860 A    
C14   C16   1.410509 A    
C21   N1    1.383410 A    
C16   C18   1.409229 A    
C2    C12   1.476477 S    
C19   H5    1.083981 S    
C20   H6    1.083510 S    
C9    C11   1.412569 A    
C31   H15   1.097157 S    
O2    Cu2   1.958727 S    
C16   C30   1.514438 S    
O5    Cu1   1.961852 S    
C20   C28   1.395111 A    
C6    H2    1.087570 S    
C30   H12   1.109546 S    
C23   C25   1.422327 A    
C25   N7    1.437885 S    
C26   N8    1.438022 S    
C22   C32   1.503828 S    
