data_mof_unit_49869.cif
_audit_creation_date              2012-12-11T15:17:45-0500
_audit_creation_method            fapswitch 2.2
_symmetry_space_group_name_H-M    P1
_symmetry_Int_Tables_number       1
_space_group_crystal_system       triclinic
_cell_length_a                    15.736419
_cell_length_b                    15.73398
_cell_length_c                    34.547752
_cell_angle_alpha                 89.942155
_cell_angle_beta                  89.999006
_cell_angle_gamma                 120.036062
_cell_volume                      7405.19839524

loop_
_atom_site_label
_atom_site_type_symbol
_atom_type_description
_atom_site_fract_x
_atom_site_fract_y
_atom_site_fract_z
_atom_type_partial_charge
C1    C     C_R   0.578513 0.440821 0.555118 0.645677
C2    C     C_R   0.558668 0.136566 0.554916 0.643426
C3    C     C_R   0.861233 0.421084 0.555511 0.629846
C4    C     C_R   0.442054 0.577429 0.054705 0.594752
C5    C     C_R   0.134967 0.557609 0.054499 0.595871
C6    C     C_R   0.422423 0.864491 0.054735 0.594902
C7    C     C_R   0.959324 0.488458 0.716079 0.363168
C8    C     C_R   0.492080 0.489780 0.710550 0.386979
C9    C     C_R   0.501205 0.968811 0.705820 0.360286
C10   C     C_R   0.515235 0.989196 0.212204 0.351271
C11   C     C_R   0.474556 0.478618 0.211286 0.354163
C12   C     C_R   0.998365 0.520136 0.210083 0.345579
C13   C     C_R   0.989988 0.426528 0.857405 0.352756
C14   C     C_R   0.560610 0.572654 0.852251 0.343598
C15   C     C_R   0.410461 0.959455 0.846557 0.351524
C16   C     C_R   0.447466 0.027522 0.349314 0.368332
C17   C     C_R   0.583491 0.547090 0.347849 0.327301
C18   C     C_R   0.956531 0.414392 0.346898 0.353591
C19   C     C_R   0.029243 0.442195 0.894466 0.350323
C20   C     C_R   0.551053 0.592109 0.890738 0.356041
C21   C     C_R   0.396079 0.940037 0.886089 0.359388
C22   C     C_R   0.452670 0.053792 0.387895 0.346112
C23   C     C_R   0.603380 0.544797 0.386801 0.324587
C24   C     C_R   0.938182 0.396555 0.386124 0.334048
C25   C     C_R   0.070327 0.613217 0.891121 0.169272
C26   C     C_R   0.381883 0.458647 0.890711 0.168940
C27   C     C_R   0.536002 0.913965 0.887907 0.174953
C28   C     C_R   0.600690 0.044043 0.396075 0.176079
C29   C     C_R   0.444132 0.398821 0.395795 0.176556
C30   C     C_R   0.945186 0.553153 0.394188 0.194563
C31   C     C_R   0.036021 0.598850 0.852961 0.199504
C32   C     C_R   0.388539 0.444239 0.851082 0.204889
C33   C     C_R   0.547914 0.929779 0.847816 0.205153
C34   C     C_R   0.592213 0.011956 0.357103 0.192128
C35   C     C_R   0.421106 0.405657 0.356575 0.193548
C36   C     C_R   0.960907 0.570563 0.353808 0.201778
C37   C     C_R   0.996693 0.505176 0.835742 -0.059809
C38   C     C_R   0.478326 0.502671 0.831245 -0.064488
C39   C     C_R   0.483834 0.951002 0.826831 -0.058822
C40   C     C_R   0.521292 0.014211 0.332817 -0.051491
C41   C     C_R   0.495346 0.473753 0.331805 -0.041341
C42   C     C_R   0.963522 0.498628 0.330048 -0.053453
C43   C     C_R   0.074472 0.536640 0.910833 -0.081436
C44   C     C_R   0.460159 0.539553 0.909558 -0.081226
C45   C     C_R   0.454964 0.911643 0.906802 -0.080991
C46   C     C_R   0.534727 0.072897 0.410413 -0.046921
C47   C     C_R   0.539127 0.464652 0.409989 -0.037620
C48   C     C_R   0.922382 0.460544 0.409291 -0.044304
C49   C     C_R   0.577032 0.443237 0.445890 0.593740
C50   C     C_R   0.556788 0.133745 0.445923 0.593068
C51   C     C_R   0.866193 0.423211 0.445883 0.590120
C52   C     C_R   0.442254 0.577474 0.945719 0.595006
C53   C     C_R   0.135295 0.557684 0.945741 0.599127
C54   C     C_R   0.421653 0.863217 0.944982 0.593416
C55   C     C_R   0.904792 0.452833 0.594291 -0.030061
C56   C     C_R   0.543966 0.456972 0.592441 -0.015996
C57   C     C_R   0.537423 0.074101 0.589685 -0.016718
C58   C     C_R   0.457566 0.919790 0.091601 -0.025400
C59   C     C_R   0.462260 0.541258 0.091327 -0.026213
C60   C     C_R   0.077242 0.536179 0.090721 -0.026249
C61   C     C_R   0.963373 0.418615 0.611267 0.207156
C62   C     C_R   0.576677 0.552117 0.607003 0.219696
C63   C     C_R   0.441616 0.018761 0.604747 0.205869
C64   C     C_R   0.398544 0.948147 0.112339 0.202535
C65   C     C_R   0.549845 0.599464 0.112093 0.202479
C66   C     C_R   0.047652 0.448077 0.111203 0.202685
C67   C     C_R   0.992000 0.441381 0.650405 0.201080
C68   C     C_R   0.551218 0.562715 0.645205 0.202923
C69   C     C_R   0.427333 0.971362 0.641056 0.195442
C70   C     C_R   0.414560 0.966941 0.152574 0.206684
C71   C     C_R   0.552849 0.581649 0.152171 0.205651
C72   C     C_R   0.025612 0.443869 0.151151 0.207402
C73   C     C_R   0.951130 0.486643 0.673450 -0.060830
C74   C     C_R   0.499497 0.479096 0.668893 -0.043873
C75   C     C_R   0.509554 0.986725 0.663309 -0.051144
C76   C     C_R   0.497620 0.970377 0.170323 -0.056974
C77   C     C_R   0.473332 0.497724 0.169577 -0.056377
C78   C     C_R   0.020145 0.522593 0.168574 -0.055898
C79   C     C_R   0.898419 0.526409 0.655459 0.237723
C80   C     C_R   0.461692 0.384630 0.653360 0.237936
C81   C     C_R   0.602391 0.029202 0.645203 0.236329
C82   C     C_R   0.564170 0.956807 0.147713 0.214859
C83   C     C_R   0.392930 0.432205 0.146880 0.216023
C84   C     C_R   0.035022 0.603355 0.146070 0.216066
C85   C     C_R   0.875690 0.509157 0.616437 0.309144
C86   C     C_R   0.485711 0.374253 0.615692 0.308221
C87   C     C_R   0.616137 0.074987 0.609366 0.307279
C88   C     C_R   0.543489 0.931069 0.108787 0.301451
C89   C     C_R   0.387557 0.454612 0.108203 0.301557
C90   C     C_R   0.063980 0.609955 0.107541 0.302433
C91   C     C_R   0.973662 0.492407 0.794243 0.383136
C92   C     C_R   0.484676 0.495728 0.788725 0.374958
C93   C     C_R   0.490176 0.959241 0.784331 0.379889
C94   C     C_R   0.524115 0.007296 0.290328 0.399378
C95   C     C_R   0.484767 0.469533 0.289347 0.400409
C96   C     C_R   0.973928 0.508746 0.287791 0.364225
Cr1   Cr    Cr6+3 0.522350 0.263930 0.500020 1.059726
Cr2   Cr    Cr6+3 0.736070 0.258420 0.500020 1.064802
Cr3   Cr    Cr6+3 0.741580 0.477650 0.500020 1.054175
Cr4   Cr    Cr6+3 0.263930 0.522350 0.000020 1.079276
Cr5   Cr    Cr6+3 0.258420 0.736070 0.000020 1.070337
Cr6   Cr    Cr6+3 0.477650 0.741580 0.000020 1.079573
N1    N     N_R   0.987871 0.427805 0.773220 -0.185112
N2    N     N_R   0.567651 0.558623 0.769244 -0.158942
N3    N     N_R   0.407724 0.924876 0.762566 -0.207747
N4    N     N_R   0.547826 0.944887 0.272707 -0.204874
N5    N     N_R   0.398865 0.447707 0.271966 -0.207091
N6    N     N_R   0.039615 0.594845 0.270908 -0.188754
N7    N     N_R   0.979988 0.425259 0.734888 -0.166605
N8    N     N_R   0.571601 0.555459 0.730887 -0.174880
N9    N     N_R   0.413213 0.930122 0.724128 -0.182457
N10   N     N_R   0.543103 0.935765 0.234292 -0.210319
N11   N     N_R   0.393965 0.452479 0.233580 -0.210939
N12   N     N_R   0.051747 0.600323 0.232656 -0.212263
N13   N     N_R   0.942979 0.551246 0.737298 -0.194394
N14   N     N_R   0.409147 0.427127 0.729814 -0.231371
N15   N     N_R   0.583318 0.002609 0.727833 -0.156771
N16   N     N_R   0.494787 0.053761 0.229816 -0.168910
N17   N     N_R   0.559289 0.497061 0.228632 -0.176247
N18   N     N_R   0.931025 0.435006 0.226955 -0.171913
N19   N     N_R   0.949855 0.553195 0.775556 -0.158200
N20   N     N_R   0.405608 0.430289 0.768089 -0.186061
N21   N     N_R   0.578051 0.997531 0.766206 -0.153130
N22   N     N_R   0.499170 0.062579 0.268087 -0.152956
N23   N     N_R   0.564192 0.492519 0.266887 -0.165515
N24   N     N_R   0.919021 0.429498 0.265090 -0.161659
O1    O     O_R   0.498680 0.159540 0.541860 -0.456531
O2    O     O_R   0.840460 0.339140 0.541860 -0.472282
O3    O     O_R   0.660860 0.501320 0.541860 -0.455008
O4    O     O_R   0.159540 0.498680 0.041860 -0.493036
O5    O     O_R   0.339140 0.840460 0.041860 -0.497653
O6    O     O_R   0.501320 0.660860 0.041860 -0.493913
O7    O     O_R   0.532760 0.358060 0.540030 -0.461873
O8    O     O_R   0.641940 0.174700 0.540030 -0.450619
O9    O     O_R   0.825300 0.467240 0.540030 -0.455524
O10   O     O_R   0.358060 0.532760 0.040030 -0.462171
O11   O     O_R   0.174700 0.641940 0.040030 -0.463259
O12   O     O_R   0.467240 0.825300 0.040030 -0.461084
O13   O     O_R   0.498590 0.161190 0.456930 -0.487141
O14   O     O_R   0.838810 0.337400 0.456930 -0.485796
O15   O     O_R   0.662600 0.501410 0.456930 -0.489549
O16   O     O_R   0.161190 0.498590 0.956930 -0.440526
O17   O     O_R   0.337400 0.838810 0.956930 -0.444475
O18   O     O_R   0.501410 0.662600 0.956930 -0.439496
O19   O     O_R   0.532680 0.359580 0.461300 -0.503068
O20   O     O_R   0.640420 0.173100 0.461300 -0.501108
O21   O     O_R   0.826900 0.467320 0.461300 -0.513647
O22   O     O_R   0.359580 0.532680 0.961300 -0.475528
O23   O     O_R   0.173100 0.640420 0.961300 -0.477199
O24   O     O_R   0.467320 0.826900 0.961300 -0.475521
O25   O     O_3   0.666667 0.333333 0.499990 -0.289751
O26   O     O_3   0.333333 0.666667 0.999990 -0.304395
O27   O     O_3   0.996069 0.367784 0.588663 -0.539527
C97   C     C_3   0.959930 0.271537 0.603243 0.058594
H1    H     H_    0.887368 0.241525 0.617978 0.210718
H2    H     H_    0.013566 0.270862 0.623953 0.170862
C98   C     C_3   0.948001 0.203040 0.569998 -0.346800
H3    H     H_    0.019417 0.229337 0.555089 0.144972
H4    H     H_    0.921999 0.127889 0.581338 0.088737
H5    H     H_    0.893430 0.200054 0.548865 0.199407
O28   O     O_3   0.627750 0.632509 0.582732 -0.538748
C99   C     C_3   0.722172 0.697424 0.597797 0.046218
H6    H     H_    0.752530 0.659344 0.615374 0.195755
H7    H     H_    0.719353 0.754280 0.615869 0.157069
C100  C     C_3   0.792791 0.749398 0.564510 -0.361189
H8    H     H_    0.765873 0.789687 0.546566 0.153584
H9    H     H_    0.866414 0.802547 0.576129 0.074864
H10   H     H_    0.799487 0.695218 0.546118 0.190754
O29   O     O_3   0.362797 0.005897 0.582262 -0.541882
C101  C     C_3   0.307450 0.041541 0.601457 0.053682
H11   H     H_    0.352436 0.103279 0.621603 0.203225
H12   H     H_    0.246634 0.981137 0.617951 0.159826
C102  C     C_3   0.261614 0.077371 0.571473 -0.351143
H13   H     H_    0.216163 0.017283 0.550926 0.147827
H14   H     H_    0.214073 0.101085 0.586059 0.069932
H15   H     H_    0.319727 0.140454 0.555088 0.207003
O30   O     O_3   0.338237 0.972691 0.091515 -0.527919
C103  C     C_3   0.238587 0.912554 0.101540 0.054006
H16   H     H_    0.220143 0.944894 0.126368 0.163959
H17   H     H_    0.220357 0.836227 0.108467 0.195678
C104  C     C_3   0.174949 0.909309 0.067744 -0.318623
H18   H     H_    0.187478 0.874042 0.042265 0.191086
H19   H     H_    0.096254 0.866520 0.076013 0.141094
H20   H     H_    0.192834 0.984922 0.059810 0.136230
O31   O     O_3   0.634566 0.660734 0.091317 -0.527120
C105  C     C_3   0.674847 0.759838 0.102266 0.052672
H21   H     H_    0.725971 0.776600 0.126877 0.162930
H22   H     H_    0.617182 0.778041 0.109922 0.196837
C106  C     C_3   0.734995 0.825280 0.068768 -0.316316
H23   H     H_    0.686933 0.814146 0.043502 0.196232
H24   H     H_    0.771123 0.903523 0.077673 0.138147
H25   H     H_    0.792561 0.807770 0.060214 0.138172
O32   O     O_3   0.025113 0.364014 0.090196 -0.525320
C107  C     C_3   0.083835 0.323747 0.101307 0.053725
H26   H     H_    0.048806 0.271931 0.125702 0.163839
H27   H     H_    0.159495 0.381379 0.109325 0.195725
C108  C     C_3   0.090205 0.264572 0.067741 -0.316015
H28   H     H_    0.127812 0.313366 0.042697 0.195802
H29   H     H_    0.132185 0.228382 0.076741 0.137490
H30   H     H_    0.015387 0.207092 0.058815 0.138903
F1    F     F_    0.815877 0.540029 0.601486 -0.628229
F2    F     F_    0.459570 0.282426 0.603406 -0.635122
F3    F     F_    0.709076 0.126290 0.595286 -0.644539
F4    F     F_    0.608741 0.918429 0.087572 -0.660503
F5    F     F_    0.309192 0.390348 0.086941 -0.660912
F6    F     F_    0.077787 0.688409 0.086358 -0.659750
F7    F     F_    0.026381 0.365396 0.913654 -0.570104
F8    F     F_    0.630085 0.665734 0.908993 -0.564914
F9    F     F_    0.320966 0.944230 0.903575 -0.574160
F10   F     F_    0.378234 0.063320 0.402695 -0.620338
F11   F     F_    0.687267 0.620064 0.401358 -0.648835
F12   F     F_    0.935056 0.315665 0.401264 -0.640180
O33   O     O_3   0.054884 0.413369 0.666365 -0.535747
C109  C     C_3   0.149355 0.496954 0.669673 -0.002280
H31   H     H_    0.148108 0.555395 0.687405 0.116415
H32   H     H_    0.180011 0.527013 0.640523 0.137108
C110  C     C_3   0.217020 0.467875 0.689733 -0.356503
H33   H     H_    0.227304 0.416242 0.671176 0.139913
H34   H     H_    0.289425 0.534025 0.695182 0.089427
H35   H     H_    0.185024 0.432136 0.717914 0.176904
O34   O     O_3   0.580672 0.654972 0.660075 -0.560908
C111  C     C_3   0.502553 0.674960 0.657495 -0.008993
H36   H     H_    0.428789 0.608814 0.652825 0.102870
H37   H     H_    0.516807 0.725493 0.632752 0.145137
C112  C     C_3   0.498018 0.724650 0.694655 -0.379733
H38   H     H_    0.570245 0.790524 0.700711 0.167136
H39   H     H_    0.441898 0.747295 0.691853 0.093739
H40   H     H_    0.477832 0.672994 0.719401 0.157212
O35   O     O_3   0.333467 0.915419 0.655691 -0.542408
C113  C     C_3   0.292483 0.819275 0.640813 0.005089
H41   H     H_    0.334169 0.783689 0.651200 0.111063
H42   H     H_    0.291805 0.819291 0.608554 0.162442
C114  C     C_3   0.186905 0.758685 0.654692 -0.377626
H43   H     H_    0.144320 0.794010 0.645411 0.142417
H44   H     H_    0.152475 0.683928 0.642008 0.072987
H45   H     H_    0.184781 0.752719 0.686764 0.157787
O36   O     O_3   0.350775 0.984904 0.174014 -0.542843
C115  C     C_3   0.284837 0.898396 0.194462 -0.004862
H46   H     H_    0.323386 0.879752 0.216923 0.164183
H47   H     H_    0.246278 0.834236 0.174769 0.133586
C116  C     C_3   0.207972 0.914085 0.214778 -0.327405
H48   H     H_    0.164943 0.929391 0.193263 0.123129
H49   H     H_    0.156942 0.847041 0.231295 0.157972
H50   H     H_    0.244188 0.976906 0.235132 0.200398
O37   O     O_3   0.634545 0.644641 0.173822 -0.546037
C117  C     C_3   0.613671 0.709334 0.194947 -0.002035
H51   H     H_    0.556418 0.669576 0.217289 0.160032
H52   H     H_    0.587975 0.748664 0.175707 0.137846
C118  C     C_3   0.706040 0.785413 0.215597 -0.347305
H53   H     H_    0.764772 0.829062 0.194284 0.128300
H54   H     H_    0.689886 0.836012 0.232252 0.145107
H55   H     H_    0.732133 0.748479 0.235840 0.175562
O38   O     O_3   0.007106 0.361963 0.172674 -0.542098
C119  C     C_3   0.092498 0.383300 0.194054 -0.004029
H56   H     H_    0.108227 0.439117 0.216797 0.162939
H57   H     H_    0.158307 0.411104 0.175096 0.133679
C120  C     C_3   0.077333 0.290528 0.214065 -0.340762
H58   H     H_    0.063900 0.233186 0.192360 0.128396
H59   H     H_    0.144011 0.307092 0.230882 0.143107
H60   H     H_    0.013635 0.262328 0.234078 0.192329
O39   O     O_3   0.855548 0.569450 0.676824 -0.475555
C121  C     C_3   0.912713 0.672505 0.672918 0.005660
H61   H     H_    0.917062 0.695720 0.642182 0.145705
H62   H     H_    0.988314 0.699817 0.684159 0.113057
C122  C     C_3   0.865830 0.719996 0.696435 -0.338081
H63   H     H_    0.864118 0.701374 0.727554 0.208252
H64   H     H_    0.909025 0.801014 0.693019 0.075522
H65   H     H_    0.789596 0.693436 0.686349 0.188150
O40   O     O_3   0.415373 0.302475 0.676890 -0.480150
C123  C     C_3   0.313724 0.252520 0.668861 0.008857
H66   H     H_    0.298621 0.226920 0.638327 0.149451
H67   H     H_    0.282027 0.300622 0.674442 0.116547
C124  C     C_3   0.262263 0.163266 0.695171 -0.339166
H68   H     H_    0.273529 0.186803 0.725946 0.202689
H69   H     H_    0.182335 0.122891 0.688883 0.079442
H70   H     H_    0.292094 0.113382 0.690295 0.180361
O41   O     O_3   0.682910 0.035876 0.664298 -0.492451
C125  C     C_3   0.708151 0.969919 0.647181 0.008652
H71   H     H_    0.740575 0.995787 0.617960 0.176746
H72   H     H_    0.643169 0.894925 0.644601 0.105655
C126  C     C_3   0.784250 0.963611 0.672238 -0.353491
H73   H     H_    0.754143 0.937354 0.701657 0.168817
H74   H     H_    0.804205 0.911484 0.659181 0.081549
H75   H     H_    0.851284 0.037045 0.674488 0.167053
O42   O     O_3   0.646484 0.961523 0.164207 -0.540828
C127  C     C_3   0.726432 0.057610 0.159388 0.032467
H76   H     H_    0.712644 0.111943 0.174638 0.153102
H77   H     H_    0.740708 0.077565 0.128152 0.178994
C128  C     C_3   0.818040 0.063176 0.176569 -0.368267
H78   H     H_    0.834304 0.010425 0.161636 0.134804
H79   H     H_    0.881435 0.138503 0.172862 0.139763
H80   H     H_    0.806960 0.045193 0.207925 0.172374
O43   O     O_3   0.315248 0.349349 0.163137 -0.539003
C129  C     C_3   0.331085 0.269458 0.157682 0.030972
H81   H     H_    0.399417 0.282701 0.172624 0.152015
H82   H     H_    0.336241 0.256124 0.126317 0.177644
C130  C     C_3   0.245135 0.177361 0.174743 -0.367016
H83   H     H_    0.256854 0.113988 0.170611 0.140540
H84   H     H_    0.238661 0.187611 0.206196 0.174251
H85   H     H_    0.175924 0.161541 0.160068 0.134927
O44   O     O_3   0.028756 0.680213 0.162430 -0.539552
C131  C     C_3   0.932308 0.662665 0.157346 0.030411
H86   H     H_    0.877719 0.592283 0.171285 0.146343
H87   H     H_    0.914527 0.660533 0.126015 0.180049
C132  C     C_3   0.923700 0.745386 0.176141 -0.375178
H88   H     H_    0.976744 0.816724 0.162678 0.138313
H89   H     H_    0.848226 0.732600 0.172059 0.146032
H90   H     H_    0.939221 0.748293 0.207627 0.155853
F13   F     F_    0.948891 0.334858 0.842121 -0.566722
F14   F     F_    0.649930 0.626476 0.835290 -0.576126
F15   F     F_    0.350749 0.984328 0.827342 -0.583475
F16   F     F_    0.370685 0.017165 0.327707 -0.569651
F17   F     F_    0.651808 0.620600 0.325482 -0.646838
F18   F     F_    0.965790 0.347753 0.325040 -0.608202
O45   O     O_3   0.111479 0.706295 0.906862 -0.500009
C133  C     C_3   0.037095 0.714835 0.926171 0.039532
H91   H     H_    0.000748 0.656758 0.948710 0.126110
H92   H     H_    0.980930 0.709887 0.905245 0.182444
C134  C     C_3   0.082648 0.814198 0.946117 -0.308608
H93   H     H_    0.117959 0.873952 0.924354 0.215341
H94   H     H_    0.024953 0.821749 0.961613 0.083228
H95   H     H_    0.138730 0.820989 0.967346 0.177041
O46   O     O_3   0.293522 0.400377 0.909370 -0.510242
C135  C     C_3   0.297361 0.322040 0.927521 0.032563
H96   H     H_    0.360190 0.349504 0.948118 0.127511
H97   H     H_    0.303910 0.273800 0.905567 0.176424
C136  C     C_3   0.203085 0.261179 0.950294 -0.319554
H98   H     H_    0.138889 0.231529 0.930516 0.197669
H99   H     H_    0.204914 0.199056 0.964757 0.092598
H100  H     H_    0.195193 0.307442 0.972662 0.169132
O47   O     O_3   0.596605 0.887903 0.907153 -0.500037
C137  C     C_3   0.674748 0.973072 0.923766 0.038854
H101  H     H_    0.647169 0.009899 0.943545 0.125820
H102  H     H_    0.721267 0.025639 0.900810 0.185755
C138  C     C_3   0.738062 0.944247 0.947341 -0.316813
H103  H     H_    0.767762 0.908245 0.928387 0.200461
H104  H     H_    0.800184 0.010646 0.960525 0.100223
H105  H     H_    0.693625 0.892571 0.970765 0.165962
O48   O     O_3   0.664023 0.035770 0.421633 -0.564347
C139  C     C_3   0.761924 0.107789 0.413615 0.066803
H106  H     H_    0.768890 0.181000 0.409019 0.210404
H107  H     H_    0.789775 0.087804 0.387687 0.199365
C140  C     C_3   0.825535 0.113967 0.447926 -0.327525
H108  H     H_    0.817971 0.040937 0.453468 0.130428
H109  H     H_    0.903822 0.167262 0.441828 0.170396
H110  H     H_    0.802578 0.137875 0.474214 0.168521
O49   O     O_3   0.372069 0.336996 0.421589 -0.566736
C141  C     C_3   0.344548 0.238420 0.414169 0.067569
H111  H     H_    0.409920 0.230158 0.409251 0.209628
H112  H     H_    0.295364 0.210052 0.388625 0.202080
C142  C     C_3   0.288280 0.176522 0.449054 -0.325811
H113  H     H_    0.223474 0.184979 0.454853 0.129509
H114  H     H_    0.262361 0.097857 0.443448 0.178338
H115  H     H_    0.336330 0.200209 0.475012 0.163517
O50   O     O_3   0.967281 0.629263 0.419868 -0.525199
C143  C     C_3   0.895786 0.658089 0.418304 0.061329
H116  H     H_    0.821232 0.594653 0.412950 0.198809
H117  H     H_    0.915034 0.714414 0.395488 0.184538
C144  C     C_3   0.894428 0.704765 0.456722 -0.329977
H118  H     H_    0.967300 0.770467 0.462231 0.140823
H119  H     H_    0.838110 0.727560 0.455888 0.145536
H120  H     H_    0.876753 0.651708 0.480787 0.169034
O51   O     O_3   0.041749 0.677416 0.832625 -0.506706
C145  C     C_3   0.135734 0.731077 0.815516 0.029286
H121  H     H_    0.154738 0.682585 0.798557 0.095134
H122  H     H_    0.192859 0.770200 0.838023 0.206279
C146  C     C_3   0.136440 0.806826 0.787919 -0.307952
H123  H     H_    0.121076 0.858678 0.804061 0.201317
H124  H     H_    0.209303 0.848712 0.773792 0.173310
H125  H     H_    0.079752 0.769771 0.765161 0.152801
O52   O     O_3   0.307433 0.370232 0.832347 -0.501958
C147  C     C_3   0.241665 0.404005 0.823255 0.020035
H126  H     H_    0.278738 0.473670 0.806300 0.099776
H127  H     H_    0.209463 0.416147 0.849894 0.197675
C148  C     C_3   0.158214 0.326859 0.798907 -0.316654
H128  H     H_    0.117732 0.257280 0.815499 0.198718
H129  H     H_    0.106699 0.352898 0.791124 0.164365
H130  H     H_    0.187664 0.312964 0.771917 0.161850
O53   O     O_3   0.623164 0.924598 0.829347 -0.501495
C149  C     C_3   0.588440 0.826886 0.817311 0.021220
H131  H     H_    0.518767 0.797259 0.800537 0.089184
H132  H     H_    0.576278 0.778621 0.842751 0.197279
C150  C     C_3   0.664926 0.824609 0.791156 -0.309469
H133  H     H_    0.733860 0.847947 0.807531 0.205876
H134  H     H_    0.637209 0.749265 0.780018 0.163289
H135  H     H_    0.680451 0.874777 0.766198 0.156110
O54   O     O_3   0.658931 0.988338 0.341837 -0.538088
C151  C     C_3   0.629256 0.890288 0.351734 0.006877
H136  H     H_    0.557369 0.838778 0.338107 0.151415
H137  H     H_    0.623119 0.878939 0.383661 0.176756
C152  C     C_3   0.705589 0.865838 0.337063 -0.345960
H138  H     H_    0.778528 0.917460 0.349655 0.154596
H139  H     H_    0.684730 0.790038 0.345820 0.198598
H140  H     H_    0.710372 0.871435 0.305013 0.167093
O55   O     O_3   0.329802 0.340246 0.341695 -0.538257
C153  C     C_3   0.264174 0.373756 0.350964 0.001196
H141  H     H_    0.288081 0.446573 0.337381 0.148611
H142  H     H_    0.258029 0.379693 0.382839 0.177170
C154  C     C_3   0.162889 0.300805 0.335621 -0.331064
H143  H     H_    0.110241 0.325223 0.343608 0.201193
H144  H     H_    0.165141 0.295864 0.303619 0.170721
H145  H     H_    0.137573 0.227151 0.348415 0.161300
O56   O     O_3   0.977904 0.658953 0.338316 -0.517016
C155  C     C_3   0.890921 0.645168 0.320361 0.005292
H146  H     H_    0.827725 0.613256 0.340812 0.167448
H147  H     H_    0.870942 0.595959 0.294842 0.151262
C156  C     C_3   0.906945 0.743798 0.306296 -0.327671
H148  H     H_    0.968786 0.776633 0.285340 0.157812
H149  H     H_    0.839585 0.733694 0.291751 0.151416
H150  H     H_    0.924055 0.794598 0.331120 0.161349

loop_
_geom_bond_atom_site_label_1
_geom_bond_atom_site_label_2
_ccdc_geom_bond_type
C152  H140  S    
C107  H27   S    
C98   H3    S    
C6    C58   S    
C36   O56   S    
C36   C42   A    
C72   O38   S    
C7    C73   S    
O44   C131  S    
C126  H75   S    
C2    O8    A    
Cr6   O18   S    
C81   O41   S    
C1    C56   S    
C153  H142  S    
C1    O3    A    
Cr4   O4    S    
C107  C108  S    
C38   C92   S    
C124  H70   S    
C147  H126  S    
C156  H150  S    
C108  H29   S    
N5    N11   A    
C119  H57   S    
C89   F5    S    
C135  H96   S    
C155  C156  S    
C70   O36   S    
C86   F2    S    
C12   N12   A    
C51   O14   A    
C54   O17   A    
C96   N6    A    
O37   C117  S    
C99   H7    S    
C104  H19   S    
C115  H47   S    
Cr3   O3    S    
O46   C135  S    
C139  H106  S    
C91   N1    A    
C138  H104  S    
Cr5   O11   S    
C104  H18   S    
C143  C144  S    
C31   C37   A    
C17   F17   S    
C133  H91   S    
O35   C113  S    
C14   C38   A    
C99   C100  S    
C56   C86   A    
O50   C143  S    
C8    C74   S    
N16   N22   A    
C155  H146  S    
C113  H42   S    
C15   C39   A    
C97   H1    S    
C16   C40   A    
C26   O46   S    
C5    O4    A    
C98   H5    S    
C52   O18   A    
C56   C62   A    
C71   O37   S    
C150  H133  S    
C79   C85   A    
C136  H99   S    
C154  H144  S    
Cr3   O21   S    
C127  C128  S    
Cr1   O19   S    
Cr3   O15   S    
C93   N21   A    
Cr6   O6    S    
C58   C88   A    
C148  H128  S    
C5    O11   A    
C60   C90   A    
C25   O45   S    
C29   C35   A    
C119  C120  S    
C147  C148  S    
C30   C36   A    
C127  H77   S    
C64   O30   S    
C135  C136  S    
C22   F10   S    
C141  H111  S    
Cr5   O17   S    
C146  H125  S    
C13   F13   S    
C11   N11   A    
C92   N2    A    
C138  H103  S    
C57   C87   A    
O32   C107  S    
C144  H118  S    
C120  H59   S    
C105  H21   S    
C149  H131  S    
C25   C31   A    
N2    N8    A    
C134  H94   S    
C65   O31   S    
C26   C32   A    
N13   N19   A    
C142  H113  S    
C139  C140  S    
Cr1   O7    S    
C112  H40   S    
C103  H16   S    
C142  H115  S    
C26   C44   A    
C54   O24   A    
C27   C33   A    
C28   C46   A    
C118  H53   S    
O34   C111  S    
C23   F11   S    
C29   C47   A    
C133  C134  S    
C18   C24   A    
C30   C48   A    
C92   N20   A    
C18   C42   A    
O38   C119  S    
C109  H32   S    
C62   O28   S    
C101  H11   S    
C68   C74   A    
C154  H143  S    
C145  H121  S    
C53   O16   A    
C59   C89   A    
C106  H24   S    
C82   O42   S    
C72   C78   A    
C11   C77   S    
C3    C55   S    
C33   C39   A    
C63   C69   A    
C145  H122  S    
C151  H136  S    
C132  H89   S    
C80   C86   A    
C114  H43   S    
C2    O1    A    
C44   C52   S    
C52   O22   A    
O41   C125  S    
C53   O23   A    
C130  H84   S    
C113  H41   S    
C84   C90   A    
C1    O7    A    
C20   C44   A    
C57   C63   A    
C21   C45   A    
C102  H14   S    
C32   O52   S    
C58   C64   A    
C83   C89   A    
C131  H87   S    
C23   C47   A    
C24   C48   A    
C137  H101  S    
C76   C82   A    
C33   O53   S    
C8    N14   A    
C3    O2    A    
C111  C112  S    
C110  H33   S    
C141  C142  S    
C84   O44   S    
O43   C129  S    
C69   O35   S    
C61   C67   A    
C120  H58   S    
C143  H117  S    
C128  H78   S    
C73   C79   A    
C96   N24   A    
C88   F4    S    
C111  H37   S    
C122  H64   S    
C149  C150  S    
O30   C103  S    
C140  H109  S    
C71   C77   A    
C148  H130  S    
C152  H139  S    
C117  H51   S    
C118  H55   S    
C5    C60   S    
C35   O55   S    
C18   F18   S    
C40   C94   S    
C121  H61   S    
C126  H74   S    
C145  C146  S    
C120  H60   S    
C150  H135  S    
C59   C65   A    
C28   O48   S    
C50   O20   A    
C151  C152  S    
C27   O47   S    
C55   C61   A    
C112  H39   S    
C147  H127  S    
C144  H120  S    
C62   C68   A    
C156  H149  S    
C108  H28   S    
C35   C41   A    
C114  H45   S    
C28   C34   A    
C135  H97   S    
C91   N19   A    
C125  H71   S    
C30   O50   S    
Cr1   O13   S    
Cr4   O10   S    
Cr6   O26   S    
C117  C118  S    
O39   C121  S    
C137  C138  S    
C121  C122  S    
O28   C99   S    
O53   C149  S    
O33   C109  S    
C110  H35   S    
C115  C116  S    
N14   N20   A    
C42   C96   S    
C14   F14   S    
C139  H107  S    
C129  H81   S    
N18   N24   A    
O52   C147  S    
C128  H80   S    
C133  H92   S    
C80   O40   S    
C130  H83   S    
N6    N12   A    
C39   C93   S    
C90   F6    S    
C43   C53   S    
C68   O34   S    
C125  C126  S    
C49   O15   A    
O51   C145  S    
C10   N10   A    
C67   C73   A    
C97   H2    S    
C85   F1    S    
C4    O10   A    
C27   C45   A    
Cr2   O2    S    
C107  H26   S    
N3    N9    A    
C60   C66   A    
O45   C133  S    
C98   H4    S    
C74   C80   A    
O40   C123  S    
C123  C124  S    
C25   C43   A    
C87   F3    S    
C19   C43   A    
Cr2   O25   S    
C2    C57   S    
C13   C19   A    
C14   C20   A    
C153  H141  S    
C129  C130  S    
C4    O6    A    
O49   C141  S    
C50   O13   A    
Cr4   O26   S    
C55   C85   A    
C108  H30   S    
O47   C137  S    
O42   C127  S    
O48   C139  S    
C141  H112  S    
Cr1   O25   S    
Cr3   O9    S    
C146  H124  S    
C17   C23   A    
C81   C87   A    
C95   N5    A    
C97   C98   S    
N17   N23   A    
C22   C46   A    
C79   O39   S    
C105  H22   S    
C66   O32   S    
C149  H132  S    
C99   H6    S    
C104  H20   S    
C46   C50   S    
C115  H46   S    
C16   C22   A    
C137  H102  S    
C6    O5    A    
C138  H105  S    
C103  H17   S    
O55   C153  S    
C142  H114  S    
Cr5   O26   S    
N1    N7    A    
C116  H50   S    
C105  C106  S    
C136  H98   S    
O31   C105  S    
C41   C95   S    
C101  H12   S    
C21   F9    S    
C69   C75   A    
C3    O9    A    
C106  H23   S    
C103  C104  S    
C134  H93   S    
C151  H137  S    
C132  H88   S    
C123  H66   S    
C101  C102  S    
C9    N9    A    
C154  H145  S    
C140  H108  S    
C16   F16   S    
C100  H8    S    
C9    N15   A    
O29   C101  S    
O56   C155  S    
C153  C154  S    
Cr1   O1    S    
C11   N17   A    
C24   F12   S    
C152  H138  S    
C47   C49   S    
N4    N10   A    
C102  H13   S    
C131  C132  S    
C119  H56   S    
C34   C40   A    
C155  H147  S    
C34   O54   S    
C116  H48   S    
C127  H76   S    
C82   C88   A    
C63   O29   S    
C77   C83   A    
C29   O49   S    
C113  C114  S    
Cr6   O12   S    
C7    N13   A    
C124  H69   S    
C12   N18   A    
C10   C76   S    
C48   C51   S    
C66   C72   A    
C12   C78   S    
C156  H148  S    
C64   C70   A    
C122  H63   S    
C13   C37   A    
C93   N3    A    
C134  H95   S    
C8    N8    A    
C19   F7    S    
C31   O51   S    
C148  H129  S    
C117  H52   S    
C118  H54   S    
C37   C91   S    
C49   O19   A    
C109  H31   S    
C75   C81   A    
C121  H62   S    
Cr2   O20   S    
C126  H73   S    
C65   C71   A    
Cr3   O25   S    
C7    N7    A    
Cr2   O14   S    
C116  H49   S    
C6    O12   A    
C106  H25   S    
C150  H134  S    
C10   N16   A    
C146  H123  S    
C95   N23   A    
C51   O21   A    
C132  H90   S    
C124  H68   S    
C144  H119  S    
C114  H44   S    
Cr6   O24   S    
C45   C54   S    
C100  H10   S    
C32   C38   A    
C70   C76   A    
C130  H85   S    
C125  H72   S    
C67   O33   S    
C20   F8    S    
Cr5   O5    S    
C102  H15   S    
C131  H86   S    
C94   N4    A    
C112  H38   S    
C109  C110  S    
C61   O27   S    
C136  H100  S    
C110  H34   S    
Cr2   O8    S    
N15   N21   A    
Cr4   O16   S    
C129  H82   S    
C83   O43   S    
Cr4   O22   S    
C4    C59   S    
Cr5   O23   S    
C143  H116  S    
C128  H79   S    
C123  H67   S    
C111  H36   S    
C122  H65   S    
C17   C41   A    
C78   C84   A    
C15   C21   A    
C100  H9    S    
C140  H110  S    
C9    C75   S    
O27   C97   S    
O36   C115  S    
O54   C151  S    
C94   N22   A    
C15   F15   S    
