data_mof_unit_58305.cif
_audit_creation_date              2012-12-11T14:58:23-0500
_audit_creation_method            fapswitch 2.2
_symmetry_space_group_name_H-M    P1
_symmetry_Int_Tables_number       1
_space_group_crystal_system       triclinic
_cell_length_a                    11.184405
_cell_length_b                    10.9846
_cell_length_c                    18.729043
_cell_angle_alpha                 89.729272
_cell_angle_beta                  89.913145
_cell_angle_gamma                 59.376482
_cell_volume                      1980.04550912

loop_
_atom_site_label
_atom_site_type_symbol
_atom_type_description
_atom_site_fract_x
_atom_site_fract_y
_atom_site_fract_z
_atom_type_partial_charge
C1    C     C_R   0.357227 0.775854 0.397629 0.551466
C2    C     C_R   0.599440 0.178292 0.153671 0.053203
C3    C     C_R   0.341208 0.327176 0.165914 0.031537
C4    C     C_R   0.481610 0.261785 0.271020 -0.122830
C5    C     C_R   0.473010 0.259663 0.197681 -0.030481
C6    C     C_R   0.112642 0.646706 0.333066 -0.027527
C7    C     C_R   0.013973 0.755166 0.376047 -0.063611
C8    C     C_R   0.665517 0.029854 0.153120 -0.044904
C9    C     C_R   0.747136 0.952903 0.094756 -0.067216
C10   C     C_R   0.220356 0.404057 0.207340 -0.093158
C11   C     C_R   0.227880 0.411791 0.280785 -0.030134
C12   C     C_R   0.385860 0.353288 0.388351 0.571635
C13   C     C_R   0.900855 0.749028 0.399645 0.092366
C14   C     C_R   0.876310 0.647241 0.370856 -0.060725
C15   C     C_R   0.980505 0.532070 0.331746 -0.108466
C16   C     C_R   0.104733 0.528686 0.316949 0.021301
C17   C     C_R   0.361249 0.337255 0.313353 0.023058
C18   C     C_R   0.802572 0.261818 0.292741 -0.118589
C19   C     C_R   0.849558 0.234865 0.223812 0.065839
C20   C     C_R   0.835376 0.345788 0.179581 0.025024
C21   C     C_R   0.759539 0.485542 0.204544 -0.160064
C22   C     C_R   0.710343 0.511541 0.274375 -0.172038
C23   C     C_R   0.709621 0.418634 0.395464 0.555155
C24   C     C_R   0.739948 0.398168 0.319752 -0.013338
C25   C     C_R   0.432491 0.872135 0.292037 0.039535
C26   C     C_R   0.435053 0.879156 0.216969 -0.188301
C27   C     C_R   0.358445 0.835705 0.175538 0.012110
C28   C     C_R   0.282968 0.785277 0.210607 0.373947
C29   C     C_R   0.250560 0.822947 0.280933 -0.111910
C30   C     C_R   0.341507 0.836431 0.324943 -0.018710
C31   C     C_R   0.487401 0.254361 0.717863 -0.120174
C32   C     C_R   0.463208 0.236404 0.787748 -0.090753
C33   C     C_R   0.342157 0.339158 0.822903 0.025885
C34   C     C_R   0.343496 0.770547 0.603496 0.544102
C35   C     C_R   0.265917 0.473306 0.791694 -0.110794
C36   C     C_R   0.287249 0.490762 0.719485 -0.105308
C37   C     C_R   0.392681 0.376586 0.681138 0.016043
C38   C     C_R   0.923381 0.377860 0.700121 0.098839
C39   C     C_R   0.935342 0.383143 0.773910 0.049155
C40   C     C_R   0.914723 0.290496 0.818840 0.009754
C41   C     C_R   0.872321 0.202030 0.787569 0.326890
C42   C     C_R   0.836409 0.218037 0.715500 -0.134262
C43   C     C_R   0.853481 0.313184 0.672803 -0.047795
C44   C     C_R   0.196691 0.849123 0.710818 -0.151783
C45   C     C_R   0.409463 0.381424 0.603981 0.568886
C46   C     C_R   0.190823 0.857432 0.784327 -0.157237
C47   C     C_R   0.299986 0.853590 0.822945 0.022079
C48   C     C_R   0.416442 0.841173 0.785864 0.083054
C49   C     C_R   0.422448 0.829296 0.712495 -0.101115
C50   C     C_R   0.315629 0.828204 0.674928 0.002063
C51   C     C_R   0.909470 0.316147 0.111827 0.548561
C52   C     C_R   0.324620 0.293224 0.093317 0.548738
C53   C     C_R   0.309587 0.895826 0.104349 0.578509
C54   C     C_R   0.944273 0.283029 0.896159 0.588285
C55   C     C_R   0.301735 0.294085 0.888611 0.548048
C56   C     C_R   0.771507 0.370757 0.607560 0.570113
C57   C     C_R   0.274686 0.896950 0.897296 0.546980
C58   C     C_R   0.766644 0.023370 0.037632 -0.038755
C59   C     C_R   0.705584 0.170456 0.039124 -0.053867
C60   C     C_R   0.623894 0.247638 0.097154 -0.080485
Cr1   Cr    Cr6+3 0.601770 0.606860 0.505860 1.070621
Cr2   Cr    Cr6+3 0.291380 0.601660 0.495070 1.037908
Cr3   Cr    Cr6+3 0.606880 0.291510 0.499120 1.059803
Cr4   Cr    Cr6+3 0.062440 0.063090 0.008210 1.082028
Cr5   Cr    Cr6+3 0.062880 0.375170 0.998920 1.053464
Cr6   Cr    Cr6+3 0.374700 0.061720 0.992470 1.048110
H1    H     H_    0.584211 0.207518 0.294735 0.161143
H2    H     H_    0.775597 0.662582 0.378951 0.187249
H3    H     H_    0.966690 0.446334 0.314656 0.144055
H4    H     H_    0.821554 0.173048 0.326253 0.163213
H5    H     H_    0.743428 0.573683 0.171335 0.142609
H6    H     H_    0.656511 0.618360 0.293991 0.139546
H7    H     H_    0.486359 0.927931 0.191507 0.148865
H8    H     H_    0.795513 0.838878 0.094041 0.121458
H9    H     H_    0.153879 0.842716 0.301737 0.148189
H10   H     H_    0.576029 0.167616 0.691682 0.155704
H11   H     H_    0.536461 0.136440 0.812206 0.197356
H12   H     H_    0.188374 0.561869 0.821904 0.154947
H13   H     H_    0.218857 0.590202 0.693173 0.157406
H14   H     H_    0.789160 0.161262 0.694036 0.155766
H15   H     H_    0.111463 0.850493 0.682664 0.164794
H16   H     H_    0.026625 0.840847 0.394401 0.149073
H17   H     H_    0.098510 0.870902 0.810534 0.205477
H18   H     H_    0.514441 0.814337 0.685183 0.176404
H19   H     H_    0.828975 0.964145 0.992298 0.146183
H20   H     H_    0.717020 0.225735 0.994260 0.160359
H21   H     H_    0.570220 0.362130 0.095310 0.112007
H22   H     H_    0.209409 0.637846 0.319716 0.158750
H23   H     H_    0.652069 0.974383 0.197137 0.125150
H24   H     H_    0.118601 0.460357 0.182479 0.162148
O1    O     O_R   0.748800 0.497470 0.428000 -0.516745
O2    O     O_R   0.300070 0.471040 0.567100 -0.461802
O3    O     O_R   0.491670 0.258900 0.574910 -0.487733
O4    O     O_R   0.718780 0.304180 0.577850 -0.524866
O5    O     O_3   0.500010 0.500010 0.500020 -0.325576
O6    O     O_R   0.186690 0.923650 0.086970 -0.416011
O7    O     O_R   0.957250 0.194250 0.084630 -0.476726
O8    O     O_R   0.934970 0.407490 0.085330 -0.530397
O9    O     O_R   0.203780 0.365190 0.067090 -0.506434
O10   O     O_R   0.417600 0.174890 0.067840 -0.511972
O11   O     O_R   0.375320 0.946260 0.070860 -0.522689
O12   O     O_R   0.476420 0.724060 0.429470 -0.484164
O13   O     O_R   0.160600 0.919630 0.926660 -0.510532
O14   O     O_R   0.933060 0.190520 0.936020 -0.462892
O15   O     O_R   0.908880 0.403460 0.925020 -0.482088
O16   O     O_R   0.179600 0.361450 0.918490 -0.493051
O17   O     O_R   0.391510 0.170860 0.907530 -0.507772
O18   O     O_R   0.351130 0.942530 0.922260 -0.473755
O19   O     O_3   0.166667 0.166667 0.999870 -0.302413
O20   O     O_R   0.264580 0.744340 0.416750 -0.557641
O21   O     O_R   0.309380 0.472470 0.418200 -0.507232
O22   O     O_R   0.501710 0.260430 0.414300 -0.485853
O23   O     O_R   0.728090 0.305600 0.428960 -0.501734
O24   O     O_R   0.738760 0.495930 0.588610 -0.462431
O25   O     O_R   0.467110 0.722640 0.578360 -0.493244
O26   O     O_R   0.254530 0.742800 0.577360 -0.523581
I1    I     I_    0.787014 0.877387 0.487287 -0.255295
I2    I     I_    0.947676 0.019466 0.200249 -0.342923
I3    I     I_    0.529587 0.957036 0.351099 -0.385624
F1    F     F_    0.214798 0.731860 0.174310 -0.616590
I4    I     I_    0.012605 0.464549 0.629047 -0.234713
I5    I     I_    0.941518 0.562533 0.810724 -0.274441
F2    F     F_    0.851812 0.110690 0.827397 -0.636861
I6    I     I_    0.590261 0.840845 0.831623 -0.281840

loop_
_geom_bond_atom_site_label_1
_geom_bond_atom_site_label_2
_ccdc_geom_bond_type
C33   C55   S    
Cr4   O13   S    
C51   O7    A    
C41   C42   A    
C35   C36   A    
Cr6   O17   S    
C45   O3    A    
C31   H10   S    
C56   O4    A    
Cr3   O4    S    
C26   C27   A    
C39   I5    S    
C21   H5    S    
C18   C24   A    
C49   H18   S    
C54   O14   A    
C28   C29   A    
Cr5   O8    S    
C18   C19   A    
C20   C51   S    
C42   H14   S    
C2    C60   A    
C47   C57   S    
Cr6   O10   S    
C15   C16   A    
Cr3   O5    S    
C26   H7    S    
C6    H22   S    
C9    C58   A    
C22   H6    S    
Cr3   O22   S    
C45   O2    A    
C32   H11   S    
Cr2   O21   S    
C19   C20   A    
C19   I2    S    
C53   O11   A    
C8    C9    A    
Cr2   O2    S    
C12   C17   S    
Cr1   O25   S    
C23   C24   S    
C51   O8    A    
C59   C60   A    
C13   C14   A    
C53   O6    A    
Cr6   O11   S    
C15   H3    S    
C25   I3    S    
Cr5   O15   S    
C60   H21   S    
C44   C46   A    
C57   O13   A    
C34   C50   S    
C55   O16   A    
Cr5   O9    S    
Cr2   O5    S    
C44   H15   S    
C28   F1    S    
C39   C40   A    
C34   O25   A    
C52   O10   A    
C31   C37   A    
C55   O17   A    
Cr2   O26   S    
C29   C30   A    
C1    O20   A    
C23   O23   A    
C11   C16   S    
C47   C48   A    
Cr2   O20   S    
C57   O18   A    
Cr1   O5    S    
Cr5   O19   S    
C4    C17   A    
Cr4   O7    S    
C40   C54   S    
C22   C24   A    
C58   C59   A    
C2    C5    S    
C9    H8    S    
C37   C45   S    
C58   H19   S    
Cr5   O16   S    
C12   O22   A    
C44   C50   A    
C25   C30   A    
Cr4   O14   S    
C46   C47   A    
C11   C17   A    
C14   H2    S    
C52   O9    A    
C54   O15   A    
C31   C32   A    
C2    C8    A    
Cr6   O18   S    
C4    C5    A    
C3    C5    A    
C36   H13   S    
C48   I6    S    
C4    H1    S    
C13   I1    S    
C3    C52   S    
C27   C53   S    
C6    C7    A    
C29   H9    S    
Cr3   O3    S    
C35   H12   S    
C18   H4    S    
C32   C33   A    
C41   F2    S    
Cr1   O12   S    
C25   C26   A    
C59   H20   S    
C38   C43   A    
C3    C10   A    
Cr4   O19   S    
C38   C39   A    
C48   C49   A    
C1    C30   S    
C33   C35   A    
Cr4   O6    S    
C23   O1    A    
Cr6   O19   S    
C38   I4    S    
C10   C11   A    
C6    C16   A    
C46   H17   S    
Cr3   O23   S    
C43   C56   S    
C7    C13   A    
C7    H16   S    
C20   C21   A    
C10   H24   S    
C36   C37   A    
C49   C50   A    
C42   C43   A    
Cr1   O24   S    
C56   O24   A    
C14   C15   A    
C40   C41   A    
C8    H23   S    
C21   C22   A    
C34   O26   A    
C1    O12   A    
C12   O21   A    
Cr1   O1    S    
C27   C28   A    
