data_mof_unit_63948.cif
_audit_creation_date              2013-03-05T16:27:14-0500
_audit_creation_method            fapswitch 2.2
_symmetry_space_group_name_H-M    P1
_symmetry_Int_Tables_number       1
_space_group_crystal_system       triclinic
_cell_length_a                    19.404288
_cell_length_b                    18.199613
_cell_length_c                    11.712179
_cell_angle_alpha                 89.995342
_cell_angle_beta                  90.007324
_cell_angle_gamma                 90.210818
_cell_volume                      4136.13420042

loop_
_atom_site_label
_atom_site_type_symbol
_atom_site_description
_atom_site_fract_x
_atom_site_fract_y
_atom_site_fract_z
_atom_type_partial_charge
O1    O     O_R   0.400190 0.561980 0.499980 -0.535600
O2    O     O_R   0.599810 0.438020 0.500020 -0.549625
O3    O     O_R   0.599810 0.561980 0.500020 -0.506135
O4    O     O_R   0.400190 0.438020 0.499980 -0.534579
C1    C     C_R   0.367687 0.499849 0.500041 0.979334
C2    C     C_R   0.632106 0.500143 0.499910 0.979513
O5    O     O_R   0.500010 0.561950 0.337200 -0.529067
O6    O     O_R   0.499990 0.438050 0.662800 -0.545580
O7    O     O_R   0.499990 0.561950 0.662800 -0.548593
O8    O     O_R   0.500010 0.438050 0.337200 -0.559852
C3    C     C_R   0.500123 0.499989 0.283821 0.885949
C4    C     C_R   0.500073 0.499995 0.716179 0.882750
Cu1   Cu    Cu3+1 0.500000 0.573360 0.500000 1.161439
Cu2   Cu    Cu3+1 0.500000 0.426640 0.500000 1.138448
C5    C     C_1   0.500255 0.499978 0.162229 0.001334
C6    C     C_1   0.500209 0.499984 0.837774 0.000231
C7    C     C_1   0.500315 0.499978 0.059841 0.110137
C8    C     C_1   0.500295 0.499979 0.940161 0.109923
C9    C     C_R   0.743533 0.499860 0.395075 0.187507
C10   C     C_R   0.255309 0.536987 0.413727 0.173712
C11   C     C_R   0.255799 0.460339 0.586159 0.175354
C12   C     C_R   0.743492 0.496618 0.604530 0.179463
C13   C     C_R   0.815605 0.495902 0.396085 0.619767
C14   C     C_R   0.183122 0.535813 0.414836 0.606556
C15   C     C_R   0.183639 0.458801 0.583918 0.606046
C16   C     C_R   0.815544 0.492771 0.603353 0.624484
C17   C     C_R   0.851403 0.493173 0.499708 -0.188369
C18   C     C_R   0.147565 0.496576 0.499047 -0.172642
C19   C     C_R   0.707370 0.500571 0.499884 -0.389059
C20   C     C_R   0.292031 0.499283 0.500159 -0.411295
C21   C     C_R   0.962853 0.558189 0.531954 0.251409
C22   C     C_R   0.036135 0.431015 0.466871 0.252892
C23   C     C_R   0.035294 0.559130 0.531484 0.253881
C24   C     C_R   0.963623 0.430135 0.467038 0.254599
C25   C     C_R   0.071729 0.495551 0.498992 -0.065948
C26   C     C_R   0.927228 0.493693 0.499780 -0.067487
C27   C     C_R   0.452596 0.721206 0.436754 0.739158
C28   C     C_R   0.452627 0.278447 0.563293 0.738237
C29   C     C_R   0.547697 0.721324 0.563062 0.742623
C30   C     C_R   0.547593 0.279053 0.436724 0.734157
C31   C     C_R   0.451243 0.798377 0.437191 -0.214962
C32   C     C_R   0.451269 0.201262 0.562880 -0.215360
C33   C     C_R   0.549306 0.798520 0.562760 -0.215146
C34   C     C_R   0.549201 0.201871 0.437046 -0.214020
H1    H     H_    0.412178 0.826689 0.388176 0.223126
H2    H     H_    0.412238 0.172651 0.611963 0.223125
H3    H     H_    0.588543 0.826958 0.611641 0.222545
H4    H     H_    0.588366 0.173734 0.388031 0.221819
C35   C     C_R   0.500326 0.838406 0.500031 0.019013
C36   C     C_R   0.500296 0.161610 0.499938 0.019971
N1    N     N_R   0.500000 0.683620 0.500000 -0.311371
N2    N     N_R   0.500000 0.316380 0.500000 -0.308912
C37   C     C_R   0.499833 0.961043 0.604139 0.214940
C38   C     C_R   0.499710 0.038967 0.395836 0.215167
C39   C     C_R   0.501144 0.961035 0.395861 0.214403
C40   C     C_R   0.501236 0.038988 0.604112 0.214865
C41   C     C_R   0.500434 0.078695 0.499959 -0.135731
C42   C     C_R   0.500462 0.921322 0.500015 -0.135131
N3    N     N_R   0.707778 0.503371 0.287630 0.176315
O9    O     O_R   0.658830 0.550962 0.272000 -0.337201
O10   O     O_R   0.728591 0.464209 0.201401 -0.168903
N4    N     N_R   0.290527 0.573934 0.322095 0.217126
O11   O     O_R   0.267414 0.636093 0.283077 -0.148276
O12   O     O_R   0.340515 0.541493 0.268223 -0.334527
N5    N     N_R   0.291448 0.424805 0.678450 0.217163
O13   O     O_R   0.340708 0.458903 0.732295 -0.335970
O14   O     O_R   0.269384 0.362178 0.718012 -0.148002
N6    N     N_R   0.707681 0.496782 0.712019 0.164289
O15   O     O_R   0.659157 0.544309 0.731405 -0.295311
O16   O     O_R   0.728070 0.454501 0.794949 -0.187928
F1    F     F_    0.851281 0.497752 0.296276 -0.526003
F2    F     F_    0.147181 0.570371 0.331089 -0.532973
F3    F     F_    0.148136 0.423121 0.667314 -0.533375
F4    F     F_    0.851121 0.490574 0.703245 -0.524386
N7    N     N_R   0.925508 0.622386 0.567326 0.184908
O17   O     O_R   0.940243 0.654431 0.663638 -0.174131
O18   O     O_R   0.877073 0.649392 0.503141 -0.262433
N8    N     N_R   0.073571 0.365862 0.436336 0.185033
O19   O     O_R   0.058959 0.303352 0.484702 -0.181926
O20   O     O_R   0.122267 0.368678 0.360071 -0.263941
N9    N     N_R   0.071802 0.625201 0.561882 0.184423
O21   O     O_R   0.056326 0.687299 0.513332 -0.180821
O22   O     O_R   0.120322 0.623676 0.638536 -0.264327
N10   N     N_R   0.927018 0.365191 0.431531 0.186976
O23   O     O_R   0.942454 0.333215 0.335566 -0.174999
O24   O     O_R   0.878148 0.337789 0.494770 -0.263619
F5    F     F_    0.406319 0.684199 0.371961 -0.569535
F6    F     F_    0.406368 0.315139 0.628023 -0.570154
F7    F     F_    0.594243 0.684397 0.627121 -0.566255
F8    F     F_    0.594000 0.316349 0.372357 -0.588063
N11   N     N_R   0.497622 0.922338 0.710984 0.168642
O25   O     O_R   0.543963 0.934989 0.788922 -0.207923
O26   O     O_R   0.448967 0.874659 0.730980 -0.263525
N12   N     N_R   0.497365 0.077651 0.288995 0.168439
O27   O     O_R   0.543620 0.065377 0.210931 -0.209006
O28   O     O_R   0.448673 0.124930 0.269127 -0.263805
N13   N     N_R   0.503412 0.922331 0.289040 0.168840
O29   O     O_R   0.457144 0.934646 0.210990 -0.207663
O30   O     O_R   0.552007 0.874935 0.269223 -0.258382
N14   N     N_R   0.503595 0.077710 0.710928 0.168672
O31   O     O_R   0.457419 0.065001 0.789094 -0.208017
O32   O     O_R   0.552191 0.125509 0.730633 -0.262858

loop_
_geom_bond_atom_site_label_1
_geom_bond_atom_site_label_2
_geom_bond_distance
_ccdc_geom_bond_type
C29   N1    1.366825 A    
C12   C19   1.413781 A    
O3    C2    1.290151 A    
N9    O21   1.301197 A    
C10   C20   1.416571 A    
C15   C18   1.397843 A    
O5    C3    1.289425 A    
C16   C17   1.399269 A    
O1    C1    1.292716 A    
N10   O24   1.301226 A    
C28   C32   1.404885 A    
C27   N1    1.366427 A    
N8    O20   1.301221 A    
C28   N2    1.366221 A    
C40   C41   1.417901 A    
C32   H2    1.082765 S    
O7    Cu1   1.918000 S    
C16   F4    1.359026 S    
N4    O12   1.300762 A    
N9    O22   1.301219 A    
Cu1   N1    2.006689 S    
C3    C5    1.424108 S    
Cu2   N2    2.006689 S    
C4    C6    1.424138 S    
C18   C25   1.471588 S    
N6    O15   1.300915 A    
N5    O14   1.301335 A    
C37   N11   1.436537 S    
C21   C23   1.405717 A    
C13   C17   1.399268 A    
C15   F3    1.359077 S    
O3    Cu1   1.948542 S    
N3    O9    1.300703 A    
Cu1   Cu2   2.670245 S    
O4    Cu2   1.948544 S    
O2    C2    1.290655 A    
C24   N10   1.438160 S    
C31   C35   1.405103 A    
N13   O30   1.301221 A    
N13   O29   1.301206 A    
N3    O10   1.301292 A    
C22   C25   1.411418 A    
C13   F1    1.359019 S    
N10   O23   1.301205 A    
O8    Cu2   1.918000 S    
N11   O25   1.301205 A    
N8    O19   1.301202 A    
C33   C35   1.405281 A    
C29   C33   1.405184 A    
C9    N3    1.438447 S    
C30   N2    1.366923 A    
C35   C42   1.509032 S    
C28   F6    1.353185 S    
C22   C24   1.407070 A    
C9    C13   1.400673 A    
N7    O17   1.301195 A    
C10   N4    1.437926 S    
N4    O11   1.301308 A    
N11   O26   1.301219 A    
C21   N7    1.438137 S    
C30   C34   1.405154 A    
O6    C4    1.289168 A    
C39   N13   1.436576 S    
N14   O32   1.301221 A    
C7    C8    1.401710 S    
N12   O28   1.301217 A    
N7    O18   1.301211 A    
C12   N6    1.438067 S    
C32   C36   1.405201 A    
N6    O16   1.301563 A    
O1    Cu1   1.947029 S    
C40   N14   1.436579 S    
C9    C19   1.414122 A    
C14   F2    1.359044 S    
C1    C20   1.468063 S    
C37   C40   1.418734 A    
C34   C36   1.405336 A    
C5    C7    1.199187 T    
C11   C15   1.400629 A    
C38   C39   1.418717 A    
O6    Cu2   1.918034 S    
C11   N5    1.438102 S    
C36   C41   1.509040 S    
C27   F5    1.353255 S    
C14   C18   1.398281 A    
O4    C1    1.291984 A    
C37   C42   1.417812 A    
C17   C26   1.471330 S    
C11   C20   1.416895 A    
C33   H3    1.082751 S    
N14   O31   1.301202 A    
C23   C25   1.410597 A    
C29   F7    1.354437 S    
C24   C26   1.410678 A    
C27   C31   1.404847 A    
N12   O27   1.301203 A    
O2    Cu2   1.947027 S    
O7    C4    1.289237 A    
C38   N12   1.436545 S    
O8    C3    1.288980 A    
C22   N8    1.438079 S    
O5    Cu1   1.918034 S    
C2    C19   1.460429 S    
C6    C8    1.199186 T    
N5    O13   1.300793 A    
C12   C16   1.400197 A    
C39   C42   1.417893 A    
C31   H1    1.082760 S    
C21   C26   1.411267 A    
C30   F8    1.354815 S    
C23   N9    1.438134 S    
C10   C14   1.400874 A    
C34   H4    1.082755 S    
C38   C41   1.417826 A    
