data_mof_unit_35494.cif
_audit_creation_date              2012-12-11T16:34:04-0500
_audit_creation_method            fapswitch 2.2
_symmetry_space_group_name_H-M    P1
_symmetry_Int_Tables_number       1
_space_group_crystal_system       triclinic
_cell_length_a                    8.26152
_cell_length_b                    17.407634
_cell_length_c                    27.026011
_cell_angle_alpha                 95.487353
_cell_angle_beta                  92.583748
_cell_angle_gamma                 83.533782
_cell_volume                      3841.96826733

loop_
_atom_site_label
_atom_site_type_symbol
_atom_type_description
_atom_site_fract_x
_atom_site_fract_y
_atom_site_fract_z
_atom_type_partial_charge
Ba1   Ba    Ba6+2 0.856110 0.463800 0.523550 1.642478
Ba2   Ba    Ba6+2 0.333710 0.536130 0.476450 1.642633
C1    C     C_3   0.663183 0.187457 0.655499 -0.365766
C2    C     C_R   0.873329 0.565201 0.173241 0.563422
C3    C     C_2   0.744401 0.540947 0.271049 -0.110288
C4    C     C_3   0.170023 0.290937 0.658866 0.291432
C5    C     C_3   0.729608 0.571832 0.324745 -0.063287
C6    C     C_1   0.980279 0.488297 0.342658 0.032633
C7    C     C_2   0.019504 0.485030 0.294745 -0.116133
C8    C     C_2   0.892780 0.509328 0.255013 0.201142
C9    C     C_R   0.009396 0.499558 0.100022 -0.080673
C10   C     C_R   0.066127 0.437754 0.128580 -0.037435
C11   C     C_R   0.163723 0.374316 0.105757 -0.061305
C12   C     C_3   0.665258 0.266405 0.636064 0.343840
C13   C     C_R   0.911154 0.563131 0.122667 -0.025110
C14   C     C_2   0.843136 0.526917 0.359496 -0.275039
C15   C     C_2   0.351885 0.479950 0.641361 -0.282262
C16   C     C_3   0.145250 0.271495 0.711409 -0.343603
C17   C     C_R   0.192054 0.432243 0.975181 0.019480
C18   C     C_R   0.034311 0.560463 0.970051 0.020341
C19   C     C_R   0.133960 0.495893 0.947392 0.049773
C20   C     C_R   0.290529 0.369516 0.950540 -0.099833
C21   C     C_R   0.330446 0.369399 0.900907 -0.061040
C22   C     C_R   0.274616 0.431754 0.873187 -0.031020
C23   C     C_3   0.499068 0.655301 0.627189 0.302037
C24   C     C_R   0.176201 0.495129 0.896360 -0.077533
C25   C     C_R   0.120590 0.557979 0.868543 -0.033401
C26   C     C_R   0.164207 0.556990 0.818389 0.589747
C27   C     C_R   0.315100 0.431798 0.822712 0.579208
C28   C     C_3   0.200833 0.300480 0.417845 0.314938
C29   C     C_2   0.458038 0.480189 0.729318 -0.072363
C30   C     C_3   0.500000 0.486445 0.675726 -0.052818
C31   C     C_1   0.209861 0.513014 0.656792 0.038751
C32   C     C_2   0.170496 0.511996 0.703929 -0.106640
C33   C     C_2   0.300649 0.493847 0.743403 0.199353
C34   C     C_3   0.474995 0.685005 0.681459 -0.372815
C35   C     C_R   0.150470 0.433401 0.026280 0.019614
C36   C     C_R   0.050785 0.498032 0.048847 0.049459
C37   C     C_R   0.992027 0.561365 0.020876 0.020558
C38   C     C_R   0.205069 0.372091 0.056029 -0.099242
C39   C     C_R   0.853395 0.624685 0.094568 -0.064355
C40   C     C_3   0.216752 0.213004 0.405027 -0.385524
C41   C     C_R   0.980757 0.622435 0.940797 -0.100756
C42   C     C_R   0.023033 0.621101 0.891457 -0.062516
C43   C     C_R   0.892270 0.623905 0.045055 -0.103968
C44   C     C_R   0.411441 0.279542 0.521054 -0.287129
C45   C     C_3   0.035814 0.696119 0.340570 0.377076
C46   C     C_R   0.553127 0.255080 0.495384 0.068835
C47   C     C_R   0.611425 0.175946 0.490072 -0.115722
C48   C     C_R   0.526353 0.121292 0.510093 -0.005770
C49   C     C_R   0.379947 0.146415 0.534518 -0.132790
C50   C     C_R   0.321684 0.225727 0.539209 0.007636
C51   C     C_R   0.594320 0.836094 0.509697 -0.117333
C52   C     C_3   0.994665 0.699509 0.581324 0.308929
C53   C     C_R   0.643531 0.756190 0.503717 0.043173
C54   C     C_R   0.880403 0.779512 0.460006 0.003758
C55   C     C_R   0.831866 0.859948 0.465704 -0.137908
C56   C     C_3   0.974460 0.725852 0.290969 -0.237619
C57   C     C_R   0.686537 0.888378 0.490054 0.004504
C58   C     C_1   0.633357 0.970874 0.496846 -0.002217
C59   C     C_1   0.585082 0.039401 0.503018 -0.002532
C60   C     C_R   0.782130 0.728340 0.477269 -0.278437
C61   C     C_3   0.975337 0.786887 0.594610 -0.384631
C62   C     C_3   0.681237 0.368542 0.374799 0.301390
C63   C     C_3   0.677087 0.348233 0.318809 -0.361719
C64   C     C_3   0.108497 0.744104 0.258118 -0.180322
C65   C     C_3   0.202478 0.671896 0.232139 -0.373170
C66   C     C_3   0.513752 0.812953 0.374279 -0.140649
C67   C     C_3   0.547571 0.744726 0.333944 0.409493
C68   C     C_3   0.380433 0.876764 0.361151 -0.386792
C69   C     C_3   0.557656 0.771504 0.281804 -0.373123
C70   C     C_R   0.024083 0.440507 0.179312 0.594156
H1    H     H_    0.776058 0.264758 0.614019 0.103842
H2    H     H_    0.805343 0.381233 0.387189 0.012192
H3    H     H_    0.592612 0.420404 0.383533 0.075351
H4    H     H_    0.773544 0.174263 0.679525 0.135085
H5    H     H_    0.767876 0.297648 0.308931 0.132519
H6    H     H_    0.706296 0.397968 0.299590 0.070411
H7    H     H_    0.554755 0.277510 0.611959 -0.035149
H8    H     H_    0.661747 0.141972 0.623775 0.078008
H9    H     H_    0.379940 0.640239 0.610790 0.030952
H10   H     H_    0.589406 0.602907 0.625089 0.035332
H11   H     H_    0.392863 0.740230 0.683891 0.138839
H12   H     H_    0.297629 0.196849 0.373094 0.127877
H13   H     H_    0.418723 0.642260 0.701113 0.076121
H14   H     H_    0.594247 0.695263 0.700080 0.124968
H15   H     H_    0.552739 0.187013 0.677391 0.123785
H16   H     H_    0.196783 0.314896 0.738523 0.128464
H17   H     H_    0.132482 0.646917 0.335016 0.093593
H18   H     H_    0.930945 0.674192 0.356574 -0.089171
H19   H     H_    0.900568 0.683344 0.270486 0.132662
H20   H     H_    0.894838 0.780520 0.299594 0.091992
H21   H     H_    0.671216 0.718422 0.343966 -0.075589
H22   H     H_    0.638774 0.818100 0.282388 0.076136
H23   H     H_    0.269340 0.182680 0.437159 0.062282
H24   H     H_    0.438020 0.795610 0.267106 0.108511
H25   H     H_    0.604406 0.721694 0.255726 0.142149
H26   H     H_    0.144218 0.466743 0.284415 0.133200
H27   H     H_    0.209646 0.325650 0.126465 0.120848
H28   H     H_    0.556192 0.470753 0.756883 0.106814
H29   H     H_    0.406269 0.319653 0.884226 0.121721
H30   H     H_    0.339536 0.318956 0.968484 0.068614
H31   H     H_    0.280879 0.320944 0.042147 0.068506
H32   H     H_    0.643933 0.555415 0.245150 0.117418
H33   H     H_    0.776998 0.674547 0.110882 0.120161
H34   H     H_    0.094821 0.193726 0.395094 0.125648
H35   H     H_    0.302886 0.287694 0.652975 -0.017896
H36   H     H_    0.978246 0.670399 0.871159 0.122231
H37   H     H_    0.044499 0.525087 0.714290 0.132897
H38   H     H_    0.361408 0.447970 0.604885 0.071319
H39   H     H_    0.487365 0.857514 0.530756 0.076709
H40   H     H_    0.309942 0.104675 0.548543 0.079928
H41   H     H_    0.907329 0.899773 0.452032 0.074033
H42   H     H_    0.720113 0.156880 0.469305 0.084725
H43   H     H_    0.365427 0.340441 0.524179 0.067433
H44   H     H_    0.013040 0.272783 0.717808 0.141299
H45   H     H_    0.874884 0.680152 0.569903 0.005313
H46   H     H_    0.820506 0.666600 0.473588 0.060527
H47   H     H_    0.207221 0.212877 0.717189 0.120741
H48   H     H_    0.323064 0.318971 0.426659 0.005038
H49   H     H_    0.122526 0.314990 0.450487 0.063282
H50   H     H_    0.553620 0.333840 0.305882 0.133349
H51   H     H_    0.248842 0.629430 0.258717 0.162845
H52   H     H_    0.123265 0.643663 0.203544 0.133592
H53   H     H_    0.307608 0.688935 0.213197 0.123970
H54   H     H_    0.052137 0.780619 0.229008 0.114264
H55   H     H_    0.191756 0.778886 0.281084 0.150296
H56   H     H_    0.079164 0.685776 0.550199 0.065245
H57   H     H_    0.418293 0.908377 0.330589 0.107072
H58   H     H_    0.264849 0.852850 0.350173 0.179042
H59   H     H_    0.358963 0.919200 0.394200 0.121668
H60   H     H_    0.482051 0.789438 0.408887 0.136506
H61   H     H_    0.627813 0.840730 0.382354 0.051890
H62   H     H_    0.112785 0.351093 0.655441 0.077349
H63   H     H_    0.905782 0.673774 0.954709 0.068328
H64   H     H_    0.841099 0.673940 0.026981 0.067614
H65   H     H_    0.828927 0.541795 0.399090 0.081219
H66   H     H_    0.885037 0.802407 0.624143 0.135769
H67   H     H_    0.932929 0.817597 0.561673 0.063601
H68   H     H_    0.094308 0.806374 0.608159 0.122588
N1    N     N_R   0.929890 0.504445 0.201786 -0.419446
N2    N     N_R   0.259247 0.493951 0.795580 -0.424242
O1    O     O_2   0.910880 0.540430 0.617910 -0.463744
O2    O     O_2   0.222411 0.772142 0.462085 -0.482321
O3    O     O_3   0.094327 0.756743 0.372041 -0.600862
O4    O     O_3   0.142880 0.540370 0.557740 -0.489773
O5    O     O_3   0.562610 0.408580 0.475460 -0.487339
O6    O     O_2   0.365880 0.685750 0.523280 -0.461312
O7    O     O_3   0.557063 0.713705 0.602902 -0.641889
O8    O     O_2   0.399787 0.541872 0.323950 -0.511237
O9    O     O_3   0.428128 0.692077 0.333577 -0.580365
O10   O     O_2   0.069872 0.385346 0.203077 -0.597557
O11   O     O_2   0.399299 0.376096 0.802908 -0.599578
O12   O     O_3   0.641101 0.304741 0.397498 -0.636420
O13   O     O_2   0.792663 0.622770 0.192044 -0.640098
O14   O     O_2   0.119364 0.613051 0.795274 -0.599336
O15   O     O_3   0.675650 0.402220 0.588450 -0.488227
O16   O     O_2   0.838398 0.438381 0.672785 -0.496703
O17   O     O_3   0.055799 0.663917 0.623454 -0.626427
O18   O     O_3   0.665678 0.323705 0.676279 -0.591288
O19   O     O_2   0.823810 0.314230 0.476690 -0.460579
O20   O     O_3   0.086630 0.363340 0.564170 -0.488232
O21   O     O_2   0.984271 0.226062 0.533340 -0.486570
O22   O     O_3   0.096854 0.237824 0.625003 -0.601117
O23   O     O_2   0.278810 0.459550 0.382060 -0.458051
O24   O     O_3   0.046820 0.459570 0.442260 -0.495521
O25   O     O_3   0.514050 0.597710 0.411540 -0.455046
O26   O     O_3   0.132298 0.335999 0.376494 -0.623356
O27   O     O_3   0.627090 0.591350 0.524530 -0.472530
O28   O     O_3   0.103080 0.636600 0.435820 -0.482805
P1    P     P_3+3 0.078810 0.562990 0.610370 0.999161
P2    P     P_3+3 0.645380 0.325580 0.462150 0.987080
P3    P     P_3+3 0.122338 0.262210 0.564778 0.936761
P4    P     P_3+3 0.110900 0.436950 0.389630 0.997614
P5    P     P_3+3 0.076505 0.737641 0.433770 0.964356
P6    P     P_3+3 0.670832 0.414327 0.653430 0.970382
P7    P     P_3+3 0.550254 0.688402 0.538700 0.955381
P8    P     P_3+3 0.517944 0.599265 0.347206 0.946160

loop_
_geom_bond_atom_site_label_1
_geom_bond_atom_site_label_2
_ccdc_geom_bond_type
C19   C24   A    
C45   O3    S    
C49   H40   S    
C44   C50   A    
C45   H17   S    
C61   H68   S    
C14   H65   S    
C15   H38   S    
C51   C57   A    
O20   P3    S    
C64   H55   S    
O26   P4    S    
C69   H25   S    
C24   C25   A    
C7    H26   S    
C39   H33   S    
C44   H43   S    
C66   H61   S    
C17   C19   A    
C22   C24   A    
C32   C33   S    
C35   C38   A    
C67   H21   S    
C65   H53   S    
C36   C37   A    
C6    P4    S    
C55   C57   A    
C52   C61   S    
C34   H11   S    
Ba2   O6    S    
C53   C60   A    
C62   O12   S    
C68   H58   S    
C54   C55   A    
C23   O7    S    
Ba1   Ba2   S    
C67   C69   S    
C22   C27   A    
C11   C38   A    
C17   C35   A    
C52   O17   S    
C46   P2    S    
O19   P2    D    
C9    C13   A    
C25   C42   A    
C56   C64   S    
O3    P5    S    
C66   C67   S    
C70   O10   D    
C21   C22   A    
C7    C8    S    
Ba2   O24   S    
C37   C43   A    
C51   H39   S    
C51   C53   A    
C64   C65   S    
C10   C70   A    
C3    H32   S    
Ba1   O19   S    
C57   C58   S    
C6    C14   D    
O4    P1    S    
C65   H52   S    
C23   H9    S    
O18   P6    S    
Ba1   O4    S    
C15   C31   D    
C1    H8    S    
O27   P7    S    
C63   H50   S    
C31   C32   D    
O28   P5    S    
C42   H36   S    
C70   N1    Am   
C4    C16   S    
C44   C46   A    
O24   P4    S    
C63   H5    S    
C54   P5    S    
C1    H15   S    
C40   H23   S    
C67   O9    S    
C12   H1    S    
C17   C20   A    
C40   H12   S    
C13   C39   A    
C16   H44   S    
C2    N1    Am   
C3    C5    S    
C18   C37   A    
C6    C7    D    
O9    P8    S    
C55   H41   S    
C69   H24   S    
C33   N2    S    
C34   H14   S    
O23   P4    D    
C53   P7    S    
C52   H56   S    
Ba1   P1    S    
C68   H57   S    
C16   H16   S    
C49   C50   A    
C5    P8    S    
C12   O18   S    
C58   C59   T    
C8    N1    S    
C66   H60   S    
C11   H27   S    
C9    C36   A    
C41   C42   A    
C35   C36   A    
Ba1   O1    S    
C30   P6    S    
C29   C30   S    
C28   H49   S    
C4    H35   S    
C2    O13   D    
O7    P7    S    
C48   C49   A    
O12   P2    S    
O22   P3    S    
C29   H28   S    
C10   C11   A    
C41   H63   S    
C1    H4    S    
C40   H34   S    
Ba2   O23   S    
C1    C12   S    
O17   P1    S    
Ba2   O28   S    
O16   P6    D    
C46   C47   A    
C4    O22   S    
Ba1   O20   S    
C23   H10   S    
C15   C30   S    
C45   H18   S    
C54   C60   A    
Ba1   O5    S    
C26   N2    Am   
O21   P3    D    
C18   C41   A    
O5    P2    S    
C50   P3    S    
C27   O11   D    
C56   H19   S    
C48   C59   S    
C5    C14   S    
C43   H64   S    
C39   C43   A    
C63   H6    S    
C23   C34   S    
C61   H67   S    
C65   H51   S    
O15   P6    S    
C9    C10   A    
C34   H13   S    
Ba2   O4    S    
O6    P7    D    
Ba1   P2    S    
C20   H30   S    
O8    P8    D    
C62   C63   S    
C2    C13   A    
Ba1   O15   S    
Ba2   O5    S    
O1    P1    D    
C3    C8    D    
C4    H62   S    
Ba2   P4    S    
C38   H31   S    
C21   H29   S    
C28   H48   S    
Ba1   O24   S    
C27   N2    Am   
C16   H47   S    
O2    P5    D    
Ba1   O27   S    
C68   H59   S    
C61   H66   S    
C62   H3    S    
C47   H42   S    
C29   C33   D    
C60   H46   S    
C12   H7    S    
Ba2   O27   S    
C28   O26   S    
C64   H54   S    
O25   P8    S    
C18   C19   A    
C66   C68   S    
C47   C48   A    
C52   H45   S    
C25   C26   A    
C26   O14   D    
C32   H37   S    
C62   H2    S    
C20   C21   A    
C28   C40   S    
C69   H22   S    
C56   H20   S    
Ba2   O25   S    
C45   C56   S    
C31   P1    S    
