data_mof_unit_5236.cif
_audit_creation_date              2012-10-26T20:06:12-0400
_audit_creation_method            fapswitch 2.2
_symmetry_space_group_name_H-M    P1
_symmetry_Int_Tables_number       1
_space_group_crystal_system       triclinic
_cell_length_a                    9.702131
_cell_length_b                    10.735235
_cell_length_c                    13.498435
_cell_angle_alpha                 91.86577
_cell_angle_beta                  74.511682
_cell_angle_gamma                 90.392188
_cell_volume                      1354.1477982

loop_
_atom_site_label
_atom_site_type_symbol
_atom_type_description
_atom_site_fract_x
_atom_site_fract_y
_atom_site_fract_z
_atom_type_partial_charge
C1    C     C_R   0.499611 0.736893 0.501734 0.579918
C2    C     C_R   0.379166 0.541979 0.812466 -0.027823
C3    C     C_R   0.568779 0.929201 0.411217 0.257354
C4    C     C_R   0.423808 0.511384 0.699324 0.536018
C5    C     C_R   0.565644 0.059667 0.408370 0.062606
C6    C     C_R   0.498653 0.128825 0.498551 0.019550
C7    C     C_R   0.428108 0.070248 0.589322 0.120767
C8    C     C_R   0.425678 0.940486 0.591848 0.193566
C9    C     C_R   0.498985 0.871001 0.502633 0.017348
C10   C     C_R   0.923469 0.607179 0.519537 0.109667
C11   C     C_R   0.062554 0.600950 0.535602 0.370432
C12   C     C_R   0.434405 0.564383 0.978604 0.071944
C13   C     C_R   0.086481 0.399097 0.462600 0.347104
C14   C     C_R   0.938309 0.396931 0.467342 0.380685
C15   C     C_R   0.500119 0.263033 0.498303 0.576836
C16   C     C_R   0.575343 0.494753 0.300474 0.553007
C17   C     C_R   0.787863 0.489767 0.020405 0.293809
C18   C     C_R   0.613299 0.493353 0.186503 -0.017007
C19   C     C_R   0.232328 0.546862 0.865681 0.245126
C20   C     C_R   0.190104 0.586000 0.968788 -0.021040
C21   C     C_R   0.289603 0.594211 0.026616 0.106587
C22   C     C_R   0.479168 0.569137 0.870196 -0.048301
C23   C     C_R   0.539254 0.538907 0.031730 0.027398
C24   C     C_R   0.685045 0.538415 0.975804 -0.028993
C25   C     C_R   0.724456 0.589445 0.877784 0.109028
C26   C     C_R   0.619465 0.611286 0.826940 0.118399
C27   C     C_R   0.503895 0.501418 0.134554 0.237310
C28   C     C_R   0.756733 0.480255 0.126389 0.094518
Cu1   Cu    Cu3+1 0.359340 0.499980 0.500000 1.057498
Cu2   Cu    Cu3+1 0.640660 0.500020 0.500000 0.947743
H1    H     H_    0.078835 0.607133 0.005192 0.194426
H2    H     H_    0.804322 0.770274 0.554887 0.255017
H3    H     H_    0.038232 0.759058 0.613050 0.331264
H4    H     H_    0.259012 0.334297 0.372131 0.355796
H5    H     H_    0.839019 0.328846 0.375711 0.328517
H6    H     H_    0.904623 0.587827 0.760833 0.255360
H7    H     H_    0.868656 0.726045 0.826662 0.263680
H8    H     H_    0.897748 0.406806 0.896238 0.343946
H9    H     H_    0.317282 0.493393 0.230308 0.359805
H10   H     H_    0.141848 0.433973 0.792072 0.344742
H11   H     H_    0.154841 0.605682 0.169459 0.235581
H12   H     H_    0.892652 0.516196 0.215715 0.241862
H13   H     H_    0.218585 0.743163 0.120745 0.243400
H14   H     H_    0.558920 0.724930 0.725677 0.247111
H15   H     H_    0.720440 0.653542 0.683243 0.254792
H16   H     H_    0.685729 0.907589 0.268751 0.367744
H17   H     H_    0.842049 0.362688 0.208897 0.237522
H18   H     H_    0.545185 0.174971 0.296907 0.244867
H19   H     H_    0.707577 0.178547 0.321580 0.246505
H20   H     H_    0.250439 0.119877 0.701058 0.275002
H21   H     H_    0.403608 0.121414 0.738775 0.265159
H22   H     H_    0.353621 0.795006 0.674839 0.339339
H23   H     H_    0.860910 0.725933 0.424002 0.291637
N1    N     N_R   0.147940 0.499970 0.499970 -0.262639
N2    N     N_R   0.852060 0.500060 0.499990 -0.291200
N3    N     N_3   0.871046 0.444099 0.168242 -0.559124
N4    N     N_3   0.624813 0.120350 0.313144 -0.625172
N5    N     N_3   0.358736 0.143919 0.679295 -0.586793
N6    N     N_3   0.883277 0.728398 0.495602 -0.609156
N7    N     N_3   0.868486 0.629437 0.834274 -0.535775
N8    N     N_3   0.247060 0.650756 0.127755 -0.608940
N9    N     N_3   0.650853 0.698283 0.745758 -0.624646
O1    O     O_R   0.381250 0.680340 0.500010 -0.425323
O2    O     O_3   0.116889 0.700545 0.579982 -0.621934
O3    O     O_3   0.167574 0.299896 0.412947 -0.623105
O4    O     O_3   0.890558 0.295042 0.422793 -0.626426
O5    O     O_3   0.914057 0.438633 0.961991 -0.632245
O6    O     O_3   0.374896 0.442100 0.172245 -0.671573
O7    O     O_3   0.128053 0.522212 0.816942 -0.637361
O8    O     O_3   0.635239 0.855114 0.326087 -0.684362
O9    O     O_R   0.618820 0.680370 0.500010 -0.519850
O10   O     O_R   0.323240 0.499950 0.650980 -0.453252
O11   O     O_R   0.560810 0.499980 0.650980 -0.507563
O12   O     O_R   0.381180 0.319630 0.499990 -0.479053
O13   O     O_R   0.618750 0.319660 0.499990 -0.479973
O14   O     O_R   0.439190 0.500020 0.349020 -0.524823
O15   O     O_R   0.676760 0.500050 0.349020 -0.533270
O16   O     O_3   0.352471 0.886782 0.682797 -0.690573

loop_
_geom_bond_atom_site_label_1
_geom_bond_atom_site_label_2
_ccdc_geom_bond_type
C15   O13   A    
Cu1   O1    S    
H9    O6    S    
C19   C20   A    
H11   N8    S    
Cu2   O9    S    
C28   N3    S    
H18   N4    S    
Cu1   O14   S    
C13   O3    S    
C12   C23   A    
C1    O9    A    
C5    C6    A    
Cu1   N1    S    
C12   C22   A    
H15   N9    S    
H19   N4    S    
C16   O15   A    
C27   O6    S    
H12   N3    S    
C6    C15   S    
Cu2   O15   S    
C8    C9    A    
C2    C22   A    
C23   C24   A    
C25   N7    S    
C23   C27   A    
C7    N5    S    
C21   N8    S    
Cu1   O10   S    
C14   N2    A    
C13   C14   A    
C8    O16   S    
H22   O16   S    
C1    O1    A    
H4    O3    S    
H23   N6    S    
C17   O5    S    
C17   C24   A    
H10   O7    S    
H20   N5    S    
C7    C8    A    
C3    O8    S    
C18   C28   A    
C24   C25   A    
C11   O2    S    
Cu2   O11   S    
Cu1   O12   S    
H5    O4    S    
H14   N9    S    
C25   C26   A    
C12   C21   A    
C2    C4    S    
Cu1   Cu2   S    
C3    C9    A    
C14   O4    S    
C1    C9    S    
H21   N5    S    
H8    O5    S    
C10   N2    A    
C4    O11   A    
C11   N1    A    
C19   O7    S    
C4    O10   A    
H13   N8    S    
C13   N1    A    
C2    C19   A    
C16   O14   A    
C17   C28   A    
C18   C27   A    
C3    C5    A    
C6    C7    A    
Cu2   N2    S    
C5    N4    S    
C10   N6    S    
C26   N9    S    
Cu2   O13   S    
H3    O2    S    
H16   O8    S    
H7    N7    S    
C10   C11   A    
C15   O12   A    
C20   C21   A    
C16   C18   S    
C22   C26   A    
H6    N7    S    
H2    N6    S    
H17   N3    S    
C20   H1    S    
