data_mof_unit_57073.cif
_audit_creation_date              2012-12-11T15:09:36-0500
_audit_creation_method            fapswitch 2.2
_symmetry_space_group_name_H-M    P1
_symmetry_Int_Tables_number       1
_space_group_crystal_system       triclinic
_cell_length_a                    20.968818
_cell_length_b                    7.126699
_cell_length_c                    13.99926
_cell_angle_alpha                 89.999638
_cell_angle_beta                  98.29371
_cell_angle_gamma                 90.000217
_cell_volume                      2070.14857625

loop_
_atom_site_label
_atom_site_type_symbol
_atom_type_description
_atom_site_fract_x
_atom_site_fract_y
_atom_site_fract_z
_atom_type_partial_charge
O1    O     O_R   0.447130 0.507140 0.597350 -0.542915
O2    O     O_R   0.552870 0.007140 0.402650 -0.542915
O3    O     O_R   0.578910 0.181280 0.586990 -0.546417
O4    O     O_R   0.421090 0.681280 0.413010 -0.546418
C1    C     C_R   0.604251 0.344378 0.607989 0.721987
C2    C     C_R   0.395749 0.844378 0.392011 0.721989
O5    O     O_R   0.449230 0.177860 0.608640 -0.545622
O6    O     O_R   0.550770 0.677860 0.391360 -0.545622
O7    O     O_R   0.422260 0.000770 0.424450 -0.524169
O8    O     O_R   0.577740 0.500770 0.575550 -0.524170
C3    C     C_R   0.432398 0.346225 0.634103 0.706399
C4    C     C_R   0.567602 0.846227 0.365898 0.706400
O9    O     O_3   0.491310 0.336980 0.439550 -0.376658
O10   O     O_3   0.508690 0.836980 0.560450 -0.376658
V1    V     V_3+5 0.501610 0.064760 0.511210 1.409863
V2    V     V_3+5 0.498390 0.564760 0.488790 1.409860
C5    C     C_R   0.622782 0.879959 0.123552 0.019777
C6    C     C_R   0.377216 0.379961 0.876446 0.019776
H1    H     H_    0.532031 0.885693 0.177956 0.113173
H2    H     H_    0.467968 0.385700 0.822044 0.113173
H3    H     H_    0.708977 0.824457 0.000591 0.143188
H4    H     H_    0.291020 0.324477 0.999408 0.143189
C7    C     C_R   0.610905 0.855579 0.292862 -0.079059
C8    C     C_R   0.389094 0.355573 0.707137 -0.079057
C9    C     C_R   0.924739 0.907768 0.309118 0.139491
C10   C     C_R   0.075259 0.407743 0.690878 0.139534
C11   C     C_R   0.886192 0.955279 0.378724 -0.142405
C12   C     C_R   0.113805 0.455202 0.621263 -0.142487
C13   C     C_R   0.819493 0.952858 0.357165 -0.192822
C14   C     C_R   0.180503 0.452794 0.642822 -0.192800
C15   C     C_R   0.788106 0.887006 0.267485 0.077885
C16   C     C_R   0.211892 0.386979 0.732509 0.077886
C17   C     C_R   0.826492 0.856418 0.193270 0.043406
C18   C     C_R   0.173506 0.356414 0.806728 0.043392
C19   C     C_R   0.719392 0.867705 0.246654 0.024053
C20   C     C_R   0.280607 0.367688 0.753342 0.024052
C21   C     C_R   0.690472 0.864807 0.148033 0.084111
C22   C     C_R   0.309526 0.364805 0.851964 0.084113
C23   C     C_R   0.729560 0.840411 0.075621 -0.201708
C24   C     C_R   0.270438 0.340421 0.924377 -0.201706
C25   C     C_R   0.795921 0.828436 0.098209 -0.186829
C26   C     C_R   0.204077 0.328449 0.901790 -0.186830
C27   C     C_R   0.678423 0.847190 0.319367 -0.066936
C28   C     C_R   0.321577 0.347170 0.680631 -0.066934
C29   C     C_R   0.583943 0.875248 0.196463 -0.251732
C30   C     C_R   0.416056 0.375250 0.803536 -0.251735
C31   C     C_R   0.894700 0.865693 0.214393 -0.114700
C32   C     C_R   0.105298 0.365695 0.785606 -0.114652
H5    H     H_    0.793502 0.013081 0.410410 0.138236
H6    H     H_    0.206492 0.513001 0.589569 0.138246
H7    H     H_    0.907991 0.001439 0.449632 0.131253
H8    H     H_    0.092003 0.501325 0.550348 0.131241
H9    H     H_    0.823098 0.804768 0.039205 0.126210
H10   H     H_    0.176901 0.304796 0.960796 0.126209
C33   C     C_1   0.167173 0.856128 0.166841 -0.195826
C34   C     C_1   0.832827 0.356129 0.833158 -0.195817
C35   C     C_1   0.219920 0.852449 0.217020 -0.018956
C36   C     C_1   0.780081 0.352451 0.782978 -0.018954
C37   C     C_1   0.281788 0.851018 0.276767 -0.013091
C38   C     C_1   0.718213 0.351020 0.723232 -0.013093
C39   C     C_1   0.333863 0.850061 0.328774 -0.193489
C40   C     C_1   0.666138 0.350062 0.671225 -0.193492
O11   O     O_R   0.922300 0.202240 0.924350 -0.529821
O12   O     O_R   0.077700 0.702240 0.075650 -0.529823
O13   O     O_R   0.050780 0.535130 0.891350 -0.541539
O14   O     O_R   0.949220 0.035130 0.108650 -0.541526
C41   C     C_R   0.066690 0.368430 0.864756 0.685792
C42   C     C_R   0.933308 0.868429 0.135242 0.685774
O15   O     O_R   0.921100 0.531560 0.912990 -0.542300
O16   O     O_R   0.078900 0.031560 0.087010 -0.542292
O17   O     O_R   0.947120 0.708470 0.097370 -0.537602
O18   O     O_R   0.052880 0.208470 0.902630 -0.537599
C43   C     C_R   0.895718 0.363465 0.893828 0.711928
C44   C     C_R   0.104282 0.863465 0.106171 0.711917
O19   O     O_3   0.008710 0.375800 0.060400 -0.373314
O20   O     O_3   0.991290 0.875800 0.939600 -0.373319
V3    V     V_3+5 0.998380 0.648080 0.988790 1.417485
V4    V     V_3+5 0.001620 0.148080 0.011210 1.417502
C45   C     C_R   0.591549 0.912520 0.022896 0.077730
C46   C     C_R   0.607765 0.071532 0.971921 -0.138898
C47   C     C_R   0.578456 0.102696 0.877084 -0.136486
C48   C     C_R   0.532304 0.976790 0.832934 -0.102583
C49   C     C_R   0.515260 0.820010 0.883545 -0.132465
C50   C     C_R   0.544878 0.787304 0.978108 -0.141924
H11   H     H_    0.643041 0.171080 0.005712 0.121226
H12   H     H_    0.591192 0.224997 0.838073 0.109615
H13   H     H_    0.509529 0.000999 0.759718 0.139909
H14   H     H_    0.479059 0.724184 0.849378 0.125234
H15   H     H_    0.532027 0.663942 0.016043 0.143363
C51   C     C_R   0.408449 0.412523 0.977102 0.077731
C52   C     C_R   0.392233 0.571536 0.028075 -0.138901
C53   C     C_R   0.421542 0.602699 0.122913 -0.136486
C54   C     C_R   0.467693 0.476793 0.167065 -0.102584
C55   C     C_R   0.484736 0.320012 0.116455 -0.132464
C56   C     C_R   0.455119 0.287306 0.021891 -0.141924
H16   H     H_    0.356957 0.671085 0.994283 0.121227
H17   H     H_    0.408805 0.725001 0.161923 0.109617
H18   H     H_    0.490467 0.501002 0.240280 0.139909
H19   H     H_    0.520936 0.224185 0.150623 0.125234
H20   H     H_    0.467970 0.163945 0.983957 0.143362
C57   C     C_R   0.704469 0.792424 0.420141 0.068501
C58   C     C_R   0.698381 0.913684 0.497651 -0.140037
C59   C     C_R   0.729582 0.872289 0.590241 -0.120561
C60   C     C_R   0.767112 0.710515 0.606175 -0.088730
C61   C     C_R   0.771666 0.585855 0.530369 -0.119691
C62   C     C_R   0.740161 0.625839 0.437685 -0.105969
H21   H     H_    0.672617 0.044956 0.485333 0.119670
H22   H     H_    0.726000 0.967804 0.649245 0.124404
H23   H     H_    0.792774 0.682269 0.677370 0.119098
H24   H     H_    0.800337 0.459612 0.543176 0.109618
H25   H     H_    0.745335 0.530618 0.378982 0.110962
C63   C     C_R   0.295535 0.292395 0.579858 0.068496
C64   C     C_R   0.301622 0.413655 0.502346 -0.140037
C65   C     C_R   0.270419 0.372260 0.409757 -0.120567
C66   C     C_R   0.232889 0.210485 0.393825 -0.088735
C67   C     C_R   0.228337 0.085824 0.469633 -0.119692
C68   C     C_R   0.259843 0.125807 0.562315 -0.105971
H26   H     H_    0.327384 0.544929 0.514663 0.119673
H27   H     H_    0.273999 0.467775 0.350752 0.124404
H28   H     H_    0.207225 0.182241 0.322632 0.119102
H29   H     H_    0.199666 0.959580 0.456827 0.109626
H30   H     H_    0.254670 0.030587 0.621019 0.110967
C69   C     C_3   0.997409 0.917548 0.336919 -0.348632
C70   C     C_3   0.021619 0.764867 0.409723 -0.769811
H31   H     H_    0.001152 0.783789 0.477965 0.223892
H32   H     H_    0.008075 0.624013 0.379318 0.229715
H33   H     H_    0.074965 0.772720 0.426450 0.210860
H34   H     H_    0.023461 0.901267 0.273913 0.162497
H35   H     H_    0.010831 0.057415 0.368815 0.173152
C71   C     C_3   0.002590 0.417558 0.663077 -0.348716
C72   C     C_3   0.978361 0.264667 0.590415 -0.769784
H36   H     H_    0.998920 0.283114 0.522214 0.223940
H37   H     H_    0.991794 0.123883 0.621019 0.229667
H38   H     H_    0.925023 0.272758 0.573561 0.210855
H39   H     H_    0.976536 0.401558 0.726098 0.162520
H40   H     H_    0.989184 0.557332 0.631059 0.173190

loop_
_geom_bond_atom_site_label_1
_geom_bond_atom_site_label_2
_ccdc_geom_bond_type
O14   C42   A    
C61   H24   S    
C54   C55   A    
C7    C29   A    
C11   C13   A    
O12   V3    S    
O15   V3    S    
C71   H39   S    
O1    C3    A    
C72   H38   S    
O2    C4    A    
C2    O7    A    
C65   C66   A    
C51   C52   A    
C69   C70   S    
C23   C25   A    
C13   H5    S    
O5    C3    A    
C4    C7    S    
C57   C58   A    
C16   C20   A    
C2    C39   S    
C19   C21   A    
C5    C29   A    
C45   C50   A    
C35   C37   S    
O16   V4    S    
C36   C38   S    
C66   C67   A    
C3    C8    S    
C5    C45   S    
C7    C27   A    
C67   C68   A    
C38   C40   T    
C41   O18   A    
C60   C61   A    
O18   V4    S    
C52   H16   S    
C33   C44   S    
O13   C41   A    
C18   C26   A    
O16   C44   A    
C15   C17   A    
O15   C43   A    
C59   H22   S    
C19   C27   A    
C9    C31   A    
C65   H27   S    
C10   C71   S    
C10   C32   A    
C24   C26   A    
C49   H14   S    
C14   H6    S    
O6    V2    S    
C22   C24   A    
C69   H35   S    
C55   C56   A    
C6    C30   A    
C63   C64   A    
C11   H7    S    
C53   H17   S    
C47   C48   A    
C62   H25   S    
O14   V4    S    
C37   C39   T    
O13   V3    S    
C67   H29   S    
C6    C51   S    
C51   C56   A    
O20   V3    S    
O4    C2    A    
C52   C53   A    
C56   H20   S    
O5    V1    S    
O11   C43   A    
C72   H37   S    
C45   C46   A    
C16   C18   A    
O4    V2    S    
C68   H30   S    
C27   C57   S    
C46   H11   S    
C9    C69   S    
C49   C50   A    
H3    C23   S    
O6    C4    A    
H4    C24   S    
C58   H21   S    
O1    V2    S    
C5    C21   A    
O2    V1    S    
O19   V3    S    
C25   H9    S    
C70   H33   S    
C28   C63   S    
C66   H28   S    
C33   C35   T    
C17   C31   A    
C15   C19   A    
C20   C28   A    
C18   C32   A    
C50   H15   S    
C72   H36   S    
C31   C42   S    
O17   V3    S    
O3    V1    S    
C70   H32   S    
C64   C65   A    
C57   C62   A    
C34   C43   S    
C71   H40   S    
C47   H12   S    
O20   V4    S    
C46   C47   A    
O3    C1    A    
H1    C29   S    
C9    C11   A    
C61   C62   A    
C10   C12   A    
C63   C68   A    
C8    C30   A    
C12   C14   A    
C71   C72   S    
C6    C22   A    
C17   C25   A    
C1    O8    A    
C13   C15   A    
O8    V2    S    
C26   H10   S    
C14   C16   A    
C12   H8    S    
C69   H34   S    
C60   H23   S    
C55   H19   S    
C42   O17   A    
C8    C28   A    
C20   C22   A    
C53   C54   A    
C34   C36   T    
C1    C40   S    
C32   C41   S    
O7    V1    S    
C58   C59   A    
O19   V4    S    
C64   H26   S    
C21   C23   A    
C48   C49   A    
O9    V2    S    
C59   C60   A    
O12   C44   A    
O10   V1    S    
C54   H18   S    
H2    C30   S    
C48   H13   S    
C70   H31   S    
O11   V4    S    
