data_mof_unit_50013.cif
_audit_creation_date              2013-03-05T16:06:12-0500
_audit_creation_method            fapswitch 2.2
_symmetry_space_group_name_H-M    P1
_symmetry_Int_Tables_number       1
_space_group_crystal_system       triclinic
_cell_length_a                    6.918263
_cell_length_b                    28.798348
_cell_length_c                    32.151543
_cell_angle_alpha                 100.758585
_cell_angle_beta                  89.713966
_cell_angle_gamma                 90.572136
_cell_volume                      6292.75584845

loop_
_atom_site_label
_atom_site_type_symbol
_atom_site_description
_atom_site_fract_x
_atom_site_fract_y
_atom_site_fract_z
_atom_type_partial_charge
O1    O     O_R   0.494350 0.453170 0.452520 -0.564203
O2    O     O_R   0.820980 0.455850 0.538220 -0.605076
O3    O     O_R   0.994300 0.546830 0.547480 -0.604464
C1    C     C_R   0.651577 0.445452 0.551523 0.928101
O4    O     O_R   0.823860 0.447590 0.452270 -0.560807
O5    O     O_R   0.997200 0.538510 0.460920 -0.567240
C2    C     C_R   0.653985 0.435229 0.436078 0.960214
O6    O     O_R   0.491440 0.461490 0.539080 -0.597942
O7    O     O_3   0.661790 0.529840 0.502940 -0.258995
V1    V     V_3+5 0.935470 0.494460 0.499450 1.209333
O8    O     O_R   0.327090 0.544150 0.461780 -0.558101
C3    C     C_R   0.160012 0.553470 0.447418 0.961915
O9    O     O_R   0.324210 0.552410 0.547730 -0.605908
C4    C     C_R   0.155278 0.565333 0.563441 0.907752
V2    V     V_3+5 0.435840 0.505540 0.500550 1.212271
O10   O     O_3   0.159650 0.470160 0.497060 -0.240952
C5    C     C_R   0.217838 0.889353 0.874383 -0.154789
H1    H     H_    0.345284 0.910777 0.883903 0.135270
C6    C     C_R   0.226940 0.854807 0.837484 -0.115918
H2    H     H_    0.360586 0.850525 0.819522 0.128146
C7    C     C_R   0.064627 0.826563 0.823478 0.159286
C8    C     C_R   0.894181 0.832933 0.847878 -0.096322
H3    H     H_    0.768214 0.810929 0.838420 0.085362
C9    C     C_R   0.883965 0.868034 0.884458 -0.147162
H4    H     H_    0.749639 0.872454 0.902134 0.125348
C10   C     C_R   0.045669 0.896782 0.898155 -0.128972
C11   C     C_R   0.935019 0.785379 0.751325 -0.065999
C12   C     C_R   0.950242 0.748203 0.716054 -0.214182
H5    H     H_    0.844645 0.745310 0.690904 0.150495
C13   C     C_R   0.104499 0.716172 0.711790 0.081789
C14   C     C_R   0.244673 0.721687 0.743793 -0.100064
H6    H     H_    0.364274 0.697405 0.741836 0.106119
C15   C     C_R   0.230051 0.757834 0.779319 -0.108618
H7    H     H_    0.338938 0.760328 0.803758 0.107748
C16   C     C_R   0.075754 0.789888 0.783964 0.002487
C17   C     C_R   0.299013 0.663937 0.654954 -0.132024
H8    H     H_    0.430421 0.681965 0.667373 0.113067
C18   C     C_R   0.311422 0.627708 0.619220 -0.155033
H9    H     H_    0.452251 0.618514 0.605450 0.127342
C19   C     C_R   0.144054 0.603948 0.601402 -0.125681
C20   C     C_R   0.964310 0.617308 0.620438 -0.142725
H10   H     H_    0.832216 0.599709 0.607904 0.127931
C21   C     C_R   0.952028 0.653381 0.656132 -0.149193
H11   H     H_    0.811350 0.662087 0.670181 0.105014
C22   C     C_R   0.118978 0.677334 0.673876 0.125836
C23   C     C_R   0.941756 0.675707 0.300192 0.493968
N1    N     N_R   0.100362 0.678329 0.326153 -0.183430
C24   C     C_R   0.247523 0.710042 0.323253 0.470779
C25   C     C_R   0.240532 0.739805 0.293117 -0.049473
C26   C     C_R   0.079393 0.737209 0.266188 -0.015369
C27   C     C_R   0.927864 0.705183 0.269853 -0.054093
C28   C     C_R   0.391016 0.771950 0.289218 -0.130626
C29   C     C_R   0.382325 0.800787 0.258794 -0.136012
C30   C     C_R   0.222453 0.798384 0.231628 -0.044839
C31   C     C_R   0.070106 0.766620 0.235444 -0.013340
C32   C     C_R   0.908921 0.764077 0.208479 -0.051865
C33   C     C_R   0.758101 0.732096 0.212526 -0.130076
C34   C     C_R   0.767461 0.703019 0.242804 -0.117011
C35   C     C_R   0.210705 0.827059 0.200724 0.493950
N2    N     N_R   0.051720 0.824773 0.175060 -0.185245
C36   C     C_R   0.902672 0.793798 0.178243 0.446817
O11   O     O_2   0.799162 0.644176 0.303144 -0.540513
O12   O     O_2   0.400091 0.713072 0.349638 -0.550025
H12   H     H_    0.516984 0.774682 0.309432 0.172391
H13   H     H_    0.501681 0.824849 0.256567 0.157936
O13   O     O_2   0.356996 0.857059 0.196364 -0.565651
O14   O     O_2   0.748141 0.792071 0.152564 -0.537110
H14   H     H_    0.631949 0.729486 0.192376 0.175471
H15   H     H_    0.648260 0.678906 0.244973 0.174020
C37   C     C_R   0.076200 0.838219 0.101859 -0.026020
H16   H     H_    0.106791 0.801040 0.091544 0.118720
C38   C     C_R   0.076150 0.867994 0.072194 -0.191944
H17   H     H_    0.104484 0.853198 0.039235 0.111391
C39   C     C_R   0.037996 0.916283 0.084586 -0.195206
C40   C     C_R   0.999870 0.935211 0.127815 -0.114360
C41   C     C_R   0.002760 0.904844 0.158045 -0.010061
C42   C     C_R   0.040380 0.856064 0.144738 0.177035
C43   C     C_R   0.976065 0.646205 0.387756 -0.060783
H18   H     H_    0.853384 0.669605 0.389973 0.148006
C44   C     C_R   0.993953 0.615986 0.416943 -0.122965
H19   H     H_    0.883046 0.616801 0.440955 0.162161
C45   C     C_R   0.153430 0.585680 0.415887 -0.243174
C46   C     C_R   0.296810 0.586224 0.383811 -0.104553
C47   C     C_R   0.273476 0.616035 0.354162 -0.086295
H20   H     H_    0.380659 0.616027 0.329440 0.175031
C48   C     C_R   0.115846 0.646589 0.356117 0.178674
C49   C     C_R   0.634221 0.221893 0.836246 0.462783
N3    N     N_R   0.574482 0.175858 0.824714 -0.187067
C50   C     C_R   0.520792 0.157636 0.783864 0.493290
C51   C     C_R   0.516358 0.186761 0.752696 -0.118051
C52   C     C_R   0.584941 0.233934 0.764185 0.006831
C53   C     C_R   0.642927 0.251636 0.806228 -0.039298
C54   C     C_R   0.452004 0.170562 0.710315 -0.097517
C55   C     C_R   0.472306 0.199900 0.680238 -0.132731
C56   C     C_R   0.543392 0.246261 0.691447 -0.045638
C57   C     C_R   0.596435 0.263664 0.733647 -0.003018
C58   C     C_R   0.662178 0.310810 0.745312 -0.048397
C59   C     C_R   0.716897 0.327955 0.787403 -0.120038
C60   C     C_R   0.707854 0.298720 0.817439 -0.118122
C61   C     C_R   0.559433 0.276068 0.661414 0.537049
N4    N     N_R   0.621457 0.321947 0.673345 -0.176686
C62   C     C_R   0.671709 0.339689 0.714459 0.526781
O15   O     O_2   0.684879 0.238902 0.876740 -0.549148
O16   O     O_2   0.478859 0.111133 0.773404 -0.511955
H21   H     H_    0.424835 0.186835 0.648050 0.192037
O17   O     O_2   0.514458 0.259239 0.620588 -0.557563
O18   O     O_2   0.732101 0.384999 0.725378 -0.553989
H22   H     H_    0.767898 0.363992 0.797270 0.173354
H23   H     H_    0.752431 0.313181 0.849526 0.175546
C63   C     C_R   0.473493 0.380494 0.637198 -0.071127
H24   H     H_    0.345637 0.379402 0.656571 0.126871
C64   C     C_R   0.477375 0.410133 0.607327 -0.127699
H25   H     H_    0.352328 0.431600 0.604377 0.128756
C65   C     C_R   0.642335 0.412719 0.582234 -0.142799
C66   C     C_R   0.801477 0.384179 0.587052 -0.222848
H26   H     H_    0.928788 0.385803 0.567606 0.180236
C67   C     C_R   0.798833 0.353585 0.616514 -0.044920
C68   C     C_R   0.632565 0.352200 0.642258 0.156008
C69   C     C_R   0.387864 0.129869 0.868936 -0.061532
H27   H     H_    0.255343 0.140198 0.855521 0.114609
C70   C     C_R   0.379058 0.100471 0.898988 -0.166516
H28   H     H_    0.238660 0.088590 0.907999 0.131553
C71   C     C_R   0.549244 0.086279 0.916805 -0.134797
C72   C     C_R   0.728405 0.102566 0.903871 -0.175090
H29   H     H_    0.862233 0.092417 0.916866 0.132862
C73   C     C_R   0.736794 0.132203 0.873913 -0.047256
H30   H     H_    0.875864 0.144199 0.864246 0.112590
C74   C     C_R   0.566567 0.145948 0.856146 0.220245
C75   C     C_R   0.726001 0.112672 0.123272 -0.153109
H31   H     H_    0.854381 0.092938 0.112112 0.172159
C76   C     C_R   0.739744 0.147500 0.159804 -0.160339
H32   H     H_    0.877505 0.152794 0.175880 0.110668
C77   C     C_R   0.577686 0.174367 0.175671 0.121161
C78   C     C_R   0.400783 0.164901 0.153966 -0.144568
H33   H     H_    0.273264 0.185276 0.164556 0.100199
C79   C     C_R   0.386389 0.129446 0.117736 -0.106343
H34   H     H_    0.248022 0.123103 0.101983 0.134267
C80   C     C_R   0.549127 0.102983 0.101836 -0.137743
C81   C     C_R   0.435860 0.221970 0.242607 -0.158914
H35   H     H_    0.302294 0.201918 0.237144 0.112507
C82   C     C_R   0.449027 0.257704 0.278521 -0.160185
H36   H     H_    0.324905 0.264516 0.299366 0.112249
C83   C     C_R   0.620704 0.284054 0.287762 0.116281
C84   C     C_R   0.779686 0.273613 0.260422 -0.152695
H37   H     H_    0.913157 0.293663 0.266527 0.118596
C85   C     C_R   0.765811 0.238285 0.224110 -0.159399
H38   H     H_    0.889442 0.232392 0.203097 0.111047
C86   C     C_R   0.593372 0.211959 0.214570 0.107210
C87   C     C_R   0.789466 0.328539 0.352621 -0.149340
H39   H     H_    0.908934 0.304125 0.346871 0.109736
C88   C     C_R   0.793609 0.364678 0.388421 -0.097099
H40   H     H_    0.916542 0.366881 0.409394 0.168753
C89   C     C_R   0.640236 0.396859 0.397688 -0.242736
C90   C     C_R   0.479678 0.391692 0.369360 -0.038429
C91   C     C_R   0.478257 0.355248 0.333656 -0.183141
H41   H     H_    0.356344 0.351829 0.312173 0.127934
C92   C     C_R   0.630629 0.323174 0.325165 0.102137
O19   O     O_R   0.699170 0.038480 0.960880 -0.595593
O20   O     O_R   0.366800 0.052460 0.047690 -0.581193
O21   O     O_R   0.193520 0.961530 0.039110 -0.569258
C93   C     C_R   0.536090 0.065139 0.063484 0.954186
O22   O     O_R   0.369630 0.044100 0.961740 -0.602379
O23   O     O_R   0.196370 0.953120 0.952550 -0.600647
C94   C     C_R   0.539053 0.054294 0.948214 0.933801
O24   O     O_R   0.696320 0.046890 0.047450 -0.592835
O25   O     O_3   0.528890 0.970170 0.997080 -0.271624
V3    V     V_3+5 0.255190 0.005530 0.000540 1.181205
O26   O     O_R   0.866460 0.947530 0.952310 -0.599997
C95   C     C_R   0.035307 0.934719 0.936559 0.916606
O27   O     O_R   0.863630 0.955880 0.038270 -0.594575
C96   C     C_R   0.031573 0.946055 0.051761 0.999103
V4    V     V_3+5 0.754830 0.994440 0.999470 1.174742
O28   O     O_3   0.031000 0.029830 0.002920 -0.271993
C97   C     C_2   0.955316 0.986298 0.141306 0.957467
O29   O     O_2   0.050449 0.016101 0.127484 -0.671176
O30   O     O_R   0.804832 0.000282 0.169971 -0.786768
H42   H     H_    0.789398 0.035864 0.176867 0.324992
C98   C     C_R   0.975622 0.923827 0.203832 0.128936
C99   C     C_R   0.816737 0.909263 0.225669 -0.118870
C100  C     C_R   0.793663 0.926293 0.269020 -0.116335
C101  C     C_R   0.929277 0.957923 0.290854 -0.082117
C102  C     C_R   0.088090 0.972548 0.269347 -0.115335
C103  C     C_R   0.111506 0.955585 0.225971 -0.057183
H43   H     H_    0.711416 0.884731 0.209085 0.188465
H44   H     H_    0.670829 0.914918 0.285677 0.123576
H45   H     H_    0.911453 0.971051 0.324439 0.118415
H46   H     H_    0.193349 0.996924 0.286311 0.121367
H47   H     H_    0.235987 0.966828 0.209699 0.132816
C104  C     C_2   0.470057 0.555739 0.378300 1.002080
O31   O     O_2   0.581751 0.555678 0.407606 -0.637078
O32   O     O_R   0.514155 0.529967 0.338118 -0.750230
H48   H     H_    0.637752 0.511266 0.337847 0.332966
C105  C     C_2   0.351369 0.124794 0.696001 1.122797
O33   O     O_2   0.212247 0.113784 0.715815 -0.589764
O34   O     O_R   0.408720 0.095571 0.658327 -0.782231
H49   H     H_    0.326993 0.065734 0.651355 0.339728
C106  C     C_2   0.970755 0.323560 0.619022 1.002753
O35   O     O_2   0.994061 0.303960 0.649220 -0.649797
O36   O     O_R   0.107943 0.317776 0.586390 -0.799948
H50   H     H_    0.217089 0.296231 0.591155 0.368559
C107  C     C_2   0.311303 0.423539 0.374327 0.955582
O37   O     O_2   0.204015 0.425815 0.404895 -0.630861
O38   O     O_R   0.266143 0.447915 0.341989 -0.770637
H51   H     H_    0.145733 0.467803 0.348444 0.321159
C108  C     C_2   0.776456 0.819936 0.751771 0.976027
O39   O     O_2   0.621676 0.807025 0.735063 -0.651032
O40   O     O_R   0.805114 0.867494 0.770038 -0.778854
H52   H     H_    0.686141 0.887307 0.768295 0.335751

loop_
_geom_bond_atom_site_label_1
_geom_bond_atom_site_label_2
_geom_bond_distance
_ccdc_geom_bond_type
O38   H51   1.014139 S    
C43   H18   1.082802 S    
C55   H21   1.084415 S    
O25   V4    1.702076 S    
C54   C55   1.403591 A    
C77   C78   1.410668 A    
C91   C92   1.400496 A    
C67   C68   1.418364 A    
C20   C21   1.399689 A    
C107  O37   1.220972 D    
C13   C22   1.496308 S    
O2    C1    1.296893 A    
C56   C57   1.405047 A    
C97   O30   1.398441 S    
C1    O6    1.297828 A    
C63   C68   1.403826 A    
C64   C65   1.403704 A    
C65   C66   1.406761 A    
C51   C52   1.417270 A    
C67   C106  1.488754 S    
C71   C72   1.409016 A    
C108  O39   1.223385 D    
V4    O28   2.149998 S    
C73   H30   1.082632 S    
C23   O11   1.349104 S    
C5    C10   1.408409 A    
C1    C65   1.487745 S    
C12   H5    1.083534 S    
C6    C7    1.405491 A    
C47   C48   1.401890 A    
C85   H38   1.082173 S    
C41   C98   1.483277 S    
C82   C83   1.405732 A    
C35   O13   1.347848 S    
O5    C3    1.303086 A    
C18   H9    1.082786 S    
C43   C44   1.400537 A    
O27   C96   1.294437 A    
C83   C84   1.403957 A    
C60   H23   1.083075 S    
C59   H22   1.083058 S    
C32   C33   1.406443 A    
C104  O32   1.398395 S    
C20   H10   1.082856 S    
O21   V3    1.973834 S    
C106  O36   1.399028 S    
C102  C103  1.398136 A    
C40   C41   1.423992 A    
C5    C6    1.400369 A    
C52   C57   1.419518 A    
C97   O29   1.222896 D    
O26   C95   1.300011 A    
C82   H36   1.083319 S    
C55   C56   1.401185 A    
C75   C80   1.407128 A    
C46   C47   1.407703 A    
C10   C95   1.490103 S    
O20   V3    1.986660 S    
C66   C67   1.408878 A    
N1    C24   1.375346 A    
C103  H47   1.083233 S    
C88   H40   1.081990 S    
C14   C15   1.398398 A    
C9    H4    1.082994 S    
C83   C92   1.487808 S    
C37   H16   1.082773 S    
O1    V2    1.989859 S    
C29   H13   1.083342 S    
O7    V1    2.151597 S    
O22   C94   1.298015 A    
C98   C103  1.404758 A    
O19   C94   1.297739 A    
V3    O28   1.703435 S    
C69   C74   1.402339 A    
C43   C48   1.401525 A    
O24   V4    1.990262 S    
C69   C70   1.399235 A    
C77   C86   1.497154 S    
O36   H50   1.012240 S    
C89   C90   1.428896 A    
C7    C8    1.407464 A    
C37   C42   1.400281 A    
C107  O38   1.396978 S    
C104  O31   1.221810 D    
O8    V2    1.974764 S    
C64   H25   1.083053 S    
C58   C59   1.403731 A    
C85   C86   1.410954 A    
C30   C35   1.408643 A    
C108  O40   1.398374 S    
N2    C42   1.448691 S    
C81   H35   1.082267 S    
C81   C86   1.408046 A    
C39   C40   1.419445 A    
O32   H48   1.014219 S    
N4    C62   1.370484 A    
C98   C99   1.403605 A    
C17   C22   1.408797 A    
C47   H20   1.084296 S    
C38   C39   1.400633 A    
C28   H12   1.083153 S    
C52   C53   1.411428 A    
O4    C2    1.306706 A    
C56   C61   1.409956 A    
C38   H17   1.083467 S    
C24   O12   1.349379 S    
C78   C79   1.401577 A    
O34   H49   1.013856 S    
C11   C16   1.422274 A    
C101  C102  1.398064 A    
C23   C27   1.411738 A    
C45   C46   1.429420 A    
C99   C100  1.397430 A    
N2    C36   1.372646 A    
C11   C108  1.486716 S    
O23   V3    1.987183 S    
C21   H11   1.082733 S    
N1    C48   1.451467 S    
C40   C97   1.489000 S    
C84   C85   1.401095 A    
C36   O14   1.348888 S    
C14   H6    1.082692 S    
C2    C89   1.497807 S    
O26   V4    1.991206 S    
C101  H45   1.082253 S    
C25   C28   1.406883 A    
C57   C58   1.410759 A    
C31   C32   1.408829 A    
C105  O34   1.397901 S    
C5    H1    1.083088 S    
C39   C96   1.479831 S    
C3    C45   1.497553 S    
C62   O18   1.349069 S    
C26   C27   1.408375 A    
C27   C34   1.407013 A    
C23   N1    1.374917 A    
C28   C29   1.398211 A    
C41   C42   1.416345 A    
C69   H27   1.082754 S    
C21   C22   1.406796 A    
C90   C91   1.403386 A    
C70   H28   1.082593 S    
O3    C4    1.295900 A    
C49   O15   1.349379 S    
C44   C45   1.409937 A    
O30   H42   1.013768 S    
C105  O33   1.223091 D    
O6    V2    1.973085 S    
O9    V2    1.990996 S    
C50   O16   1.347526 S    
O25   V3    2.151485 S    
C25   C26   1.407756 A    
C8    C9    1.402413 A    
N4    C68   1.444607 S    
C33   H14   1.083143 S    
C76   H32   1.082287 S    
O2    V1    1.976744 S    
C91   H41   1.084841 S    
C90   C107  1.479307 S    
C49   C53   1.405631 A    
C100  C101  1.397705 A    
C79   C80   1.405570 A    
C72   C73   1.401780 A    
C99   H43   1.080430 S    
C30   C31   1.408547 A    
C17   H8    1.082710 S    
C73   C74   1.403680 A    
O1    C2    1.292157 A    
C46   C104  1.483078 S    
C8    H3    1.083127 S    
C54   C105  1.480598 S    
C58   C62   1.409351 A    
C9    C10   1.407544 A    
C44   H19   1.083042 S    
C76   C77   1.407178 A    
O5    V1    1.974050 S    
C37   C38   1.396523 A    
O8    C3    1.295813 A    
C63   H24   1.082877 S    
C34   H15   1.083170 S    
C29   C30   1.405896 A    
C78   H33   1.082251 S    
C7    C16   1.495015 S    
C61   O17   1.348411 S    
C26   C31   1.418776 A    
C84   H37   1.083248 S    
C6    H2    1.083494 S    
C87   C88   1.400495 A    
O20   C93   1.300411 A    
O7    V2    1.702479 S    
O4    V1    1.986348 S    
N3    C74   1.445585 S    
O3    V1    1.987314 S    
V1    O10   1.703360 S    
C87   H39   1.083142 S    
C17   C18   1.403284 A    
C18   C19   1.407684 A    
C71   C94   1.489453 S    
C81   C82   1.398612 A    
O19   V4    1.974391 S    
C33   C34   1.399657 A    
C13   C14   1.403659 A    
O27   V4    1.974631 S    
C75   H31   1.082277 S    
C24   C25   1.409673 A    
C12   C13   1.406973 A    
C61   N4    1.370430 A    
C15   C16   1.407323 A    
O21   C96   1.293248 A    
C15   H7    1.083430 S    
C80   C93   1.487873 S    
C102  H46   1.082291 S    
C88   C89   1.409577 A    
C106  O35   1.222815 D    
O23   C95   1.295752 A    
C63   C64   1.398910 A    
C70   C71   1.408969 A    
C100  H44   1.082451 S    
C4    C19   1.492092 S    
O22   V3    1.976535 S    
C35   N2    1.371983 A    
N3    C50   1.371860 A    
C49   N3    1.368551 A    
C59   C60   1.395420 A    
C11   C12   1.411051 A    
O40   H52   1.013871 S    
C32   C36   1.411138 A    
C79   H34   1.083069 S    
C19   C20   1.408192 A    
C66   H26   1.083260 S    
C50   C51   1.422432 A    
O9    C4    1.300836 A    
C87   C92   1.402140 A    
C93   O24   1.294431 A    
V2    O10   2.149949 S    
C53   C60   1.406136 A    
C51   C54   1.427277 A    
C72   H29   1.082615 S    
C75   C76   1.397857 A    
