data_mof_unit_43131.cif
_audit_creation_date              2012-12-11T15:39:11-0500
_audit_creation_method            fapswitch 2.2
_symmetry_space_group_name_H-M    P1
_symmetry_Int_Tables_number       1
_space_group_crystal_system       triclinic
_cell_length_a                    17.440243
_cell_length_b                    24.613809
_cell_length_c                    14.950095
_cell_angle_alpha                 90.184131
_cell_angle_beta                  125.920859
_cell_angle_gamma                 89.502526
_cell_volume                      5196.97489545

loop_
_atom_site_label
_atom_site_type_symbol
_atom_type_description
_atom_site_fract_x
_atom_site_fract_y
_atom_site_fract_z
_atom_type_partial_charge
C1    C     C_R   0.313627 0.372443 0.903991 -0.137920
C2    C     C_R   0.678737 0.364104 0.091650 -0.146523
C3    C     C_R   0.842117 0.852302 0.908174 -0.143030
C4    C     C_R   0.189876 0.875880 0.094693 -0.125552
C5    C     C_R   0.379589 0.682955 0.000885 -0.056856
C6    C     C_R   0.626836 0.677658 0.995425 -0.070246
C7    C     C_R   0.886590 0.182750 0.001825 -0.068694
C8    C     C_R   0.136475 0.173700 0.996474 -0.069925
C9    C     C_R   0.458464 0.501333 0.284009 0.021436
C10   C     C_R   0.435010 0.500692 0.632763 0.039140
C11   C     C_R   0.951691 0.000781 0.276301 0.030280
C12   C     C_R   0.937698 0.000494 0.633663 0.024151
C13   C     C_R   0.197217 0.500239 0.631791 0.055230
C14   C     C_R   0.825889 0.500248 0.281329 0.028128
C15   C     C_R   0.675160 0.000845 0.725113 0.029866
C16   C     C_R   0.304234 0.000126 0.367539 0.057091
C17   C     C_R   0.071201 0.550759 0.464814 0.119270
C18   C     C_R   0.976998 0.550834 0.376431 0.139417
C19   C     C_R   0.522483 0.051660 0.624015 0.138176
C20   C     C_R   0.429142 0.051189 0.533244 0.124464
C21   C     C_R   0.118155 0.501669 0.514891 0.045049
C22   C     C_R   0.927855 0.501768 0.336027 0.048919
C23   C     C_R   0.572763 0.002762 0.668796 0.047323
C24   C     C_R   0.383873 0.001913 0.484396 0.045898
C25   C     C_R   0.076710 0.453308 0.455457 -0.192377
C26   C     C_R   0.981124 0.453394 0.365466 -0.192784
C27   C     C_R   0.520457 0.954447 0.639049 -0.193033
C28   C     C_R   0.425907 0.953938 0.546133 -0.194378
C29   C     C_3   0.956826 0.601317 0.415918 -0.497462
C30   C     C_3   0.059804 0.601245 0.512328 -0.449832
C31   C     C_3   0.440831 0.100791 0.484706 -0.461223
C32   C     C_3   0.542961 0.101204 0.583403 -0.491329
C33   C     C_R   0.307312 0.774386 0.915451 -0.125074
C34   C     C_R   0.686820 0.769289 0.028621 -0.085064
C35   C     C_R   0.840509 0.278263 0.966540 -0.085420
C36   C     C_R   0.184299 0.267983 0.053778 -0.113921
C37   C     C_R   0.784100 0.319212 0.962486 -0.178961
C38   C     C_R   0.231570 0.312604 0.054095 -0.175863
C39   C     C_R   0.257972 0.818874 0.916001 -0.169777
C40   C     C_R   0.749733 0.804850 0.034346 -0.178017
C41   C     C_R   0.728918 0.308081 0.999717 0.138052
C42   C     C_R   0.261850 0.311976 0.986186 0.143420
C43   C     C_R   0.262908 0.830140 0.010986 0.137149
C44   C     C_R   0.805497 0.787389 0.000527 0.139555
C45   C     C_R   0.442881 0.651042 0.091686 -0.137563
C46   C     C_R   0.563169 0.647286 0.905308 -0.094551
C47   C     C_R   0.945066 0.151059 0.092391 -0.120570
C48   C     C_R   0.067664 0.145342 0.905475 -0.129314
C49   C     C_R   0.728421 0.257639 0.040787 -0.186278
C50   C     C_R   0.242604 0.268973 0.914943 -0.183061
C51   C     C_R   0.330207 0.803034 0.109818 -0.169715
C52   C     C_R   0.798957 0.735769 0.959346 -0.189739
C53   C     C_R   0.375539 0.757583 0.107831 -0.156471
C54   C     C_R   0.737617 0.699884 0.955878 -0.183985
C55   C     C_R   0.783058 0.216968 0.043299 -0.187612
C56   C     C_R   0.197795 0.224429 0.916500 -0.170407
C57   C     C_R   0.356964 0.739732 0.007869 0.136614
C58   C     C_R   0.683053 0.716878 0.991735 0.165195
C59   C     C_R   0.837979 0.227457 0.005498 0.170921
C60   C     C_R   0.172103 0.223328 0.988689 0.166836
C61   C     C_R   0.397203 0.551010 0.468494 -0.170679
C62   C     C_R   0.403495 0.551236 0.380644 -0.165367
C63   C     C_R   0.897666 0.050359 0.467359 -0.167378
C64   C     C_R   0.899091 0.050462 0.375848 -0.167669
C65   C     C_R   0.414827 0.501960 0.342431 0.144040
C66   C     C_R   0.402431 0.501503 0.518009 0.139030
C67   C     C_R   0.909272 0.001220 0.336383 0.138586
C68   C     C_R   0.905473 0.000985 0.518782 0.141527
C69   C     C_R   0.397962 0.452929 0.375341 -0.166837
C70   C     C_R   0.392332 0.452653 0.463816 -0.163945
C71   C     C_R   0.896263 0.952148 0.373030 -0.166360
C72   C     C_R   0.895111 0.951990 0.464774 -0.160682
C73   C     C_R   0.490470 0.455467 0.260330 -0.126480
C74   C     C_R   0.450930 0.455056 0.695781 -0.131691
C75   C     C_R   0.982471 0.954922 0.250848 -0.128757
C76   C     C_R   0.952143 0.954967 0.696333 -0.143469
C77   C     C_R   0.245887 0.545019 0.694945 -0.130005
C78   C     C_R   0.767431 0.545172 0.246455 -0.075857
C79   C     C_R   0.732828 0.045662 0.756273 -0.076614
C80   C     C_R   0.254798 0.044948 0.303990 -0.135698
C81   C     C_R   0.484208 0.546447 0.252217 -0.088660
C82   C     C_R   0.452006 0.545744 0.697193 -0.125638
C83   C     C_R   0.981363 0.046060 0.249227 -0.110430
C84   C     C_R   0.953612 0.045643 0.697690 -0.087106
C85   C     C_R   0.244436 0.454844 0.695719 -0.122967
C86   C     C_R   0.770778 0.454885 0.259762 -0.120672
C87   C     C_R   0.730900 0.954941 0.748204 -0.125329
C88   C     C_R   0.256356 0.954789 0.304613 -0.130713
C89   C     C_R   0.348756 0.651052 0.908474 -0.006159
C90   C     C_R   0.650610 0.650610 0.089457 -0.075555
C91   C     C_R   0.855287 0.152461 0.909065 -0.072553
C92   C     C_R   0.159023 0.147416 0.090664 -0.024773
C93   C     C_R   0.408023 0.366602 0.088855 -0.133000
C94   C     C_R   0.589991 0.368400 0.906387 -0.127583
C95   C     C_R   0.934090 0.852661 0.092636 -0.145849
C96   C     C_R   0.098995 0.874869 0.909854 -0.120830
C97   C     C_R   0.320502 0.353448 0.994084 0.046047
C98   C     C_R   0.672567 0.348964 0.999287 0.042627
C99   C     C_R   0.864725 0.825412 0.000694 0.045596
C100  C     C_R   0.188749 0.861751 0.004484 0.043650
H1    H     H_    0.257908 0.365492 0.817740 0.100455
H2    H     H_    0.727167 0.348264 0.174218 0.096084
H3    H     H_    0.795060 0.838995 0.823413 0.097217
H4    H     H_    0.247187 0.872012 0.180988 0.094132
H5    H     H_    0.936898 0.636331 0.359183 0.210868
H6    H     H_    0.070395 0.594354 0.592396 0.220033
H7    H     H_    0.432424 0.092729 0.406142 0.214171
H8    H     H_    0.560708 0.136947 0.637828 0.206637
H9    H     H_    0.909524 0.594425 0.441837 0.210463
H10   H     H_    0.099142 0.636135 0.510891 0.205469
H11   H     H_    0.399770 0.136148 0.482790 0.203918
H12   H     H_    0.592060 0.093304 0.560173 0.210156
H13   H     H_    0.301386 0.766268 0.840884 0.137333
H14   H     H_    0.642984 0.781910 0.054578 0.130877
H15   H     H_    0.883997 0.285487 0.937893 0.125702
H16   H     H_    0.160035 0.267671 0.105844 0.117803
H17   H     H_    0.783666 0.359084 0.931655 0.125070
H18   H     H_    0.246253 0.346669 0.107972 0.119990
H19   H     H_    0.211435 0.841819 0.840560 0.118855
H20   H     H_    0.754417 0.845914 0.063570 0.124652
H21   H     H_    0.684804 0.249770 0.069110 0.126662
H22   H     H_    0.267239 0.268390 0.863129 0.119523
H23   H     H_    0.340396 0.812062 0.186796 0.108596
H24   H     H_    0.841675 0.723456 0.931671 0.127422
H25   H     H_    0.417042 0.734000 0.183014 0.108932
H26   H     H_    0.733680 0.658754 0.927337 0.128128
H27   H     H_    0.781148 0.177028 0.072383 0.125091
H28   H     H_    0.187629 0.189768 0.865708 0.121761
H29   H     H_    0.398437 0.589712 0.503536 0.108959
H30   H     H_    0.409181 0.590035 0.351473 0.108160
H31   H     H_    0.899458 0.089111 0.502617 0.108314
H32   H     H_    0.902047 0.089243 0.344379 0.107198
H33   H     H_    0.491312 0.664463 0.176053 0.133360
H34   H     H_    0.527443 0.657552 0.819112 0.137816
H35   H     H_    0.985687 0.163642 0.177847 0.146967
H36   H     H_    0.027136 0.157827 0.819815 0.125546
H37   H     H_    0.491637 0.414464 0.285353 0.094720
H38   H     H_    0.432983 0.413598 0.667435 0.087585
H39   H     H_    0.974654 0.913166 0.264764 0.094896
H40   H     H_    0.934217 0.913501 0.668017 0.094900
H41   H     H_    0.473160 0.588734 0.260804 0.092643
H42   H     H_    0.435213 0.587634 0.670933 0.108389
H43   H     H_    0.971162 0.088244 0.259389 0.090565
H44   H     H_    0.937628 0.087535 0.671281 0.111060
H45   H     H_    0.234616 0.413395 0.667204 0.083570
H46   H     H_    0.796026 0.413878 0.284557 0.094482
H47   H     H_    0.708362 0.913270 0.733242 0.097044
H48   H     H_    0.266845 0.913492 0.334211 0.086907
H49   H     H_    0.113022 0.414625 0.485764 0.123549
H50   H     H_    0.947324 0.414869 0.329439 0.127127
H51   H     H_    0.554749 0.916065 0.677368 0.127365
H52   H     H_    0.390909 0.915193 0.516323 0.124849
N1    N     N_R   0.394180 0.396910 0.943210 -0.041577
N2    N     N_R   0.605820 0.396910 0.056790 -0.039870
N3    N     N_R   0.894180 0.896910 0.943210 -0.039748
N4    N     N_R   0.105820 0.896910 0.056790 -0.041582
N5    N     N_R   0.450950 0.603070 0.056740 -0.042822
N6    N     N_R   0.549050 0.603070 0.943260 -0.046270
N7    N     N_R   0.950950 0.103070 0.056740 -0.045664
N8    N     N_R   0.049050 0.103070 0.943260 -0.039531
N9    N     N_R   0.525650 0.471570 0.206150 -0.044532
N10   N     N_R   0.474350 0.471570 0.793850 -0.042073
N11   N     N_R   0.025650 0.971570 0.206150 -0.043155
N12   N     N_R   0.974350 0.971570 0.793850 -0.044568
N13   N     N_R   0.319480 0.528420 0.793810 -0.044064
N14   N     N_R   0.680520 0.528420 0.206190 -0.027543
N15   N     N_R   0.819480 0.028420 0.793810 -0.024266
N16   N     N_R   0.180520 0.028420 0.206190 -0.042999
N17   N     N_R   0.525640 0.528390 0.206120 -0.029980
N18   N     N_R   0.474360 0.528390 0.793880 -0.038048
N19   N     N_R   0.025640 0.028390 0.206120 -0.035328
N20   N     N_R   0.974360 0.028390 0.793880 -0.032410
N21   N     N_R   0.319490 0.471590 0.793840 -0.041782
N22   N     N_R   0.680510 0.471590 0.206160 -0.047161
N23   N     N_R   0.819490 0.971590 0.793840 -0.046508
N24   N     N_R   0.180510 0.971590 0.206160 -0.043625
N25   N     N_R   0.394130 0.603080 0.943110 -0.069509
N26   N     N_R   0.605870 0.603080 0.056890 -0.062153
N27   N     N_R   0.894130 0.103080 0.943110 -0.062496
N28   N     N_R   0.105870 0.103080 0.056890 -0.064792
N29   N     N_R   0.450990 0.396900 0.056840 -0.041212
N30   N     N_R   0.549010 0.396900 0.943160 -0.043475
N31   N     N_R   0.950990 0.896900 0.056840 -0.040263
N32   N     N_R   0.049010 0.896900 0.943160 -0.042120
Ni1   Ni    Ni4+2 0.434860 0.434850 0.869700 0.203527
Ni2   Ni    Ni4+2 0.565140 0.434850 0.130300 0.216793
Ni3   Ni    Ni4+2 0.934860 0.934850 0.869700 0.212230
Ni4   Ni    Ni4+2 0.065140 0.934850 0.130300 0.208273
Ni5   Ni    Ni4+2 0.565130 0.565140 0.130240 0.260881
Ni6   Ni    Ni4+2 0.434870 0.565140 0.869760 0.241478
Ni7   Ni    Ni4+2 0.065130 0.065140 0.130240 0.245963
Ni8   Ni    Ni4+2 0.934870 0.065140 0.869760 0.255738
H53   H     H_    0.398303 0.414338 0.340835 0.112830
H54   H     H_    0.389587 0.413822 0.495294 0.112506
H55   H     H_    0.896607 0.913439 0.338958 0.116739
H56   H     H_    0.894889 0.913153 0.498067 0.115558
H57   H     H_    0.239500 0.585103 0.663144 0.136143
H58   H     H_    0.786738 0.586145 0.245426 0.106130
H59   H     H_    0.713540 0.087096 0.756741 0.105192
H60   H     H_    0.261723 0.085279 0.334963 0.141132
C101  C     C_2   0.294089 0.668686 0.792970 0.902951
O1    O     O_2   0.210582 0.681123 0.744311 -0.658465
O2    O     O_R   0.337689 0.670714 0.739034 -0.840237
H61   H     H_    0.292903 0.683455 0.659634 0.309303
C102  C     C_2   0.695288 0.673909 0.200919 0.935250
O3    O     O_2   0.745650 0.713873 0.230063 -0.655117
O4    O     O_R   0.680294 0.649481 0.273672 -0.825353
H62   H     H_    0.714805 0.668599 0.347660 0.319846
C103  C     C_2   0.811476 0.173549 0.796138 0.939917
O5    O     O_2   0.764801 0.215560 0.765393 -0.650586
O6    O     O_R   0.823355 0.144948 0.724103 -0.830473
H63   H     H_    0.789874 0.163007 0.649046 0.316662
C104  C     C_2   0.212108 0.169574 0.203192 0.916659
O7    O     O_2   0.290730 0.188699 0.245352 -0.647809
O8    O     O_R   0.171205 0.169903 0.260268 -0.840010
H64   H     H_    0.213883 0.186745 0.336313 0.311746
H65   H     H_    0.439831 0.350168 0.170363 0.104409
H66   H     H_    0.560139 0.359777 0.820910 0.109284
H67   H     H_    0.972315 0.839400 0.177534 0.103915
H68   H     H_    0.072850 0.868638 0.824861 0.101303

loop_
_geom_bond_atom_site_label_1
_geom_bond_atom_site_label_2
_ccdc_geom_bond_type
N4    Ni4   S    
C89   C101  S    
O2    H61   S    
C82   N18   A    
C55   C59   A    
C73   H37   S    
C51   H23   S    
C101  O1    D    
C62   H30   S    
C19   C20   A    
C50   H22   S    
N17   Ni5   S    
C91   C103  S    
N12   Ni3   S    
C43   C51   A    
C94   N30   A    
C90   N26   A    
C47   H35   S    
N4    N32   A    
C34   C58   A    
C47   N7    A    
C102  O3    D    
N20   Ni8   S    
C4    C100  A    
N15   Ni8   S    
C48   N8    A    
N21   Ni1   S    
C33   C39   A    
N16   Ni7   S    
C87   H47   S    
C30   H10   S    
C34   C40   A    
C29   H9    S    
C35   C37   A    
C85   H45   S    
C38   C42   A    
C74   H38   S    
C6    C46   A    
C44   C99   S    
N3    N31   A    
C94   C98   A    
C95   C99   A    
C77   N13   A    
C80   H60   S    
C96   C100  A    
C65   C69   A    
C94   H66   S    
C14   C78   A    
C12   C84   A    
C84   H44   S    
C93   H65   S    
C41   C49   A    
C6    C58   S    
N8    N28   A    
C73   N9    A    
C27   H51   S    
C92   N28   A    
C93   N29   A    
C61   C66   A    
C15   C79   A    
N27   Ni8   S    
C31   C32   S    
C11   C67   S    
C83   N19   A    
C17   C18   A    
C8    C60   S    
C85   N21   A    
C35   H15   S    
C8    C92   A    
C63   H31   S    
C95   H67   S    
N11   N19   A    
C61   H29   S    
N9    N17   A    
C70   H54   S    
C44   C52   A    
C15   C23   S    
C7    C91   A    
C2    N2    A    
C30   H6    S    
C17   C30   S    
C101  O2    S    
C79   N15   A    
C29   H5    S    
C61   C62   A    
C9    C73   A    
C96   N32   A    
C19   C32   S    
C86   H46   S    
C7    C59   S    
C52   C54   A    
C103  O5    D    
N7    N27   A    
C10   C66   S    
C35   C59   A    
C13   C77   A    
C78   N14   A    
C79   H59   S    
N19   Ni7   S    
O4    H62   S    
C64   C67   A    
N7    Ni7   S    
C26   H50   S    
C45   N5    A    
C43   C100  S    
C14   C86   A    
C42   C97   S    
C1    C97   A    
C74   N10   A    
N26   Ni5   S    
C53   C57   A    
C39   C43   A    
C84   N20   A    
C25   C26   A    
C96   H68   S    
C5    C45   A    
N3    Ni3   S    
C10   C82   A    
C16   C80   A    
C17   C21   A    
C56   C60   A    
C91   N27   A    
N11   Ni4   S    
C86   N22   A    
N30   Ni1   S    
C7    C47   A    
C19   C23   A    
O8    H64   S    
C8    C48   A    
C29   C30   S    
C46   H34   S    
C90   C102  S    
C12   C68   S    
C71   H55   S    
O6    H63   S    
N10   N18   A    
C104  O7    D    
C68   C72   A    
C77   H57   S    
C49   H21   S    
C81   H41   S    
C9    C65   S    
C69   H53   S    
N13   Ni6   S    
C88   H48   S    
C13   C21   S    
C92   C104  S    
C18   C29   S    
N5    N25   A    
C1    N1    A    
N8    Ni8   S    
C53   H25   S    
C42   C50   A    
C75   N11   A    
C4    N4    A    
C55   H27   S    
C28   H52   S    
C1    H1    S    
C23   C27   A    
C89   N25   A    
C12   C76   A    
C32   H8    S    
C20   C31   S    
N12   N20   A    
C3    N3    A    
C76   H40   S    
C36   H16   S    
C93   C97   A    
N15   N23   A    
C54   C58   A    
C3    H3    S    
N16   N24   A    
C21   C25   A    
C63   C68   A    
N24   Ni4   S    
C31   H11   S    
N25   Ni6   S    
C32   H12   S    
C62   C65   A    
C40   H20   S    
C18   C22   A    
C31   H7    S    
C48   H36   S    
C24   C28   A    
C25   H49   S    
N1    N29   A    
C63   C64   A    
C36   C60   A    
N28   Ni7   S    
C72   H56   S    
N10   Ni1   S    
N29   Ni2   S    
C10   C74   A    
C33   C57   A    
C45   H33   S    
C34   H14   S    
C87   N23   A    
N18   Ni6   S    
N14   N22   A    
C64   H32   S    
C81   N17   A    
C88   N24   A    
N32   Ni3   S    
C5    C57   S    
N14   Ni5   S    
C11   C83   A    
C14   C22   S    
N6    Ni6   S    
N6    N26   A    
C104  O8    S    
C71   C72   A    
C11   C75   A    
C50   C56   A    
N22   Ni2   S    
C83   H43   S    
C52   H24   S    
C95   N31   A    
C66   C70   A    
N1    Ni1   S    
C33   H13   S    
C39   H19   S    
N2    N30   A    
N2    Ni2   S    
C36   C38   A    
C103  O6    S    
C37   H17   S    
C4    H4    S    
C67   C71   A    
C56   H28   S    
C49   C55   A    
C37   C41   A    
C69   C70   A    
C20   C24   A    
N5    Ni5   S    
C76   N12   A    
N23   Ni3   S    
C82   H42   S    
C54   H26   S    
C3    C99   A    
C40   C44   A    
C6    C90   A    
C2    C98   A    
C16   C24   S    
C22   C26   A    
C15   C87   A    
C13   C85   A    
C27   C28   A    
C16   C88   A    
C2    H2    S    
C41   C98   S    
C38   H18   S    
C75   H39   S    
C78   H58   S    
C51   C53   A    
N31   Ni4   S    
C102  O4    S    
N13   N21   A    
C80   N16   A    
C5    C89   A    
C9    C81   A    
N9    Ni2   S    
C46   N6    A    
