data_mof_unit_31699.cif
_audit_creation_date              2012-12-11T14:56:37-0500
_audit_creation_method            fapswitch 2.2
_symmetry_space_group_name_H-M    P1
_symmetry_Int_Tables_number       1
_space_group_crystal_system       triclinic
_cell_length_a                    10.576458
_cell_length_b                    10.680754
_cell_length_c                    17.191686
_cell_angle_alpha                 80.504137
_cell_angle_beta                  89.835572
_cell_angle_gamma                 119.279819
_cell_volume                      1662.82762245

loop_
_atom_site_label
_atom_site_type_symbol
_atom_type_description
_atom_site_fract_x
_atom_site_fract_y
_atom_site_fract_z
_atom_type_partial_charge
C1    C     C_R   0.223554 0.854941 0.128913 0.554937
C2    C     C_R   0.794016 0.388258 0.267235 0.057354
C3    C     C_R   0.786726 0.389654 0.187586 -0.121271
C4    C     C_R   0.654455 0.344288 0.155695 -0.022897
C5    C     C_1   0.668634 0.848945 0.205562 -0.015387
C6    C     C_1   0.680173 0.838862 0.274835 -0.011566
C7    C     C_1   0.181229 0.826479 0.211309 -0.012876
C8    C     C_1   0.151410 0.819999 0.279754 -0.005905
C9    C     C_1   0.644122 0.323512 0.778152 -0.027692
C10   C     C_1   0.652216 0.346460 0.707735 -0.018230
C11   C     C_R   0.523170 0.783514 0.777667 -0.145798
C12   C     C_R   0.636908 0.281186 0.085658 0.547537
C13   C     C_R   0.526284 0.776534 0.698798 -0.139450
C14   C     C_R   0.658599 0.855317 0.652363 0.004077
C15   C     C_R   0.783945 0.956809 0.682537 -0.097564
C16   C     C_R   0.782279 0.963718 0.762196 0.067725
C17   C     C_R   0.651965 0.870672 0.811041 0.033857
C18   C     C_R   0.243325 0.969599 0.760416 -0.091506
C19   C     C_R   0.228859 0.960626 0.681886 0.071753
C20   C     C_R   0.163693 0.821903 0.660517 0.024275
C21   C     C_R   0.126619 0.696304 0.718313 -0.162697
C22   C     C_R   0.141991 0.707172 0.797492 -0.157813
C23   C     C_R   0.640102 0.858737 0.125574 0.555342
C24   C     C_R   0.194853 0.843506 0.818701 0.014868
C25   C     C_R   0.686788 0.809393 0.357068 0.548989
C26   C     C_R   0.689447 0.395234 0.394561 0.571627
C27   C     C_R   0.103418 0.810103 0.359071 0.558818
C28   C     C_R   0.675969 0.805767 0.582082 0.543974
C29   C     C_R   0.679927 0.384254 0.624791 0.568847
C30   C     C_R   0.101418 0.803362 0.585464 0.558292
C31   C     C_R   0.225284 0.864156 0.898731 0.548866
C32   C     C_R   0.637065 0.283872 0.860822 0.546277
C33   C     C_R   0.636960 0.872357 0.894328 0.566050
C34   C     C_R   0.532046 0.320407 0.201180 -0.116623
C35   C     C_R   0.539005 0.330684 0.280652 0.048931
C36   C     C_R   0.670030 0.362330 0.315236 0.024969
Cr1   Cr    Cr6+3 0.402240 0.783890 0.019450 1.044889
Cr2   Cr    Cr6+3 0.382360 0.097900 0.991800 1.050977
Cr3   Cr    Cr6+3 0.715380 0.118170 0.988700 1.065882
Cr4   Cr    Cr6+3 0.936650 0.882420 0.465510 1.093554
Cr5   Cr    Cr6+3 0.605770 0.565620 0.493360 1.097520
Cr6   Cr    Cr6+3 0.921340 0.550490 0.496380 1.074701
H1    H     H_    0.428314 0.284149 0.176584 0.165810
H2    H     H_    0.887108 0.021257 0.646230 0.177976
H3    H     H_    0.293521 0.077130 0.775733 0.171588
O1    O     O_R   0.521780 0.757110 0.108900 -0.496319
O2    O     O_R   0.513330 0.228330 0.898660 -0.502649
O3    O     O_R   0.739230 0.266130 0.888050 -0.498267
O4    O     O_R   0.712580 0.991850 0.918770 -0.468700
O5    O     O_3   0.499990 0.999980 0.999980 -0.275112
O6    O     O_R   0.083770 0.911170 0.376030 -0.479998
O7    O     O_R   0.808770 0.880340 0.383890 -0.488654
O8    O     O_R   0.584340 0.689460 0.394160 -0.490318
O9    O     O_R   0.614320 0.443940 0.423590 -0.468364
O10   O     O_R   0.805020 0.410040 0.421340 -0.485342
O11   O     O_R   0.049240 0.685450 0.403290 -0.482899
O12   O     O_R   0.275160 0.783810 0.101120 -0.485415
O13   O     O_R   0.077520 0.903010 0.551800 -0.474224
O14   O     O_R   0.802980 0.872780 0.546830 -0.504775
O15   O     O_R   0.578090 0.681300 0.569920 -0.506443
O16   O     O_R   0.608530 0.436370 0.586530 -0.470228
O17   O     O_R   0.798770 0.401880 0.597100 -0.508090
O18   O     O_R   0.043450 0.677890 0.566230 -0.514332
O19   O     O_3   0.821250 0.666180 0.485090 -0.287698
O20   O     O_R   0.237900 0.972600 0.090980 -0.507122
O21   O     O_R   0.511190 0.220540 0.061620 -0.505618
O22   O     O_R   0.736920 0.257720 0.063840 -0.515359
O23   O     O_R   0.710450 0.984050 0.081720 -0.489653
O24   O     O_R   0.524090 0.765520 0.933110 -0.530049
O25   O     O_R   0.277300 0.791600 0.938160 -0.514925
O26   O     O_R   0.240210 0.981010 0.915190 -0.499202
I1    I     I_    0.297345 0.163838 0.603449 -0.281629
H4    H     H_    0.076661 0.588617 0.703267 0.160307
H5    H     H_    0.110568 0.609874 0.841969 0.143458
I2    I     I_    0.341067 0.280340 0.343557 -0.235436
I3    I     I_    0.998980 0.413738 0.302529 -0.287016
H6    H     H_    0.882040 0.409835 0.152104 0.167836
H7    H     H_    0.419069 0.717082 0.812881 0.157600
H8    H     H_    0.427915 0.700808 0.675951 0.152026
I4    I     I_    0.983699 0.105161 0.803103 -0.340378

loop_
_geom_bond_atom_site_label_1
_geom_bond_atom_site_label_2
_ccdc_geom_bond_type
C13   H8    S    
Cr1   O24   S    
Cr3   O23   S    
C35   C36   A    
Cr5   O16   S    
C26   O10   A    
C7    C8    T    
C20   C30   S    
C35   I2    S    
C18   C24   A    
C25   O8    A    
C15   H2    S    
C34   C35   A    
C5    C6    T    
C6    C25   S    
C33   O4    A    
C15   C16   A    
C21   H4    S    
C18   C19   A    
C9    C32   S    
Cr6   O11   S    
C29   O17   A    
C31   O25   A    
C19   C20   A    
C16   C17   A    
C1    O20   A    
C13   C14   A    
C4    C12   S    
C9    C10   T    
Cr6   O17   S    
C33   O24   A    
C31   O26   A    
Cr4   O14   S    
C21   C22   A    
C32   O3    A    
C19   I1    S    
C17   C33   S    
C26   O9    A    
C27   O6    A    
C29   O16   A    
C28   O15   A    
C12   O22   A    
C4    C34   A    
Cr4   O13   S    
Cr2   O21   S    
C27   O11   A    
Cr4   O7    S    
C12   O21   A    
C16   I4    S    
C23   O23   A    
C11   H7    S    
C1    O12   A    
Cr6   O10   S    
C5    C23   S    
Cr2   O20   S    
Cr5   O8    S    
Cr2   O2    S    
C26   C36   S    
Cr3   O4    S    
C32   O2    A    
C22   C24   A    
C22   H5    S    
C3    C4    A    
C3    H6    S    
C18   H3    S    
Cr6   O19   S    
C2    I3    S    
C28   O14   A    
C2    C36   A    
Cr2   O26   S    
C11   C17   A    
C1    C7    S    
Cr3   O22   S    
C34   H1    S    
Cr5   O15   S    
Cr2   O5    S    
Cr4   O6    S    
Cr4   O19   S    
Cr1   O25   S    
C2    C3    A    
C24   C31   S    
Cr1   O5    S    
C11   C13   A    
C10   C29   S    
C30   O13   A    
Cr5   O9    S    
C25   O7    A    
Cr3   O5    S    
C20   C21   A    
C23   O1    A    
C8    C27   S    
C14   C15   A    
Cr5   O19   S    
C14   C28   S    
Cr1   O1    S    
C30   O18   A    
Cr6   O18   S    
Cr1   O12   S    
Cr3   O3    S    
