data_mof_unit_36001.cif
_audit_creation_date              2012-12-10T19:07:05-0500
_audit_creation_method            fapswitch 2.2
_symmetry_space_group_name_H-M    P1
_symmetry_Int_Tables_number       1
_space_group_crystal_system       triclinic
_cell_length_a                    27.804363
_cell_length_b                    10.861721
_cell_length_c                    9.534278
_cell_angle_alpha                 89.844257
_cell_angle_beta                  89.989477
_cell_angle_gamma                 90.051963
_cell_volume                      2879.37091341

loop_
_atom_site_label
_atom_site_type_symbol
_atom_type_description
_atom_site_fract_x
_atom_site_fract_y
_atom_site_fract_z
_atom_type_partial_charge
C1    C     C_R   0.500256 0.262757 0.500021 0.842720
C2    C     C_R   0.278816 0.510561 0.626912 -0.103272
C3    C     C_R   0.253540 0.500805 0.500461 0.357609
C4    C     C_R   0.101799 0.498434 0.505854 -0.045664
C5    C     C_R   0.127518 0.390185 0.475045 -0.020833
C6    C     C_R   0.102434 0.281677 0.446490 -0.144033
C7    C     C_R   0.127290 0.607829 0.533226 -0.021515
C8    C     C_R   0.354460 0.500309 0.500077 -0.037241
C9    C     C_R   0.645394 0.497799 0.502069 -0.034757
C10   C     C_R   0.974729 0.382407 0.500888 0.026184
C11   C     C_R   0.974111 0.607673 0.530555 0.038190
C12   C     C_R   0.407440 0.500049 0.499993 0.796146
C13   C     C_R   0.949065 0.494027 0.517040 0.073991
C14   C     C_R   0.948764 0.270817 0.502971 -0.246640
C15   C     C_R   0.898607 0.267624 0.511133 0.002393
C16   C     C_R   0.872348 0.379449 0.511577 -0.092120
C17   C     C_R   0.897898 0.492255 0.518984 -0.050404
C18   C     C_R   0.872230 0.603978 0.527645 -0.022311
C19   C     C_R   0.821889 0.602348 0.525767 0.542051
C20   C     C_R   0.821526 0.383918 0.501737 0.562847
C21   C     C_R   0.719979 0.451847 0.623721 -0.095123
C22   C     C_R   0.669867 0.453759 0.620990 -0.214672
C23   C     C_R   0.500474 0.737393 0.499480 0.847926
C24   C     C_R   0.671905 0.540473 0.386366 -0.212538
C25   C     C_R   0.722066 0.539155 0.389577 -0.089649
C26   C     C_R   0.746218 0.494719 0.508206 0.349083
C27   C     C_R   0.025634 0.385005 0.487832 0.053076
C28   C     C_R   0.050696 0.497233 0.509456 0.070432
C29   C     C_R   0.025228 0.608172 0.534858 0.043979
C30   C     C_R   0.052519 0.279011 0.452107 -0.203215
C31   C     C_R   0.101981 0.715518 0.563487 -0.141756
C32   C     C_R   0.946994 0.717446 0.538176 -0.190636
C33   C     C_R   0.897145 0.715339 0.536888 -0.118516
C34   C     C_R   0.592513 0.499700 0.500238 0.797337
C35   C     C_R   0.052007 0.715956 0.564412 -0.201705
C36   C     C_R   0.498369 0.061564 0.620679 0.117473
C37   C     C_R   0.501488 0.130351 0.498414 -0.183964
C38   C     C_R   0.505959 0.065880 0.370852 -0.280430
C39   C     C_R   0.506165 0.936860 0.369605 0.593696
C40   C     C_R   0.501790 0.870152 0.497011 -0.225236
C41   C     C_R   0.498563 0.937641 0.620015 0.032585
C42   C     C_3   0.491593 0.927852 0.774649 -0.385010
C43   C     C_3   0.491349 0.069642 0.775249 -0.427982
C44   C     C_R   0.522940 0.591336 0.073330 0.350035
C45   C     C_R   0.177992 0.393206 0.472835 0.535979
C46   C     C_R   0.473561 0.416948 0.074736 -0.088299
C47   C     C_R   0.473572 0.416924 0.925764 -0.079995
C48   C     C_R   0.522855 0.591501 0.925814 0.250785
C49   C     C_3   0.575057 0.622195 0.919340 -0.505240
C50   C     C_3   0.575259 0.620927 0.078296 -0.496553
C51   C     C_R   0.177781 0.606689 0.530599 0.536497
C52   C     C_R   0.278684 0.490847 0.373778 -0.100929
C53   C     C_R   0.328846 0.490836 0.373399 -0.210263
C54   C     C_R   0.328961 0.510085 0.626919 -0.215371
Cu1   Cu    Cu3+1 0.500000 0.499980 0.640670 0.945033
Cu2   Cu    Cu3+1 0.500000 0.500020 0.359330 0.974592
H1    H     H_    0.347696 0.517612 0.726103 0.160463
H2    H     H_    0.259294 0.483371 0.275679 0.141081
H3    H     H_    0.120738 0.800504 0.586858 0.188868
H4    H     H_    0.963153 0.807521 0.541509 0.152549
H5    H     H_    0.653994 0.576811 0.294683 0.149322
H6    H     H_    0.878135 0.802238 0.542338 0.208579
H7    H     H_    0.742215 0.572751 0.300102 0.145651
H8    H     H_    0.035492 0.802169 0.592069 0.141125
H9    H     H_    0.509037 0.114538 0.271919 0.190552
H10   H     H_    0.456290 0.886403 0.802592 0.204504
H11   H     H_    0.259528 0.517963 0.725203 0.140909
H12   H     H_    0.523286 0.887163 0.828401 0.203642
H13   H     H_    0.455868 0.109686 0.803340 0.189537
H14   H     H_    0.522896 0.110904 0.829214 0.204896
H15   H     H_    0.452901 0.348266 0.130870 0.145537
H16   H     H_    0.452903 0.348297 0.870060 0.140569
H17   H     H_    0.597125 0.547177 0.873565 0.218944
H18   H     H_    0.581650 0.714985 0.873897 0.202932
H19   H     H_    0.596909 0.543947 0.121708 0.204767
H20   H     H_    0.582376 0.712730 0.125172 0.236573
H21   H     H_    0.121314 0.197820 0.419406 0.189862
H22   H     H_    0.650290 0.419659 0.711296 0.152074
H23   H     H_    0.738493 0.417509 0.715744 0.148585
H24   H     H_    0.967003 0.183282 0.506880 0.151351
H25   H     H_    0.035954 0.192793 0.424019 0.147783
H26   H     H_    0.347504 0.483022 0.274108 0.159450
N1    N     N_R   0.201978 0.500318 0.500929 -0.469472
N2    N     N_R   0.797769 0.493665 0.512000 -0.471344
N3    N     N_R   0.500300 0.500930 0.147930 -0.197693
N4    N     N_R   0.500310 0.500890 0.852020 -0.190369
O1    O     O_R   0.500000 0.319640 0.618810 -0.583506
O2    O     O_2   0.795873 0.280860 0.477010 -0.497242
O3    O     O_2   0.202527 0.711109 0.556659 -0.530967
O4    O     O_2   0.797097 0.708679 0.537159 -0.529263
O5    O     O_R   0.500010 0.319680 0.381230 -0.591954
O6    O     O_R   0.430260 0.500000 0.618780 -0.587393
O7    O     O_R   0.430270 0.500040 0.381190 -0.584547
O8    O     O_R   0.499990 0.680320 0.618770 -0.587670
O9    O     O_R   0.500000 0.680360 0.381190 -0.519335
O10   O     O_R   0.569730 0.499960 0.618810 -0.587843
O11   O     O_R   0.569740 0.500000 0.381220 -0.585952
O12   O     O_2   0.202942 0.289731 0.444247 -0.532264
F1    F     F_    0.510376 0.879088 0.244088 -0.673827
C55   C     C_2   0.875979 0.144831 0.528868 0.919389
O13   O     O_2   0.886973 0.060552 0.450345 -0.605199
O14   O     O_R   0.844001 0.123918 0.639651 -0.717155
H27   H     H_    0.831609 0.036109 0.641948 0.348737

loop_
_geom_bond_atom_site_label_1
_geom_bond_atom_site_label_2
_ccdc_geom_bond_type
C10   C27   A    
C1    O1    A    
Cu2   O9    S    
C21   C26   A    
C24   H5    S    
C41   C42   S    
C15   C55   S    
Cu1   Cu2   S    
C49   H17   S    
Cu1   O6    S    
C28   C29   A    
C34   O10   A    
C45   O12   S    
C4    C7    A    
C5    C6    A    
C9    C22   A    
C23   C40   S    
C19   N2    A    
C34   O11   A    
C18   C19   A    
C25   H7    S    
C31   H3    S    
Cu2   O5    S    
C16   C17   A    
C35   H8    S    
C14   H24   S    
C16   C20   A    
C46   N3    A    
C1    O5    A    
C21   C22   A    
C27   C30   A    
C42   H12   S    
C36   C41   A    
C45   N1    A    
Cu2   O11   S    
Cu1   O8    S    
C4    C28   A    
Cu2   O7    S    
C7    C31   A    
C47   N4    A    
C24   C25   A    
C22   H22   S    
C2    H11   S    
C2    C54   A    
C8    C54   A    
C39   C40   A    
C33   H6    S    
C6    H21   S    
C25   C26   A    
C5    C45   A    
C53   H26   S    
C37   C38   A    
C50   H20   S    
C39   F1    S    
C38   H9    S    
C8    C12   S    
C21   H23   S    
C55   O14   S    
C17   C18   A    
C46   H15   S    
C52   H2    S    
C40   C41   A    
C6    C30   A    
C11   C32   A    
C43   H14   S    
C20   N2    A    
C3    N1    S    
C9    C34   S    
C31   C35   A    
C12   O7    A    
C42   C43   S    
C32   H4    S    
C44   N3    A    
C51   N1    A    
C52   C53   A    
C44   C50   S    
C46   C47   A    
C48   C49   S    
C26   N2    S    
C14   C15   A    
C12   O6    A    
Cu1   O10   S    
C10   C13   A    
C8    C53   A    
C3    C52   A    
C9    C24   A    
C1    C37   S    
C29   C35   A    
C23   O8    A    
C13   C17   A    
C32   C33   A    
C30   H25   S    
C2    C3    A    
C7    C51   A    
C19   O4    S    
C50   H19   S    
C51   O3    S    
C11   C13   A    
Cu2   N3    S    
C38   C39   A    
Cu1   N4    S    
C20   O2    S    
C55   O13   D    
C23   O9    A    
C48   N4    A    
Cu1   O1    S    
O14   H27   S    
C18   C33   A    
C47   H16   S    
C44   C48   A    
C4    C5    A    
C11   C29   A    
C36   C37   A    
C49   C50   S    
C27   C28   A    
C42   H10   S    
C49   H18   S    
C36   C43   S    
C43   H13   S    
C15   C16   A    
C10   C14   A    
C54   H1    S    
