data_mof_unit_44524.cif
_audit_creation_date              2012-12-10T17:48:38-0500
_audit_creation_method            fapswitch 2.2
_symmetry_space_group_name_H-M    P1
_symmetry_Int_Tables_number       1
_space_group_crystal_system       triclinic
_cell_length_a                    15.722356
_cell_length_b                    10.716142
_cell_length_c                    9.927994
_cell_angle_alpha                 88.079437
_cell_angle_beta                  90.240025
_cell_angle_gamma                 92.28315
_cell_volume                      1670.42463315

loop_
_atom_site_label
_atom_site_type_symbol
_atom_type_description
_atom_site_fract_x
_atom_site_fract_y
_atom_site_fract_z
_atom_type_partial_charge
C1    C     C_R   0.502112 0.259406 0.503386 0.861014
C2    C     C_R   0.420936 0.026625 0.857687 -0.170823
C3    C     C_R   0.382215 0.912147 0.827798 -0.168304
C4    C     C_R   0.338478 0.499897 0.499818 0.883761
C5    C     C_R   0.396245 0.861740 0.702897 -0.171733
C6    C     C_R   0.448159 0.927536 0.605950 0.096455
C7    C     C_R   0.471943 0.052756 0.625230 0.096902
C8    C     C_R   0.502899 0.124883 0.511001 -0.122773
C9    C     C_R   0.524758 0.067013 0.392510 -0.223313
C10   C     C_R   0.517025 0.939828 0.385618 -0.219555
C11   C     C_R   0.481099 0.870036 0.493231 -0.119862
C12   C     C_3   0.949680 0.433649 0.630765 -0.408476
C13   C     C_R   0.381122 0.345731 0.144243 -0.143272
C14   C     C_R   0.319641 0.275072 0.076215 -0.227063
C15   C     C_R   0.318832 0.276855 0.936751 -0.198277
C16   C     C_R   0.492853 0.738598 0.497721 0.881659
C17   C     C_R   0.380285 0.347829 0.864699 -0.158314
C18   C     C_R   0.440851 0.425254 0.929929 0.123963
C19   C     C_R   0.441105 0.424754 0.074385 0.168374
C20   C     C_R   0.556472 0.571445 0.070539 -0.168196
C21   C     C_R   0.557195 0.571557 0.927797 0.013633
C22   C     C_R   0.661583 0.500069 0.500158 0.926222
C23   C     C_3   0.917277 0.496197 0.498807 0.342859
C24   C     C_3   0.047700 0.434524 0.630262 -0.391871
C25   C     C_3   0.045898 0.432390 0.368740 -0.025636
C26   C     C_3   0.947522 0.420835 0.378643 -0.422149
C27   C     C_1   0.750489 0.498332 0.500446 -0.186269
C28   C     C_3   0.082857 0.497144 0.497160 0.352008
C29   C     C_R   0.622650 0.651929 0.859024 0.173908
C30   C     C_R   0.704838 0.608647 0.841390 -0.124811
C31   C     C_R   0.768600 0.687750 0.783682 -0.151514
C32   C     C_R   0.751102 0.810845 0.745501 -0.131750
C33   C     C_R   0.670343 0.855899 0.767953 -0.149104
C34   C     C_3   0.954553 0.632419 0.486405 -0.404033
C35   C     C_R   0.606858 0.777347 0.827045 -0.122637
C36   C     C_3   0.086603 0.310496 0.323956 -0.422764
C37   C     C_3   0.089127 0.203441 0.430475 -0.316155
C38   C     C_3   0.111175 0.081048 0.366972 -0.916993
C39   C     C_3   0.052832 0.633442 0.492240 -0.458634
C40   C     C_1   0.825823 0.496939 0.499967 -0.120538
C41   C     C_1   0.174333 0.499018 0.498393 -0.125597
C42   C     C_1   0.249654 0.499720 0.499219 -0.192054
C43   C     C_R   0.465146 0.096980 0.757704 -0.199932
H1    H     H_    0.923739 0.335610 0.641187 0.160950
H2    H     H_    0.541249 0.896034 0.297505 0.166991
H3    H     H_    0.602320 0.629625 0.123988 0.150696
H4    H     H_    0.069401 0.338441 0.647319 0.154987
H5    H     H_    0.380333 0.334386 0.251133 0.203870
H6    H     H_    0.273652 0.216258 0.132180 0.146847
H7    H     H_    0.272624 0.218703 0.884049 0.153091
H8    H     H_    0.380879 0.335352 0.758718 0.206812
H9    H     H_    0.059719 0.499180 0.282229 0.124775
H10   H     H_    0.924919 0.321524 0.391805 0.173460
H11   H     H_    0.918985 0.457055 0.282907 0.147520
H12   H     H_    0.072243 0.487705 0.717729 0.166585
H13   H     H_    0.075742 0.683434 0.582862 0.179428
H14   H     H_    0.079615 0.686306 0.402626 0.167567
H15   H     H_    0.930518 0.688737 0.569311 0.167796
H16   H     H_    0.719224 0.513640 0.871305 0.118465
H17   H     H_    0.831605 0.653774 0.769004 0.120173
H18   H     H_    0.800442 0.871747 0.700375 0.121818
H19   H     H_    0.657160 0.951932 0.740946 0.137922
H20   H     H_    0.545520 0.814016 0.848141 0.151920
H21   H     H_    0.061559 0.052909 0.292739 0.258912
H22   H     H_    0.173867 0.091453 0.315736 0.260226
H23   H     H_    0.927602 0.484220 0.719408 0.161931
H24   H     H_    0.114580 0.006100 0.446609 0.249673
H25   H     H_    0.139315 0.225499 0.505949 0.217900
H26   H     H_    0.026702 0.189571 0.481759 0.218586
H27   H     H_    0.050807 0.277422 0.234146 0.203194
H28   H     H_    0.152802 0.333238 0.289356 0.198783
H29   H     H_    0.933893 0.677080 0.389484 0.170127
H30   H     H_    0.550279 0.119907 0.305810 0.171353
H31   H     H_    0.497715 0.180929 0.789919 0.177470
H32   H     H_    0.416543 0.061187 0.958485 0.161076
H33   H     H_    0.345332 0.859427 0.903652 0.142164
H34   H     H_    0.368162 0.770121 0.683831 0.154951
N1    N     N_R   0.499210 0.498800 0.142780 -0.124818
N2    N     N_R   0.499180 0.498720 0.857170 -0.141291
O1    O     O_R   0.500000 0.316780 0.614690 -0.655702
O2    O     O_R   0.499990 0.316750 0.385360 -0.636174
O3    O     O_R   0.377150 0.500020 0.614720 -0.641309
O4    O     O_R   0.377140 0.499990 0.385380 -0.631319
O5    O     O_R   0.500010 0.683250 0.614640 -0.615080
O6    O     O_R   0.500000 0.683220 0.385310 -0.619485
O7    O     O_R   0.622860 0.500010 0.614620 -0.604270
O8    O     O_R   0.622850 0.499980 0.385280 -0.615456
Zn1   Zn    Zn3+2 0.500010 0.500020 0.653130 0.927975
Zn2   Zn    Zn3+2 0.499990 0.499980 0.346870 0.930554

loop_
_geom_bond_atom_site_label_1
_geom_bond_atom_site_label_2
_ccdc_geom_bond_type
C8    C9    A    
C37   H26   S    
C1    C8    S    
C41   C42   T    
C17   H8    S    
C7    C8    A    
C25   C28   S    
C12   C23   S    
C37   C38   S    
C4    C42   S    
C36   C37   S    
C32   H18   S    
C5    C6    A    
O7    Zn1   S    
C23   C26   S    
C14   H6    S    
C1    O2    A    
C23   C40   S    
C39   H14   S    
C37   H25   S    
C28   C41   S    
C16   O5    A    
C18   C19   A    
C15   H7    S    
C39   H13   S    
C33   H19   S    
C7    C43   A    
C9    C10   A    
C2    C43   A    
C36   H28   S    
O2    Zn2   S    
C43   H31   S    
C13   C14   A    
C9    H30   S    
C26   H11   S    
N2    Zn1   S    
C36   H27   S    
C38   H21   S    
N1    Zn2   S    
O4    Zn2   S    
C13   C19   A    
C34   C39   S    
O5    Zn1   S    
C6    C11   A    
O6    Zn2   S    
C18   N2    A    
C28   C39   S    
C25   C26   S    
C21   C29   S    
C24   H12   S    
C31   H17   S    
C19   N1    A    
C29   C30   A    
C11   C16   S    
C31   C32   A    
C38   H22   S    
C27   C40   T    
C23   C34   S    
C30   H16   S    
C21   N2    A    
C10   H2    S    
C17   C18   A    
C22   O8    A    
C38   H24   S    
C3    H33   S    
C22   C27   S    
O8    Zn2   S    
C16   O6    A    
C5    H34   S    
C26   H10   S    
C34   H29   S    
C15   C17   A    
C29   C35   A    
C24   H4    S    
C24   C28   S    
C3    C5    A    
C13   H5    S    
C6    C7    A    
C12   C24   S    
C20   N1    A    
C32   C33   A    
C2    C3    A    
C25   H9    S    
O1    Zn1   S    
C30   C31   A    
C4    O4    A    
C12   H23   S    
O3    Zn1   S    
C33   C35   A    
C22   O7    A    
C10   C11   A    
C25   C36   S    
C4    O3    A    
C20   C21   A    
C12   H1    S    
C34   H15   S    
C1    O1    A    
C14   C15   A    
C35   H20   S    
C20   H3    S    
C2    H32   S    
