data_mof_unit_8133.cif
_audit_creation_date              2012-12-10T18:50:03-0500
_audit_creation_method            fapswitch 2.2
_symmetry_space_group_name_H-M    P1
_symmetry_Int_Tables_number       1
_space_group_crystal_system       triclinic
_cell_length_a                    10.700298
_cell_length_b                    9.838113
_cell_length_c                    10.635832
_cell_angle_alpha                 89.975773
_cell_angle_beta                  90.105796
_cell_angle_gamma                 89.984209
_cell_volume                      1119.6398627

loop_
_atom_site_label
_atom_site_type_symbol
_atom_type_description
_atom_site_fract_x
_atom_site_fract_y
_atom_site_fract_z
_atom_type_partial_charge
C1    C     C_R   0.259880 0.499998 0.500223 0.907159
C2    C     C_3   0.501031 0.649990 0.928861 -0.343770
C3    C     C_R   0.063948 0.381976 0.465467 -0.171882
C4    C     C_R   0.064054 0.617529 0.537308 -0.135527
C5    C     C_R   0.935929 0.381938 0.465596 -0.173861
C6    C     C_R   0.935981 0.617489 0.537443 -0.134926
C7    C     C_R   0.872486 0.499808 0.501215 -0.004119
C8    C     C_R   0.127465 0.499875 0.500998 -0.005153
C9    C     C_R   0.573344 0.071901 0.582315 -0.071018
C10   C     C_R   0.573334 0.927970 0.582325 -0.073222
C11   C     C_R   0.426596 0.928097 0.417631 -0.071973
C12   C     C_R   0.426574 0.072025 0.417648 -0.069685
C13   C     C_R   0.500042 0.500290 0.257592 0.862431
C14   C     C_R   0.740064 0.499968 0.500401 0.907130
C15   C     C_R   0.500087 0.500258 0.742295 0.972547
C16   C     C_3   0.381165 0.428320 0.072553 -0.435654
C17   C     C_3   0.618341 0.426822 0.072986 -0.426316
C18   C     C_3   0.381291 0.426568 0.927871 0.176284
C19   C     C_3   0.618096 0.424872 0.928300 0.170003
C20   C     C_3   0.500936 0.649665 0.071515 -0.384752
C21   C     C_3   0.500116 0.501143 0.121284 0.052755
C22   C     C_3   0.500130 0.501235 0.878680 -0.023026
H1    H     H_    0.296580 0.480837 0.109257 0.214479
H2    H     H_    0.703442 0.478398 0.109875 0.215569
H3    H     H_    0.367951 0.873572 0.351817 0.125501
H4    H     H_    0.367882 0.126650 0.351875 0.122318
H5    H     H_    0.378038 0.321813 0.107937 0.156783
H6    H     H_    0.620496 0.320333 0.108475 0.162340
H7    H     H_    0.383253 0.318759 0.896057 0.123507
H8    H     H_    0.614798 0.317054 0.896606 0.116895
H9    H     H_    0.417148 0.705716 0.105692 0.188899
H10   H     H_    0.585339 0.704490 0.106089 0.195432
H11   H     H_    0.417867 0.707000 0.894426 0.217516
H12   H     H_    0.584950 0.705669 0.894781 0.210721
H13   H     H_    0.112879 0.290811 0.436423 0.152441
H14   H     H_    0.113127 0.708658 0.566279 0.164351
H15   H     H_    0.886939 0.290748 0.436642 0.156739
H16   H     H_    0.886976 0.708596 0.566513 0.158435
H17   H     H_    0.631999 0.126430 0.648123 0.139154
H18   H     H_    0.631981 0.873338 0.648139 0.135181
N1    N     N_R   0.499970 0.857200 0.499970 -0.082416
N2    N     N_R   0.499970 0.142800 0.499970 -0.082420
O1    O     O_R   0.316750 0.614620 0.499990 -0.627708
O2    O     O_R   0.316750 0.385380 0.499990 -0.619677
O3    O     O_R   0.499970 0.614670 0.314790 -0.633411
O4    O     O_R   0.499970 0.385330 0.314790 -0.633331
O5    O     O_R   0.683220 0.614710 0.500010 -0.628268
O6    O     O_R   0.683220 0.385290 0.500010 -0.622179
O7    O     O_R   0.500010 0.614660 0.685200 -0.612043
O8    O     O_R   0.500010 0.385340 0.685200 -0.633684
Zn1   Zn    Zn3+2 0.499980 0.653120 0.500000 0.961503
Zn2   Zn    Zn3+2 0.499980 0.346880 0.500000 0.961692
Cl1   Cl    Cl    0.238808 0.498371 0.867202 -0.608934
Cl2   Cl    Cl    0.761373 0.494438 0.867943 -0.618808

loop_
_geom_bond_atom_site_label_1
_geom_bond_atom_site_label_2
_ccdc_geom_bond_type
C2    C22   S    
O8    Zn2   S    
C11   C12   A    
C4    H14   S    
C16   C21   S    
C5    H15   S    
C16   H1    S    
C1    C8    S    
C9    C10   A    
C1    O2    A    
C3    H13   S    
C4    C8    A    
O1    Zn1   S    
C2    H12   S    
C16   H5    S    
C6    H16   S    
C13   C21   S    
C15   C22   S    
C18   H7    S    
C18   C22   S    
C10   N1    A    
C13   O3    A    
C17   H6    S    
O2    Zn2   S    
C9    N2    A    
C14   O5    A    
C19   Cl2   S    
C4    C6    A    
C17   C19   S    
N1    Zn1   S    
C11   N1    A    
C6    C7    A    
C15   O7    A    
C13   O4    A    
C17   H2    S    
O3    Zn1   S    
C12   N2    A    
O4    Zn2   S    
C9    H17   S    
C19   C22   S    
C20   C21   S    
C2    H11   S    
C16   C18   S    
C3    C8    A    
C20   H10   S    
C15   O8    A    
C12   H4    S    
C5    C7    A    
C14   O6    A    
C11   H3    S    
C10   H18   S    
O5    Zn1   S    
C18   Cl1   S    
C3    C5    A    
O6    Zn2   S    
C19   H8    S    
C2    C20   S    
C1    O1    A    
C7    C14   S    
C17   C21   S    
N2    Zn2   S    
O7    Zn1   S    
C20   H9    S    
