data_mof_unit_28040.cif
_audit_creation_date              2012-12-10T17:17:24-0500
_audit_creation_method            fapswitch 2.2
_symmetry_space_group_name_H-M    P1
_symmetry_Int_Tables_number       1
_space_group_crystal_system       triclinic
_cell_length_a                    27.82335
_cell_length_b                    12.95945
_cell_length_c                    11.718266
_cell_angle_alpha                 101.005538
_cell_angle_beta                  93.640055
_cell_angle_gamma                 90.806186
_cell_volume                      4137.76153242

loop_
_atom_site_label
_atom_site_type_symbol
_atom_type_description
_atom_site_fract_x
_atom_site_fract_y
_atom_site_fract_z
_atom_type_partial_charge
C1    C     C_R   0.499684 0.298743 0.477190 0.829162
C2    C     C_R   0.499528 0.701320 0.522591 0.853269
C3    C     C_R   0.101166 0.493138 0.500558 -0.222135
C4    C     C_R   0.898217 0.491886 0.520840 -0.221950
C5    C     C_R   0.125189 0.398441 0.465944 -0.220563
C6    C     C_R   0.874968 0.585004 0.567755 -0.220192
C7    C     C_R   0.098075 0.306587 0.418745 0.571631
C8    C     C_R   0.902946 0.674146 0.620762 0.590327
C9    C     C_R   0.128076 0.588723 0.529174 -0.236606
C10   C     C_R   0.870541 0.398648 0.480367 -0.225109
C11   C     C_R   0.354050 0.498018 0.500723 -0.429109
C12   C     C_R   0.645476 0.497207 0.501193 -0.470995
C13   C     C_R   0.972459 0.395259 0.478023 -0.083338
C14   C     C_R   0.026613 0.588199 0.541188 -0.079924
C15   C     C_R   0.976463 0.586059 0.557193 -0.079574
C16   C     C_R   0.023217 0.396502 0.467194 -0.080183
C17   C     C_R   0.949187 0.491294 0.517184 -0.054095
C18   C     C_R   0.050193 0.492363 0.504438 -0.053376
C19   C     C_R   0.944117 0.300913 0.459938 0.612475
C20   C     C_R   0.053711 0.683444 0.552207 0.611670
C21   C     C_R   0.894056 0.303021 0.453536 0.593000
C22   C     C_R   0.103649 0.683648 0.550934 0.591570
C23   C     C_R   0.407311 0.499855 0.500372 0.936953
C24   C     C_R   0.592520 0.499372 0.499818 0.940125
C25   C     C_R   0.048005 0.307566 0.412239 0.614631
C26   C     C_R   0.952878 0.673294 0.619573 0.611261
C27   C     C_R   0.495382 0.815441 0.535991 -0.195386
C28   C     C_R   0.498901 0.184244 0.461377 -0.208954
C29   C     C_R   0.510289 0.010382 0.347001 0.358943
C30   C     C_R   0.469196 0.985161 0.637071 0.364995
C31   C     C_R   0.513518 0.120147 0.358509 0.389366
C32   C     C_R   0.478978 0.878115 0.637521 0.351264
C33   C     C_R   0.483058 0.138876 0.551736 -0.259114
C34   C     C_R   0.505833 0.860334 0.441182 -0.268098
C35   C     C_R   0.483929 0.030528 0.544692 -0.050860
C36   C     C_R   0.500050 0.966759 0.443953 -0.061905
C37   C     C_R   0.450001 0.411030 0.022093 0.309208
C38   C     C_R   0.551915 0.584794 0.977797 0.327815
C39   C     C_R   0.456621 0.415901 0.143599 0.643332
C40   C     C_R   0.545721 0.577965 0.855108 0.598804
C41   C     C_R   0.521786 0.537825 0.157411 0.758333
C42   C     C_R   0.477614 0.463850 0.842782 0.790216
C43   C     C_R   0.518677 0.531184 0.034022 -0.349651
C44   C     C_R   0.481566 0.468534 0.965685 -0.377860
C45   C     C_R   0.175808 0.399763 0.472805 0.686866
C46   C     C_R   0.824351 0.584289 0.565739 0.680154
C47   C     C_R   0.178625 0.586673 0.528409 0.755321
C48   C     C_R   0.819993 0.403169 0.474723 0.758189
C49   C     C_R   0.281125 0.517096 0.606058 0.522475
C50   C     C_R   0.721956 0.459845 0.595012 0.563497
C51   C     C_R   0.331255 0.518177 0.606575 0.444004
C52   C     C_R   0.671853 0.460079 0.591147 0.454033
C53   C     C_R   0.325296 0.476350 0.394742 0.431814
C54   C     C_R   0.670291 0.533806 0.415185 0.467868
C55   C     C_R   0.274826 0.470513 0.394767 0.311843
C56   C     C_R   0.720779 0.536198 0.420987 0.298044
C57   C     C_R   0.252882 0.493107 0.500958 -0.026875
C58   C     C_R   0.746580 0.497533 0.510346 -0.074935
Cu1   Cu    Cu3+1 0.503580 0.507730 0.615930 1.111387
Cu2   Cu    Cu3+1 0.496420 0.492270 0.384070 1.087995
H1    H     H_    0.520618 0.812313 0.366321 0.238694
H2    H     H_    0.471095 0.188882 0.629211 0.251263
N1    N     N_R   0.201285 0.493043 0.501924 -0.410853
N2    N     N_R   0.798171 0.495532 0.515128 -0.412335
N3    N     N_R   0.508960 0.519350 0.790140 -0.296376
N4    N     N_R   0.491040 0.480650 0.209860 -0.323475
O1    O     O_R   0.502540 0.354460 0.582000 -0.567263
O2    O     O_R   0.497460 0.645540 0.418000 -0.584714
O3    O     O_R   0.496500 0.341410 0.386200 -0.517198
O4    O     O_R   0.503500 0.658590 0.613800 -0.521904
O5    O     O_R   0.433290 0.506540 0.597890 -0.501702
O6    O     O_R   0.566710 0.493460 0.402110 -0.524452
O7    O     O_R   0.427240 0.493490 0.402090 -0.504601
O8    O     O_R   0.572760 0.506510 0.597910 -0.485019
O9    O     O_2   0.199517 0.308733 0.451758 -0.488208
O10   O     O_2   0.801315 0.671086 0.614070 -0.471923
O11   O     O_2   0.792714 0.316334 0.429423 -0.442080
O12   O     O_2   0.205086 0.677175 0.553659 -0.420767
F1    F     F_    0.345798 0.463096 0.291094 -0.628379
F2    F     F_    0.645884 0.569845 0.327402 -0.567164
O13   O     O_3   0.470877 0.830957 0.731957 -0.597314
C59   C     C_3   0.491445 0.887960 0.840175 0.112518
H3    H     H_    0.492083 0.832630 0.901308 0.149192
H4    H     H_    0.467633 0.951711 0.877577 0.180169
C60   C     C_3   0.543891 0.928342 0.839272 -0.377218
H5    H     H_    0.567681 0.860487 0.816301 0.239080
H6    H     H_    0.547513 0.979641 0.774509 0.233442
C61   C     C_3   0.560688 0.993569 0.958094 -0.902030
H7    H     H_    0.536760 0.061284 0.980898 0.285297
H8    H     H_    0.597863 0.024793 0.955549 0.264088
H9    H     H_    0.560231 0.945287 0.026659 0.262777
O14   O     O_3   0.528131 0.164697 0.267324 -0.568016
C62   C     C_3   0.577989 0.149274 0.253740 0.071168
H10   H     H_    0.584374 0.148847 0.161194 0.180750
H11   H     H_    0.590733 0.072553 0.272147 0.158506
C63   C     C_3   0.608264 0.239840 0.328677 -0.423173
H12   H     H_    0.597971 0.314458 0.301636 0.261044
H13   H     H_    0.601318 0.245496 0.421964 0.214771
C64   C     C_3   0.661975 0.224138 0.314408 -0.752449
H14   H     H_    0.673369 0.150415 0.342241 0.260972
H15   H     H_    0.682973 0.291065 0.369191 0.261206
H16   H     H_    0.670037 0.220300 0.222083 0.266221
O15   O     O_3   0.517363 0.945983 0.240932 -0.629559
C65   C     C_3   0.472119 0.917725 0.178859 0.077470
H17   H     H_    0.469006 0.960055 0.104838 0.168434
H18   H     H_    0.440213 0.938450 0.231409 0.140823
C66   C     C_3   0.469515 0.798999 0.131286 -0.390619
H19   H     H_    0.500495 0.776329 0.077704 0.208656
H20   H     H_    0.471687 0.755687 0.204305 0.239855
C67   C     C_3   0.422500 0.765280 0.058391 -0.860008
H21   H     H_    0.391444 0.779906 0.113835 0.271509
H22   H     H_    0.423042 0.679893 0.020845 0.256282
H23   H     H_    0.417677 0.809204 0.986104 0.259461
O16   O     O_3   0.448005 0.047389 0.728939 -0.611136
C68   C     C_3   0.397823 0.024681 0.721110 0.080392
H24   H     H_    0.385344 0.044664 0.810687 0.179257
H25   H     H_    0.388424 0.939663 0.688792 0.154860
C69   C     C_3   0.370862 0.092272 0.645259 -0.406097
H26   H     H_    0.380842 0.176470 0.678292 0.257077
H27   H     H_    0.381314 0.070475 0.554020 0.222427
C70   C     C_3   0.316405 0.077174 0.645959 -0.807958
H28   H     H_    0.305545 0.994038 0.609375 0.279932
H29   H     H_    0.298042 0.128404 0.591839 0.273647
H30   H     H_    0.304695 0.098586 0.736081 0.251314
F3    F     F_    0.443071 0.401894 0.774937 -0.609940
F4    F     F_    0.554833 0.603586 0.225745 -0.573837
F5    F     F_    0.577845 0.626766 0.799863 -0.651380
F6    F     F_    0.428247 0.354864 0.195041 -0.593433
O17   O     O_3   0.414323 0.345223 0.958299 -0.528724
C71   C     C_3   0.370024 0.397009 0.968218 0.154413
H31   H     H_    0.373239 0.478316 0.950131 0.169534
H32   H     H_    0.357472 0.401047 0.057232 0.197473
C72   C     C_3   0.332542 0.335207 0.879483 -0.343938
H33   H     H_    0.344028 0.333995 0.790113 0.272501
H34   H     H_    0.329767 0.252930 0.893439 0.213905
C73   C     C_3   0.283247 0.384649 0.890349 -0.781321
H35   H     H_    0.269353 0.379179 0.975538 0.234677
H36   H     H_    0.257545 0.342679 0.819799 0.275775
H37   H     H_    0.285803 0.468760 0.883746 0.326927
O18   O     O_3   0.594315 0.625930 0.040043 -0.503763
C74   C     C_3   0.604450 0.731039 0.030278 0.139448
H38   H     H_    0.603430 0.780915 0.118447 0.174196
H39   H     H_    0.578005 0.763897 0.972569 0.119686
C75   C     C_3   0.655290 0.738120 0.988780 -0.264966
H40   H     H_    0.681231 0.707546 0.049059 0.227911
H41   H     H_    0.657358 0.688125 0.901140 0.285927
C76   C     C_3   0.670254 0.850648 0.983555 -0.897852
H42   H     H_    0.649561 0.876668 0.910644 0.274267
H43   H     H_    0.709128 0.854075 0.967836 0.289626
H44   H     H_    0.664150 0.904739 0.066748 0.247420
O19   O     O_3   0.246017 0.451943 0.291658 -0.560161
C77   C     C_3   0.252789 0.349067 0.228951 0.127047
H45   H     H_    0.260490 0.291491 0.287115 0.168633
H46   H     H_    0.283219 0.349978 0.172242 0.189005
C78   C     C_3   0.207015 0.311687 0.152205 -0.343869
H47   H     H_    0.176266 0.310308 0.208011 0.272440
H48   H     H_    0.198786 0.367466 0.092854 0.234673
C79   C     C_3   0.212478 0.201867 0.079841 -0.785562
H49   H     H_    0.242753 0.201403 0.022353 0.236340
H50   H     H_    0.178811 0.177520 0.024599 0.289187
H51   H     H_    0.219315 0.144315 0.137759 0.281615
O20   O     O_3   0.744817 0.572836 0.336400 -0.547071
C80   C     C_3   0.752678 0.683165 0.369068 0.162607
H52   H     H_    0.792126 0.699135 0.384792 0.177678
H53   H     H_    0.735387 0.720524 0.449912 0.152091
C81   C     C_3   0.734034 0.735708 0.269536 -0.355412
H54   H     H_    0.751547 0.701002 0.188870 0.248558
H55   H     H_    0.694491 0.721286 0.254330 0.271911
C82   C     C_3   0.744431 0.854122 0.297499 -0.816653
H56   H     H_    0.726188 0.890899 0.376216 0.265134
H57   H     H_    0.730770 0.889645 0.223146 0.260235
H58   H     H_    0.783835 0.870747 0.312642 0.294803
F7    F     F_    0.119642 0.217167 0.369277 -0.550818
F8    F     F_    0.882493 0.761766 0.678569 -0.529811
F9    F     F_    0.649205 0.421626 0.674123 -0.569895
F10   F     F_    0.357190 0.541614 0.710763 -0.597654
F11   F     F_    0.746832 0.422820 0.681493 -0.561089
F12   F     F_    0.259630 0.540712 0.708121 -0.614691
F13   F     F_    0.868966 0.209853 0.429795 -0.533334
F14   F     F_    0.127565 0.777879 0.565809 -0.530452
F15   F     F_    0.963809 0.206240 0.462777 -0.512708
F16   F     F_    0.032216 0.776482 0.550125 -0.517703
F17   F     F_    0.024887 0.225576 0.339211 -0.524748
F18   F     F_    0.977701 0.753519 0.691644 -0.524473

loop_
_geom_bond_atom_site_label_1
_geom_bond_atom_site_label_2
_ccdc_geom_bond_type
C79   H50   S    
C31   O14   S    
C62   H10   S    
C78   H48   S    
C66   H20   S    
C82   H56   S    
C14   C18   A    
C35   C36   A    
C76   H42   S    
C19   F15   S    
C69   H27   S    
C65   H18   S    
O16   C68   S    
C49   C57   A    
C60   H5    S    
C32   O13   S    
C29   C36   A    
C30   C35   A    
C80   H53   S    
C49   F12   S    
C2    O2    A    
C75   C76   S    
C47   N1    A    
C33   C35   A    
C8    F8    S    
C9    C22   A    
C48   N2    A    
Cu2   O6    S    
C68   H24   S    
C63   C64   S    
C56   O20   S    
Cu2   O7    S    
C8    C26   A    
C29   O15   S    
C3    C18   A    
C69   H26   S    
C70   H30   S    
C79   H51   S    
Cu1   O1    S    
C67   H21   S    
C80   H52   S    
C37   O17   S    
C33   H2    S    
C68   H25   S    
C63   H13   S    
C1    C28   S    
C50   C52   A    
O19   C77   S    
C77   C78   S    
C2    C27   S    
C11   C53   A    
C60   H6    S    
Cu2   N4    S    
Cu1   Cu2   S    
C62   H11   S    
C38   C40   A    
C1    O3    A    
C78   C79   S    
C81   H55   S    
C41   C43   A    
C27   C34   A    
C42   C44   A    
C23   O7    A    
C73   H37   S    
C46   O10   S    
C65   H17   S    
C12   C52   A    
C57   N1    S    
C54   F2    S    
C53   C55   A    
C10   C21   A    
C58   N2    S    
C54   C56   A    
C13   C19   A    
C50   C58   A    
C23   O5    A    
C80   C81   S    
O18   C74   S    
C22   F14   S    
C74   C75   S    
C5    C7    A    
C73   H35   S    
C15   C26   A    
C6    C8    A    
C49   C51   A    
C40   F5    S    
C5    C45   A    
C45   N1    A    
C34   H1    S    
O13   C59   S    
C46   N2    A    
C69   C70   S    
C48   O11   S    
C71   H32   S    
C43   C44   A    
C3    C9    A    
C14   C20   A    
C42   N3    A    
C75   H41   S    
C64   H14   S    
Cu1   O8    S    
C61   H9    S    
C66   H19   S    
C68   C69   S    
C63   H12   S    
C76   H44   S    
C16   C18   A    
C77   H45   S    
C52   F9    S    
Cu2   O2    S    
C70   H28   S    
C72   C73   S    
C4    C17   A    
C73   H36   S    
C64   H15   S    
C77   H46   S    
C28   C33   A    
C9    C47   A    
C62   C63   S    
C59   H4    S    
C40   N3    A    
C55   C57   A    
C10   C48   A    
C79   H49   S    
C66   C67   S    
C4    C6    A    
C4    C10   A    
O15   C65   S    
C24   O6    A    
C20   F16   S    
O20   C80   S    
C82   H57   S    
C60   C61   S    
C16   C25   A    
C15   C17   A    
C61   H8    S    
C39   F6    S    
C6    C46   A    
C76   H43   S    
C27   C32   A    
C41   F4    S    
C28   C31   A    
C50   F11   S    
C20   C22   A    
C75   H40   S    
C3    C5    A    
C55   O19   S    
C41   N4    A    
C1    O1    A    
C59   C60   S    
C12   C24   S    
C7    C25   A    
C13   C17   A    
C45   O9    S    
C53   F1    S    
C37   C44   A    
C74   H39   S    
C71   H31   S    
O17   C71   S    
C38   C43   A    
C37   C39   A    
C74   H38   S    
Cu1   N3    S    
C30   C32   A    
C24   O8    A    
C72   H33   S    
C81   H54   S    
Cu2   O3    S    
C7    F7    S    
C11   C23   S    
O14   C62   S    
C39   N4    A    
C56   C58   A    
C30   O16   S    
C34   C36   A    
C51   F10   S    
C67   H22   S    
C70   H29   S    
C11   C51   A    
Cu1   O4    S    
C71   C72   S    
C21   F13   S    
C64   H16   S    
C61   H7    S    
C42   F3    S    
C81   C82   S    
C29   C31   A    
C59   H3    S    
C13   C16   A    
C67   H23   S    
C78   H47   S    
C72   H34   S    
C38   O18   S    
C14   C15   A    
C82   H58   S    
C47   O12   S    
C2    O4    A    
C65   C66   S    
C12   C54   A    
C25   F17   S    
Cu1   O5    S    
C19   C21   A    
C26   F18   S    
