data_mof_unit_9673.cif
_audit_creation_date              2012-12-11T15:48:11-0500
_audit_creation_method            fapswitch 2.2
_symmetry_space_group_name_H-M    P1
_symmetry_Int_Tables_number       1
_space_group_crystal_system       triclinic
_cell_length_a                    6.929939
_cell_length_b                    17.594702
_cell_length_c                    19.458582
_cell_angle_alpha                 108.533822
_cell_angle_beta                  89.529128
_cell_angle_gamma                 90.595938
_cell_volume                      2249.38562798

loop_
_atom_site_label
_atom_site_type_symbol
_atom_type_description
_atom_site_fract_x
_atom_site_fract_y
_atom_site_fract_z
_atom_type_partial_charge
O1    O     O_R   0.494330 0.415710 0.413720 -0.541204
O2    O     O_R   0.819360 0.430070 0.560210 -0.543335
O3    O     O_R   0.994320 0.584290 0.586280 -0.540856
C1    C     C_R   0.649965 0.414449 0.581366 0.714934
O4    O     O_R   0.823740 0.406290 0.412670 -0.543779
O5    O     O_R   0.998730 0.560340 0.437690 -0.539203
C2    C     C_R   0.654770 0.383106 0.384677 0.685832
O6    O     O_R   0.489920 0.439660 0.562310 -0.539154
O7    O     O_3   0.662330 0.550570 0.508380 -0.370191
V1    V     V_3+5 0.935370 0.490620 0.498440 1.397981
O8    O     O_R   0.328720 0.569930 0.439790 -0.542073
C3    C     C_R   0.160749 0.585210 0.418237 0.710891
O9    O     O_R   0.324340 0.593710 0.587330 -0.544098
C4    C     C_R   0.155163 0.616990 0.615256 0.683495
V2    V     V_3+5 0.435940 0.509380 0.501560 1.397587
O10   O     O_3   0.159110 0.449430 0.491620 -0.369268
C5    C     C_R   0.312369 0.723452 0.718868 -0.157456
H1    H     H_    0.453370 0.703776 0.696185 0.115402
C6    C     C_R   0.301138 0.787230 0.783836 -0.153888
H2    H     H_    0.434079 0.814854 0.809062 0.115384
C7    C     C_R   0.121204 0.814885 0.815715 -0.057466
C8    C     C_R   0.952797 0.777237 0.780580 -0.168822
H3    H     H_    0.811794 0.797033 0.803189 0.114769
C9    C     C_R   0.964024 0.713454 0.715624 -0.150537
H4    H     H_    0.831063 0.685916 0.690353 0.118550
C10   C     C_R   0.143981 0.685572 0.683884 -0.046024
C11   C     C_R   0.308389 0.634666 0.321730 -0.221065
C12   C     C_R   0.153368 0.634780 0.369049 -0.083861
C13   C     C_R   0.990120 0.681595 0.368389 -0.220288
C14   C     C_R   0.981905 0.728409 0.321851 0.089430
C15   C     C_R   0.136734 0.726981 0.273881 0.053223
C16   C     C_R   0.299985 0.679544 0.273546 0.090063
C17   C     C_R   0.821581 0.776732 0.322418 -0.190894
C18   C     C_R   0.813323 0.822388 0.275246 -0.183194
C19   C     C_R   0.964936 0.820433 0.226432 0.090344
C20   C     C_R   0.128194 0.773000 0.226101 0.053010
C21   C     C_R   0.283023 0.771572 0.178132 0.088869
C22   C     C_R   0.443356 0.723256 0.177570 -0.189441
C23   C     C_R   0.451609 0.677596 0.224738 -0.182508
C24   C     C_R   0.956513 0.865295 0.178235 -0.221425
C25   C     C_R   0.111525 0.865172 0.130909 -0.081608
C26   C     C_R   0.274795 0.818375 0.131584 -0.219169
H5    H     H_    0.434125 0.598386 0.321414 0.124206
H6    H     H_    0.870346 0.682403 0.404813 0.127258
H7    H     H_    0.701678 0.778829 0.359059 0.133711
H8    H     H_    0.687383 0.858840 0.276605 0.135335
H9    H     H_    0.830768 0.901567 0.178542 0.123442
H10   H     H_    0.394568 0.817566 0.095160 0.127166
H11   H     H_    0.563264 0.721162 0.140932 0.134472
H12   H     H_    0.577549 0.641144 0.223379 0.135824
C27   C     C_R   0.469818 0.182777 0.864880 -0.266104
C28   C     C_R   0.624478 0.132220 0.866785 -0.183053
C29   C     C_R   0.782931 0.126196 0.818732 0.406395
C30   C     C_R   0.787796 0.173249 0.771740 -0.003995
C31   C     C_R   0.631322 0.223938 0.770989 -0.010857
C32   C     C_R   0.472149 0.228503 0.817645 0.086323
C33   C     C_R   0.945591 0.170202 0.724946 -0.162204
C34   C     C_R   0.948297 0.216314 0.678260 -0.206008
C35   C     C_R   0.793780 0.266685 0.677284 0.095778
C36   C     C_R   0.633967 0.270350 0.723475 0.081274
C37   C     C_R   0.477034 0.320560 0.722338 0.089891
C38   C     C_R   0.320116 0.324736 0.769337 -0.193147
C39   C     C_R   0.317861 0.279240 0.816646 -0.155417
C40   C     C_R   0.797087 0.313733 0.631118 -0.223258
C41   C     C_R   0.641109 0.363714 0.629339 -0.086033
C42   C     C_R   0.480531 0.366177 0.674705 -0.223829
H13   H     H_    0.347264 0.187222 0.900916 0.164302
H14   H     H_    0.068450 0.132498 0.724460 0.169984
H15   H     H_    0.072311 0.212900 0.643138 0.135028
H16   H     H_    0.921210 0.311008 0.596144 0.130656
H17   H     H_    0.360223 0.404861 0.674093 0.126665
H18   H     H_    0.198684 0.363073 0.769404 0.133686
H19   H     H_    0.194565 0.283419 0.852244 0.134179
C43   C     C_R   0.811595 0.276207 0.281621 -0.156735
H20   H     H_    0.952294 0.295313 0.304884 0.116707
C44   C     C_R   0.800489 0.212424 0.216657 -0.152015
H21   H     H_    0.933171 0.184248 0.192005 0.118015
C45   C     C_R   0.620973 0.185366 0.184123 -0.043834
C46   C     C_R   0.452864 0.223873 0.218433 -0.156478
H22   H     H_    0.312173 0.204760 0.195164 0.116271
C47   C     C_R   0.463971 0.287661 0.283402 -0.152433
H23   H     H_    0.331301 0.315842 0.308060 0.118662
C48   C     C_R   0.643495 0.314716 0.315933 -0.046674
O11   O     O_R   0.774940 0.060470 0.937800 -0.508638
O12   O     O_R   0.440880 0.093730 0.087350 -0.545915
O13   O     O_R   0.266130 0.939630 0.062280 -0.541656
C49   C     C_R   0.609790 0.116971 0.115380 0.676998
O14   O     O_R   0.445480 0.069960 0.939820 -0.541524
O15   O     O_R   0.270770 0.915690 0.913690 -0.541677
C50   C     C_R   0.614914 0.084434 0.917593 0.746387
O16   O     O_R   0.770300 0.084410 0.086380 -0.544161
O17   O     O_3   0.602600 0.949510 0.991670 -0.377421
V3    V     V_3+5 0.329470 0.009370 0.001550 1.423385
O18   O     O_R   0.940760 0.906160 0.912560 -0.543446
C51   C     C_R   0.109978 0.883098 0.884579 0.697640
O19   O     O_R   0.936150 0.929930 0.060100 -0.544428
C52   C     C_R   0.104122 0.914720 0.081704 0.702942
V4    V     V_3+5 0.828930 0.990450 0.998310 1.428471
O20   O     O_3   0.105670 0.050490 0.008320 -0.360763
O21   O     O_3   0.935868 0.076296 0.819065 -0.550469
C53   C     C_3   0.896031 0.999733 0.769525 -0.235393
H24   H     H_    0.022162 0.960786 0.767475 0.155113
H25   H     H_    0.873410 0.002234 0.713713 0.123288
H26   H     H_    0.768803 0.971391 0.787134 0.119157

loop_
_geom_bond_atom_site_label_1
_geom_bond_atom_site_label_2
_ccdc_geom_bond_type
C45   C49   S    
C24   H9    S    
C2    C48   S    
C31   C32   A    
C53   H24   S    
C49   O16   A    
C17   H7    S    
C25   C26   A    
C28   C50   S    
C19   C20   A    
C43   C48   A    
C1    O6    A    
C47   H23   S    
O17   V4    S    
C22   H11   S    
C29   C30   A    
C35   C40   A    
C38   C39   A    
C43   C44   A    
C3    C12   S    
C5    C10   A    
C12   C13   A    
C6    C7    A    
C21   C22   A    
C44   C45   A    
C18   C19   A    
C15   C20   A    
O5    C3    A    
C14   C15   A    
O18   V4    S    
V2    O10   S    
C27   C32   A    
C16   C23   A    
C21   C26   A    
O13   C52   A    
O17   V3    S    
O9    C4    A    
O14   V3    S    
O8    V2    S    
C37   C42   A    
C15   C16   A    
O19   V4    S    
C18   H8    S    
C40   H16   S    
O7    V1    S    
V3    O20   S    
C35   C36   A    
C53   H25   S    
C31   C36   A    
O18   C51   A    
O11   C50   A    
C47   C48   A    
C5    H1    S    
O12   C49   A    
C29   O21   S    
C22   C23   A    
C43   H20   S    
C27   C28   A    
C9    H4    S    
O4    C2    A    
C45   C46   A    
C27   H13   S    
C7    C51   S    
C34   C35   A    
C4    C10   S    
C36   C37   A    
O15   C51   A    
O2    C1    A    
C42   H17   S    
C13   C14   A    
O13   V3    S    
O12   V3    S    
O19   C52   A    
C17   C18   A    
C32   C39   A    
C38   H18   S    
C26   H10   S    
C44   H21   S    
O3    C4    A    
O1    V2    S    
C24   C25   A    
O14   C50   A    
C41   C42   A    
O6    V2    S    
O9    V2    S    
C13   H6    S    
C25   C52   S    
C33   H14   S    
O2    V1    S    
C28   C29   A    
C46   C47   A    
C30   C31   A    
C20   C21   A    
C14   C17   A    
C11   C16   A    
O1    C2    A    
C9    C10   A    
O5    V1    S    
O8    C3    A    
C34   H15   S    
C53   H26   S    
C39   H19   S    
O11   V4    S    
C40   C41   A    
C6    H2    S    
C19   C24   A    
O7    V2    S    
O4    V1    S    
O3    V1    S    
V1    O10   S    
C33   C34   A    
C1    C41   S    
O21   C53   S    
C5    C6    A    
C8    C9    A    
O16   V4    S    
O15   V3    S    
C37   C38   A    
C46   H22   S    
C11   H5    S    
C23   H12   S    
V4    O20   S    
C11   C12   A    
C8    H3    S    
C7    C8    A    
C30   C33   A    
