data_mof_unit_23665.cif
_audit_creation_date              2012-12-10T17:59:49-0500
_audit_creation_method            fapswitch 2.2
_symmetry_space_group_name_H-M    P1
_symmetry_Int_Tables_number       1
_space_group_crystal_system       triclinic
_cell_length_a                    10.834459
_cell_length_b                    9.515404
_cell_length_c                    15.920644
_cell_angle_alpha                 90.044332
_cell_angle_beta                  90.178612
_cell_angle_gamma                 90.001627
_cell_volume                      1641.31845717

loop_
_atom_site_label
_atom_site_type_symbol
_atom_type_description
_atom_site_fract_x
_atom_site_fract_y
_atom_site_fract_z
_atom_type_partial_charge
C1    C     C_R   0.262373 0.500001 0.499954 0.829397
C2    C     C_R   0.936716 0.614263 0.464231 0.353959
C3    C     C_R   0.872489 0.500051 0.500059 -0.110627
C4    C     C_R   0.129087 0.500011 0.499961 -0.101411
C5    C     C_R   0.423580 0.074353 0.447558 -0.016135
C6    C     C_R   0.423554 0.925502 0.447574 -0.006651
C7    C     C_R   0.500017 0.499946 0.340278 0.818643
C8    C     C_R   0.576494 0.925641 0.552471 0.017628
C9    C     C_R   0.576435 0.074485 0.552509 0.015535
C10   C     C_R   0.738063 0.500010 0.500056 0.882216
C11   C     C_R   0.500028 0.500056 0.659744 0.811234
C12   C     C_3   0.634420 0.489547 0.949449 0.705592
C13   C     C_3   0.426848 0.634976 0.050659 0.449755
C14   C     C_3   0.432628 0.359901 0.049852 0.392873
C15   C     C_3   0.419415 0.368724 0.949745 0.377559
C16   C     C_3   0.433817 0.642732 0.949860 0.266185
C17   C     C_1   0.498970 0.500264 0.749090 -0.150490
C18   C     C_3   0.500064 0.499089 0.083064 -0.102166
C19   C     C_3   0.495556 0.501222 0.916973 -0.029309
C20   C     C_3   0.638560 0.501198 0.049241 0.502974
C21   C     C_1   0.497546 0.500684 0.824404 0.210770
C22   C     C_1   0.500180 0.499418 0.175608 0.092195
C23   C     C_1   0.500111 0.499759 0.250932 -0.163241
C24   C     C_R   0.065720 0.386516 0.534561 -0.281013
C25   C     C_R   0.065389 0.613553 0.465427 -0.271558
C26   C     C_R   0.937071 0.385871 0.535879 0.365434
Cu1   Cu    Cu3+1 0.500020 0.640660 0.500000 0.987890
Cu2   Cu    Cu3+1 0.500020 0.359340 0.500000 0.982302
H1    H     H_    0.637783 0.869579 0.594457 0.139239
H2    H     H_    0.238805 0.294279 0.945090 0.254323
H3    H     H_    0.251424 0.569756 0.042289 0.397457
H4    H     H_    0.322159 0.324073 0.146010 0.352912
H5    H     H_    0.442588 0.145544 0.074398 0.216249
H6    H     H_    0.574204 0.208442 0.036278 0.310451
H7    H     H_    0.413391 0.844959 0.083900 0.230622
H8    H     H_    0.557937 0.800254 0.062002 0.267329
H9    H     H_    0.411902 0.165883 0.925824 0.317317
H10   H     H_    0.460185 0.845626 0.932436 0.330609
H11   H     H_    0.704955 0.628917 0.135880 0.339310
H12   H     H_    0.637570 0.130632 0.594594 0.168418
H13   H     H_    0.716471 0.397567 0.143147 0.336830
H14   H     H_    0.706474 0.682871 0.936509 0.398365
H15   H     H_    0.771504 0.358205 0.931642 0.381327
H16   H     H_    0.932607 0.206371 0.595083 0.324918
H17   H     H_    0.931678 0.793865 0.405152 0.328434
H18   H     H_    0.116449 0.299740 0.562086 0.156323
H19   H     H_    0.115863 0.700330 0.437887 0.151801
H20   H     H_    0.362305 0.130416 0.405563 0.129613
H21   H     H_    0.362234 0.869322 0.405606 0.126829
H22   H     H_    0.317833 0.680640 0.847939 0.238062
H23   H     H_    0.268184 0.750846 0.937740 0.234925
H24   H     H_    0.281329 0.382176 0.859655 0.225294
N1    N     N_R   0.500030 0.852070 0.500020 -0.165170
N2    N     N_R   0.500030 0.147930 0.500020 -0.170930
N3    N     N_3   0.309795 0.661186 0.912336 -0.576106
N4    N     N_3   0.288325 0.382508 0.925193 -0.541123
N5    N     N_3   0.501438 0.232713 0.076412 -0.567213
N6    N     N_3   0.477626 0.763442 0.090120 -0.533695
O1    O     O_R   0.319660 0.618740 0.500000 -0.592422
O2    O     O_3   0.313653 0.349943 0.085864 -0.718743
O3    O     O_3   0.465836 0.246180 0.910541 -0.700333
O4    O     O_3   0.506608 0.757101 0.922818 -0.752487
O5    O     O_3   0.700920 0.624913 0.073665 -0.742483
O6    O     O_3   0.707460 0.386854 0.081464 -0.702900
O7    O     O_3   0.710322 0.590331 0.908729 -0.686035
O8    O     O_3   0.680286 0.356901 0.924990 -0.651364
O9    O     O_3   0.873203 0.276929 0.573351 -0.721603
O10   O     O_3   0.872466 0.723328 0.426906 -0.705907
O11   O     O_R   0.319660 0.381260 0.500000 -0.593232
O12   O     O_R   0.500020 0.618840 0.379440 -0.564117
O13   O     O_R   0.500020 0.381160 0.379440 -0.583463
O14   O     O_R   0.680370 0.618830 0.500010 -0.541553
O15   O     O_R   0.680370 0.381170 0.500010 -0.542376
O16   O     O_R   0.500010 0.618730 0.620560 -0.583212
O17   O     O_R   0.500010 0.381270 0.620560 -0.570644
O18   O     O_3   0.303406 0.627461 0.079857 -0.679384

loop_
_geom_bond_atom_site_label_1
_geom_bond_atom_site_label_2
_ccdc_geom_bond_type
C14   C18   S    
Cu2   O11   S    
C7    O12   A    
C4    C25   A    
C15   C19   S    
C13   C18   S    
H7    N6    S    
C8    H1    S    
C19   C21   S    
C24   C26   A    
H8    N6    S    
C1    O1    A    
C7    O13   A    
C5    C6    A    
C4    C24   A    
C10   O15   A    
C8    C9    A    
H6    N5    S    
Cu1   O16   S    
C25   H19   S    
H23   N3    S    
C18   C22   S    
C16   O4    S    
Cu2   O15   S    
C16   C19   S    
C5    H20   S    
C5    N2    A    
Cu2   N2    S    
C13   N6    S    
C12   O8    S    
C9    H12   S    
C1    O11   A    
C20   O6    S    
H14   O7    S    
C13   O18   S    
C12   C20   S    
H17   O10   S    
C15   O3    S    
Cu1   O12   S    
Cu2   O13   S    
H4    O2    S    
C6    N1    A    
C14   O2    S    
C14   N5    S    
C11   C17   S    
H5    N5    S    
C22   C23   T    
C3    C26   A    
C11   O16   A    
C8    N1    A    
H9    O3    S    
Cu1   N1    S    
C26   O9    S    
H11   O5    S    
C12   O7    S    
C2    O10   S    
H22   N3    S    
C1    C4    S    
C24   H18   S    
C15   N4    S    
C20   O5    S    
C2    C3    A    
C16   N3    S    
C3    C10   S    
C11   O17   A    
H3    O18   S    
H2    N4    S    
H15   O8    S    
C7    C23   S    
C12   C19   S    
C2    C25   A    
C18   C20   S    
C6    H21   S    
C17   C21   T    
C13   C16   S    
Cu1   Cu2   S    
C14   C15   S    
H16   O9    S    
Cu1   O1    S    
C9    N2    A    
H13   O6    S    
Cu2   O17   S    
Cu1   O14   S    
H24   N4    S    
H10   O4    S    
C10   O14   A    
