data_mof_unit_59106.cif
_audit_creation_date              2012-12-11T15:25:34-0500
_audit_creation_method            fapswitch 2.2
_symmetry_space_group_name_H-M    P1
_symmetry_Int_Tables_number       1
_space_group_crystal_system       triclinic
_cell_length_a                    6.933291
_cell_length_b                    23.033977
_cell_length_c                    25.87183
_cell_angle_alpha                 104.549668
_cell_angle_beta                  89.843541
_cell_angle_gamma                 90.342873
_cell_volume                      3999.18444322

loop_
_atom_site_label
_atom_site_type_symbol
_atom_type_description
_atom_site_fract_x
_atom_site_fract_y
_atom_site_fract_z
_atom_type_partial_charge
O1    O     O_R   0.494330 0.439230 0.438150 -0.526223
O2    O     O_R   0.820190 0.446230 0.546380 -0.547379
O3    O     O_R   0.994320 0.560770 0.561850 -0.539560
C1    C     C_R   0.651450 0.435070 0.563798 0.690685
O4    O     O_R   0.823790 0.432220 0.437600 -0.542078
O5    O     O_R   0.997940 0.546660 0.452300 -0.539072
C2    C     C_R   0.654782 0.414746 0.418153 0.724222
O6    O     O_R   0.490700 0.453340 0.547700 -0.537042
O7    O     O_3   0.662060 0.537560 0.504950 -0.369134
V1    V     V_3+5 0.935420 0.493030 0.499080 1.395024
O8    O     O_R   0.327880 0.553770 0.453620 -0.544494
C3    C     C_R   0.159380 0.565997 0.437088 0.735831
O9    O     O_R   0.324280 0.567780 0.562400 -0.538608
C4    C     C_R   0.155484 0.583516 0.582966 0.708657
V2    V     V_3+5 0.435890 0.506970 0.500920 1.414300
O10   O     O_3   0.159380 0.462440 0.495050 -0.362440
C5    C     C_R   0.148875 0.880226 0.819396 0.405993
C6    C     C_R   0.079940 0.868246 0.867152 -0.186744
C7    C     C_R   0.009908 0.811143 0.866773 -0.277968
C8    C     C_R   0.016460 0.764020 0.820111 0.066793
C9    C     C_R   0.104524 0.774051 0.773566 -0.080193
C10   C     C_R   0.176841 0.831971 0.773413 0.023705
C11   C     C_R   0.939249 0.706647 0.818997 0.179645
C12   C     C_R   0.950050 0.660420 0.772318 -0.118130
C13   C     C_R   0.039551 0.669104 0.726047 0.051348
C14   C     C_R   0.118990 0.726061 0.726938 0.016856
C15   C     C_R   0.212702 0.735047 0.681137 0.094295
C16   C     C_R   0.290607 0.791332 0.681897 -0.255783
C17   C     C_R   0.273685 0.839630 0.727128 0.209457
C18   C     C_R   0.050212 0.621968 0.678916 0.153927
C19   C     C_R   0.144732 0.631557 0.633112 -0.113502
C20   C     C_R   0.227641 0.687682 0.635017 -0.237524
H1    H     H_    0.950438 0.804113 0.903470 0.134168
H2    H     H_    0.888098 0.617266 0.772781 0.188613
H3    H     H_    0.299950 0.694831 0.599876 0.118761
H4    H     H_    0.365415 0.798154 0.647011 0.124004
C21   C     C_R   0.255728 0.877159 0.117649 -0.168022
H5    H     H_    0.389477 0.889110 0.101124 0.121341
C22   C     C_R   0.263873 0.841708 0.154368 -0.135354
H6    H     H_    0.403640 0.827488 0.164973 0.133273
C23   C     C_R   0.094287 0.824943 0.177062 0.032263
C24   C     C_R   0.916292 0.844880 0.162131 -0.136561
H7    H     H_    0.782687 0.833066 0.178807 0.136844
C25   C     C_R   0.908053 0.880088 0.125175 -0.164685
H8    H     H_    0.768423 0.894603 0.114750 0.118189
C26   C     C_R   0.077656 0.896590 0.102289 -0.049884
N1    N     N_R   0.941519 0.773838 0.240662 -0.284805
N2    N     N_R   0.949803 0.739366 0.275027 -0.216106
C27   C     C_R   0.119932 0.715910 0.285967 0.546295
N3    N     N_R   0.281452 0.728817 0.261009 -0.247672
N4    N     N_R   0.273420 0.763380 0.226743 -0.293307
C28   C     C_R   0.103237 0.786675 0.215734 0.480674
C29   C     C_R   0.299205 0.676215 0.354977 0.389243
C30   C     C_R   0.310028 0.638194 0.389818 -0.273718
H9    H     H_    0.444140 0.635954 0.410605 0.141961
C31   C     C_R   0.149736 0.604679 0.398800 -0.150898
C32   C     C_R   0.979231 0.607809 0.370566 -0.284900
H10   H     H_    0.854185 0.582943 0.378193 0.128679
C33   C     C_R   0.969389 0.641635 0.331874 0.400822
C34   C     C_R   0.129534 0.677455 0.324820 -0.164216
C35   C     C_R   0.466771 0.370800 0.612760 -0.235484
H11   H     H_    0.335853 0.378620 0.592821 0.133045
C36   C     C_R   0.457574 0.334020 0.648606 0.449525
C37   C     C_R   0.625236 0.324405 0.676650 -0.081582
C38   C     C_R   0.799776 0.350482 0.665970 -0.189743
H12   H     H_    0.929852 0.344461 0.686956 0.208181
C39   C     C_R   0.808746 0.385491 0.628939 -0.163793
H13   H     H_    0.946223 0.404863 0.622060 0.143807
C40   C     C_R   0.642194 0.396439 0.602089 -0.117148
N5    N     N_R   0.783824 0.261293 0.729041 -0.284864
N6    N     N_R   0.778895 0.227139 0.763789 -0.282167
C41   C     C_R   0.610808 0.217905 0.787821 0.511401
N7    N     N_R   0.449357 0.245397 0.776369 -0.225924
N8    N     N_R   0.454268 0.279450 0.741683 -0.240814
C42   C     C_R   0.620988 0.287692 0.716744 0.504342
C43   C     C_R   0.428484 0.148783 0.833253 0.446182
C44   C     C_R   0.421380 0.114163 0.870963 -0.226216
H14   H     H_    0.285023 0.094325 0.878019 0.125605
C45   C     C_R   0.587685 0.104109 0.898287 -0.100802
C46   C     C_R   0.762350 0.130395 0.887808 -0.183179
H15   H     H_    0.893723 0.123410 0.907925 0.138206
C47   C     C_R   0.768952 0.167153 0.852049 -0.215147
H16   H     H_    0.904642 0.188022 0.846099 0.200964
C48   C     C_R   0.602204 0.177698 0.824952 -0.067518
C49   C     C_R   0.472919 0.129282 0.175882 -0.175996
C50   C     C_R   0.583769 0.133363 0.131628 -0.096290
C51   C     C_R   0.709217 0.182238 0.135769 -0.217339
C52   C     C_R   0.719831 0.227765 0.183427 0.139134
C53   C     C_R   0.608190 0.223436 0.228268 0.013908
C54   C     C_R   0.486070 0.173424 0.224643 -0.044034
C55   C     C_R   0.841126 0.277447 0.186991 -0.195103
C56   C     C_R   0.850828 0.322887 0.234155 -0.166469
C57   C     C_R   0.742129 0.319027 0.279012 0.150358
C58   C     C_R   0.621787 0.268678 0.276712 -0.078315
C59   C     C_R   0.517977 0.263287 0.322682 -0.140760
C60   C     C_R   0.402847 0.210853 0.319253 0.350869
C61   C     C_R   0.383192 0.167327 0.269995 0.276801
C62   C     C_R   0.751276 0.365326 0.325738 -0.285389
C63   C     C_R   0.646159 0.362228 0.371206 -0.178931
C64   C     C_R   0.538491 0.309260 0.371145 0.470535
H17   H     H_    0.382268 0.090049 0.172409 0.146572
H18   H     H_    0.796435 0.185124 0.101637 0.116673
H19   H     H_    0.927597 0.281420 0.153082 0.126875
H20   H     H_    0.944212 0.361163 0.235600 0.119899
H21   H     H_    0.838741 0.404778 0.326570 0.126768
O11   O     O_R   0.738220 0.046730 0.952360 -0.545227
O12   O     O_R   0.404950 0.067790 0.062410 -0.540240
O13   O     O_R   0.230980 0.953320 0.047680 -0.541587
C65   C     C_R   0.573948 0.084747 0.082118 0.703378
O14   O     O_R   0.408720 0.053790 0.953630 -0.537954
O15   O     O_R   0.234780 0.939210 0.938130 -0.523601
C66   C     C_R   0.577888 0.065804 0.936897 0.722867
O16   O     O_R   0.734430 0.060840 0.061910 -0.538968
O17   O     O_3   0.566930 0.962480 0.995080 -0.366479
V3    V     V_3+5 0.293490 0.006960 0.000910 1.422982
O18   O     O_R   0.904820 0.932150 0.937550 -0.546675
C67   C     C_R   0.073183 0.916067 0.917360 0.743621
O19   O     O_R   0.901050 0.946150 0.046320 -0.541804
C68   C     C_R   0.069342 0.934476 0.063317 0.686271
V4    V     V_3+5 0.793050 0.992940 0.999010 1.399463
O20   O     O_3   0.069480 0.037520 0.004920 -0.370653
O21   O     O_3   0.189204 0.938863 0.817685 -0.560520
C69   C     C_3   0.014871 0.971113 0.817668 0.091038
H22   H     H_    0.047398 0.019460 0.834026 0.121967
H23   H     H_    0.900895 0.959843 0.843962 0.105981
C70   C     C_3   0.933967 0.962198 0.761090 -0.330307
H24   H     H_    0.042953 0.976492 0.735264 0.206427
H25   H     H_    0.900117 0.914007 0.743959 0.191439
C71   C     C_3   0.750122 0.998552 0.761384 -0.838609
H26   H     H_    0.637910 0.984839 0.786750 0.263672
H27   H     H_    0.693707 0.990872 0.720078 0.233393
H28   H     H_    0.780037 0.047136 0.776956 0.232613
O22   O     O_3   0.460469 0.708887 0.347341 -0.534173
C72   C     C_3   0.494699 0.756730 0.392876 0.139853
H29   H     H_    0.652247 0.766154 0.394620 0.153665
H30   H     H_    0.456051 0.746006 0.431339 0.077733
C73   C     C_3   0.388624 0.813187 0.387739 -0.308107
H31   H     H_    0.430406 0.823811 0.349613 0.232045
H32   H     H_    0.230424 0.805054 0.387231 0.179605
C74   C     C_3   0.436783 0.866853 0.434043 -0.848944
H33   H     H_    0.393236 0.857643 0.472580 0.228776
H34   H     H_    0.357651 0.906901 0.429130 0.239780
H35   H     H_    0.593938 0.876712 0.434815 0.233965
O23   O     O_3   0.803272 0.642969 0.302020 -0.532486
C75   C     C_3   0.715985 0.585747 0.284303 0.127289
H36   H     H_    0.623127 0.576717 0.316537 0.120112
H37   H     H_    0.825409 0.549517 0.271999 0.087007
C76   C     C_3   0.588431 0.585246 0.236148 -0.235520
H38   H     H_    0.484491 0.622862 0.246617 0.241734
H39   H     H_    0.679786 0.591524 0.202575 0.199685
C77   C     C_3   0.476126 0.526439 0.218385 -0.873655
H40   H     H_    0.576841 0.487954 0.207310 0.236726
H41   H     H_    0.386503 0.527280 0.183084 0.244869
H42   H     H_    0.379466 0.520364 0.250980 0.230886
O24   O     O_3   0.280322 0.310888 0.658076 -0.571725
C78   C     C_3   0.263386 0.250395 0.628458 0.092062
H43   H     H_    0.181386 0.226075 0.653510 0.175377
H44   H     H_    0.404428 0.226815 0.619092 0.088339
C79   C     C_3   0.149876 0.246310 0.576996 -0.338519
H45   H     H_    0.011584 0.270691 0.586479 0.215670
H46   H     H_    0.234142 0.267380 0.549928 0.181554
C80   C     C_3   0.106172 0.181228 0.548469 -0.831889
H47   H     H_    0.242408 0.156476 0.536153 0.231952
H48   H     H_    0.017928 0.179776 0.512515 0.229758
H49   H     H_    0.023425 0.159015 0.575032 0.235590
O25   O     O_3   0.262341 0.156330 0.806208 -0.565819
C81   C     C_3   0.221788 0.103566 0.765837 0.058524
H50   H     H_    0.062845 0.100342 0.760969 0.156733
H51   H     H_    0.269071 0.061518 0.775939 0.124490
C82   C     C_3   0.311320 0.107434 0.712610 -0.281881
H52   H     H_    0.261839 0.149050 0.702573 0.220051
H53   H     H_    0.471042 0.109010 0.716078 0.182390
C83   C     C_3   0.254324 0.053565 0.667523 -0.861572
H54   H     H_    0.308954 0.011581 0.675761 0.231579
H55   H     H_    0.318201 0.058394 0.629409 0.234170
H56   H     H_    0.094941 0.050695 0.663154 0.236658
N9    N     N_3   0.846967 0.693884 0.864591 -0.661171
H57   H     H_    0.946295 0.701054 0.895917 0.235378
H58   H     H_    0.731044 0.723190 0.875887 0.234914
O26   O     O_3   0.447459 0.301816 0.416981 -0.554896
C84   C     C_3   0.579128 0.300241 0.458692 0.112838
H59   H     H_    0.494259 0.286905 0.490336 0.106313
H60   H     H_    0.631687 0.345534 0.478351 0.107277
C85   C     C_3   0.747820 0.255200 0.443281 -0.436705
H61   H     H_    0.744765 0.224065 0.469880 0.164676
H62   H     H_    0.734784 0.227099 0.401778 0.196829
C86   C     C_3   0.943844 0.286901 0.449983 -0.671631
H63   H     H_    0.960529 0.314466 0.420702 0.247778
H64   H     H_    0.060644 0.253198 0.443219 0.256165
H65   H     H_    0.959551 0.315979 0.491120 0.205698
O27   O     O_3   0.295220 0.204109 0.362697 -0.548108
C87   C     C_3   0.370793 0.157704 0.383761 0.154938
H66   H     H_    0.437756 0.178464 0.422918 0.123260
H67   H     H_    0.483518 0.129722 0.358346 0.108522
C88   C     C_3   0.206440 0.117156 0.393580 -0.288600
H68   H     H_    0.101156 0.144117 0.421902 0.182178
H69   H     H_    0.129331 0.097383 0.355811 0.215967
C89   C     C_3   0.281458 0.066448 0.416192 -0.854344
H70   H     H_    0.378681 0.036939 0.386914 0.241096
H71   H     H_    0.158257 0.039153 0.424571 0.235294
H72   H     H_    0.361524 0.084846 0.453919 0.225665
O28   O     O_3   0.289239 0.113893 0.268937 -0.575180
C90   C     C_3   0.098055 0.115336 0.250766 0.071731
H73   H     H_    0.089151 0.133575 0.214776 0.122792
H74   H     H_    0.007661 0.143463 0.283023 0.141151
C91   C     C_3   0.020983 0.050828 0.236368 -0.307374
H75   H     H_    0.116053 0.022345 0.205643 0.200752
H76   H     H_    0.023043 0.032698 0.272303 0.199614
C92   C     C_3   0.816329 0.046814 0.214720 -0.820411
H77   H     H_    0.718671 0.075540 0.244373 0.246824
H78   H     H_    0.764119 0.999717 0.206489 0.231889
H79   H     H_    0.814601 0.060974 0.176828 0.235880
N10   N     N_3   0.968938 0.564310 0.678482 -0.680210
H80   H     H_    0.075534 0.531692 0.666786 0.224046
H81   H     H_    0.856511 0.555028 0.650768 0.240596
N11   N     N_3   0.362969 0.895559 0.726113 -0.623165
H82   H     H_    0.510402 0.887928 0.719228 0.229379
H83   H     H_    0.307007 0.909333 0.693677 0.209019

loop_
_geom_bond_atom_site_label_1
_geom_bond_atom_site_label_2
_ccdc_geom_bond_type
C90   H73   S    
C57   C58   A    
V3    O20   S    
C10   C17   A    
N7    N8    A    
C7    C8    A    
C78   C79   S    
C74   H35   S    
C61   O28   S    
C1    O6    A    
C43   C48   A    
C72   C73   S    
O17   V3    S    
C69   H22   S    
C81   H51   S    
O11   C66   A    
C44   H14   S    
O26   C84   S    
C38   H12   S    
C73   H32   S    
C14   C15   A    
C70   H24   S    
C62   H21   S    
C2    C63   S    
C45   C66   S    
C60   O27   S    
C78   H43   S    
N11   H83   S    
C80   H47   S    
C79   H45   S    
C49   C50   A    
C18   C19   A    
C91   H76   S    
C32   C33   A    
C82   H52   S    
V2    O10   S    
O16   V4    S    
C84   H59   S    
C92   H79   S    
O18   C67   A    
C5    C6    A    
C6    C7    A    
C23   C24   A    
C77   H42   S    
C53   C58   A    
C35   C36   A    
O19   C68   A    
C86   H65   S    
O14   C66   A    
C92   H78   S    
O8    V2    S    
C29   C34   A    
C59   C60   A    
C85   H62   S    
C38   C39   A    
C77   H40   S    
C76   C77   S    
C12   C13   A    
C43   O25   S    
C89   H70   S    
O1    V2    S    
C91   H75   S    
O7    V1    S    
C4    C19   S    
C54   C61   A    
C21   C26   A    
C65   O16   A    
C71   H28   S    
C44   C45   A    
C85   H61   S    
C33   C34   A    
O9    C4    A    
O12   C65   A    
O13   C68   A    
C35   H11   S    
C24   C25   A    
C1    C40   S    
C75   H37   S    
C9    C14   A    
C25   C26   A    
C75   H36   S    
C81   C82   S    
C80   H48   S    
C83   H55   S    
C73   C74   S    
C30   C31   A    
C86   H64   S    
O28   C90   S    
C36   C37   A    
N4    C28   A    
C20   H3    S    
C90   C91   S    
C50   C65   S    
C29   O22   S    
C43   C44   A    
C46   C47   A    
N8    C42   A    
C84   H60   S    
C81   H50   S    
O4    C2    A    
C59   C64   A    
C46   H15   S    
C69   C70   S    
C72   H30   S    
C70   C71   S    
N3    N4    A    
C13   C14   A    
C83   H54   S    
C12   H2    S    
O18   V4    S    
C39   C40   A    
C87   H67   S    
O2    C1    A    
C39   H13   S    
C87   C88   S    
C21   H5    S    
C51   H18   S    
C90   H74   S    
C86   H63   S    
N1    N2    A    
C8    C11   A    
N10   H80   S    
C11   C12   A    
N11   H82   S    
C60   C61   A    
C8    C9    A    
C89   H72   S    
C79   H46   S    
C92   H77   S    
C79   C80   S    
O23   C75   S    
C41   C48   S    
C74   H33   S    
C27   C34   S    
C6    C67   S    
O12   V3    S    
C3    C31   S    
O3    C4    A    
C50   C51   A    
N9    H57   S    
C76   H39   S    
N2    C27   A    
C33   O23   S    
C47   H16   S    
O6    V2    S    
C47   C48   A    
O9    V2    S    
C7    H1    S    
O22   C72   S    
C27   N3    A    
C88   H69   S    
C45   C46   A    
C49   C54   A    
C24   H7    S    
O2    V1    S    
C55   C56   A    
C75   C76   S    
C49   H17   S    
C25   H8    S    
O13   V3    S    
C71   H26   S    
C84   C85   S    
C35   C40   A    
C13   C18   A    
C31   C32   A    
C30   H9    S    
C16   C17   A    
C70   H25   S    
C23   C28   S    
O11   V4    S    
C15   C20   A    
O1    C2    A    
C80   H49   S    
C19   C20   A    
C55   H19   S    
C41   N7    A    
C17   N11   S    
O5    V1    S    
O15   V3    S    
O8    C3    A    
C29   C30   A    
N1    C28   A    
C74   H34   S    
C22   C23   A    
C73   H31   S    
C72   H29   S    
C5    C10   A    
C85   C86   S    
O15   C67   A    
C37   C38   A    
C88   C89   S    
C78   H44   S    
O21   C69   S    
N10   H81   S    
C36   O24   S    
O4    V1    S    
C21   C22   A    
O3    V1    S    
V1    O10   S    
C63   C64   A    
C87   H66   S    
C18   N10   S    
O5    C3    A    
C91   C92   S    
C32   H10   S    
O25   C81   S    
C52   C55   A    
C82   H53   S    
C57   C62   A    
C56   C57   A    
C83   H56   S    
C37   C42   S    
N9    H58   S    
C26   C68   S    
C76   H38   S    
C77   H41   S    
O7    V2    S    
C58   C59   A    
O27   C87   S    
O19   V4    S    
C11   N9    S    
N5    N6    A    
C69   H23   S    
C56   H20   S    
C88   H68   S    
C22   H6    S    
C5    O21   S    
N6    C41   A    
C52   C53   A    
C16   H4    S    
C51   C52   A    
C62   C63   A    
O24   C78   S    
V4    O20   S    
N5    C42   A    
C89   H71   S    
C71   H27   S    
C53   C54   A    
C9    C10   A    
O14   V3    S    
O17   V4    S    
C15   C16   A    
C82   C83   S    
C64   O26   S    
