data_mof_unit_47280.cif
_audit_creation_date              2012-12-11T14:45:31-0500
_audit_creation_method            fapswitch 2.2
_symmetry_space_group_name_H-M    P1
_symmetry_Int_Tables_number       1
_space_group_crystal_system       triclinic
_cell_length_a                    24.930947
_cell_length_b                    7.167416
_cell_length_c                    14.4725
_cell_angle_alpha                 89.999861
_cell_angle_beta                  102.850865
_cell_angle_gamma                 89.999012
_cell_volume                      2521.32197027

loop_
_atom_site_label
_atom_site_type_symbol
_atom_type_description
_atom_site_fract_x
_atom_site_fract_y
_atom_site_fract_z
_atom_type_partial_charge
O1    O     O_R   0.319150 0.364170 0.330530 -0.526549
O2    O     O_R   0.680850 0.635830 0.669470 -0.520665
O3    O     O_R   0.180850 0.864170 0.169470 -0.526570
O4    O     O_R   0.819150 0.135830 0.830530 -0.520677
O5    O     O_R   0.210330 0.696850 0.354180 -0.545067
O6    O     O_R   0.789670 0.303150 0.645820 -0.555992
O7    O     O_R   0.289670 0.196850 0.145820 -0.545066
O8    O     O_R   0.710330 0.803150 0.854180 -0.555988
C1    C     C_R   0.197229 0.525097 0.378552 0.691085
C2    C     C_R   0.802746 0.474845 0.622112 0.699268
C3    C     C_R   0.302770 0.025095 0.121447 0.691080
C4    C     C_R   0.697254 0.974846 0.877888 0.699274
O9    O     O_R   0.320550 0.694110 0.341970 -0.515463
O10   O     O_R   0.679450 0.305890 0.658030 -0.515658
O11   O     O_R   0.179450 0.194110 0.158030 -0.515490
O12   O     O_R   0.820550 0.805890 0.841970 -0.515675
O13   O     O_R   0.291860 0.861000 0.157170 -0.535801
O14   O     O_R   0.708140 0.139000 0.842830 -0.533947
O15   O     O_R   0.208140 0.361000 0.342830 -0.535794
O16   O     O_R   0.791860 0.639000 0.657170 -0.533944
C5    C     C_R   0.341541 0.523928 0.363756 0.820690
C6    C     C_R   0.658299 0.475629 0.637165 0.819339
C7    C     C_R   0.158459 0.023932 0.136245 0.820711
C8    C     C_R   0.841701 0.975626 0.862835 0.819351
O17   O     O_3   0.240460 0.529330 0.189380 -0.375615
O18   O     O_3   0.759540 0.470670 0.810620 -0.372509
O19   O     O_3   0.259540 0.029330 0.310620 -0.375578
O20   O     O_3   0.740460 0.970670 0.689380 -0.372495
V1    V     V_3+5 0.251770 0.805510 0.261240 1.543689
V2    V     V_3+5 0.748230 0.194490 0.738760 1.558027
V3    V     V_3+5 0.248230 0.305510 0.238760 1.543662
V4    V     V_3+5 0.751770 0.694490 0.761240 1.558020
C9    C     C_R   0.103373 0.003006 0.071054 -0.425710
C10   C     C_R   0.896779 0.994562 0.927216 -0.426945
C11   C     C_R   0.396626 0.502992 0.428948 -0.425743
C12   C     C_R   0.603220 0.494575 0.572787 -0.426993
C13   C     C_R   0.960265 0.187905 0.040282 0.763756
C14   C     C_R   0.039745 0.806802 0.958987 0.761321
C15   C     C_R   0.539726 0.687961 0.459752 0.763812
C16   C     C_R   0.460263 0.306744 0.540984 0.761394
C17   C     C_R   0.907039 0.146819 0.990170 0.448488
C18   C     C_R   0.092938 0.847749 0.009869 0.425146
C19   C     C_R   0.592954 0.646867 0.509854 0.448520
C20   C     C_R   0.407068 0.347689 0.490105 0.425131
C21   C     C_R   0.940797 0.878743 0.917913 0.668339
C22   C     C_R   0.059169 0.118300 0.079244 0.677635
C23   C     C_R   0.559207 0.378724 0.582073 0.668407
C24   C     C_R   0.440825 0.618329 0.420785 0.677712
C25   C     C_R   0.995033 0.919246 0.968440 -0.391275
C26   C     C_R   0.004966 0.076840 0.029345 -0.375938
C27   C     C_R   0.504970 0.419229 0.531552 -0.391303
C28   C     C_R   0.495030 0.576864 0.470675 -0.375966
C29   C     C_R   0.663976 0.984614 0.949257 -0.232612
C30   C     C_R   0.335616 0.013522 0.048351 -0.169588
C31   C     C_R   0.836023 0.484604 0.550742 -0.232605
C32   C     C_R   0.164384 0.513527 0.451648 -0.169585
C33   C     C_R   0.657558 0.020583 0.113512 0.320161
C34   C     C_R   0.341552 0.954666 0.884220 0.339768
C35   C     C_R   0.842442 0.520567 0.386486 0.320153
C36   C     C_R   0.158452 0.454705 0.615783 0.339781
C37   C     C_R   0.689224 0.021598 0.044485 0.184937
C38   C     C_R   0.310785 0.953066 0.955438 0.125534
C39   C     C_R   0.810776 0.521595 0.455515 0.184946
C40   C     C_R   0.189221 0.453123 0.544567 0.125579
C41   C     C_R   0.606553 0.959706 0.921435 0.301984
C42   C     C_R   0.392774 0.051962 0.072245 0.321539
C43   C     C_R   0.893446 0.459668 0.578561 0.302012
C44   C     C_R   0.107223 0.551929 0.427751 0.321571
C45   C     C_R   0.573415 0.992615 0.987913 -0.015841
C46   C     C_R   0.425070 0.008330 0.005897 -0.051873
C47   C     C_R   0.926584 0.492568 0.512083 -0.015847
C48   C     C_R   0.074930 0.508286 0.494101 -0.051894
C49   C     C_R   0.599727 0.996218 0.085792 -0.276769
C50   C     C_R   0.398499 0.994843 0.909336 -0.244333
C51   C     C_R   0.900272 0.496184 0.414205 -0.276782
C52   C     C_R   0.101501 0.494817 0.590663 -0.244349
C53   C     C_R   0.514788 0.011201 0.961322 -0.223807
C54   C     C_R   0.483455 0.992596 0.031608 -0.238410
C55   C     C_R   0.985212 0.511143 0.538676 -0.223825
C56   C     C_R   0.016545 0.492541 0.468389 -0.238421
C57   C     C_R   0.510988 0.945625 0.124330 0.608838
C58   C     C_R   0.486200 0.056778 0.868314 0.640993
C59   C     C_R   0.989011 0.445585 0.375666 0.608868
C60   C     C_R   0.013797 0.556717 0.631684 0.641001
C61   C     C_R   0.567738 0.962182 0.152833 0.561184
C62   C     C_R   0.429316 0.034733 0.841190 0.571404
C63   C     C_R   0.932262 0.462150 0.347163 0.561189
C64   C     C_R   0.070682 0.534685 0.658809 0.571488
F1    F     F_    0.068621 0.263957 0.140043 -0.619298
F2    F     F_    0.931015 0.733412 0.856131 -0.581385
F3    F     F_    0.431367 0.764037 0.360016 -0.619304
F4    F     F_    0.568994 0.233355 0.643833 -0.581377
F5    F     F_    0.134405 0.731370 0.000943 -0.639524
F6    F     F_    0.865206 0.258902 0.002359 -0.633146
F7    F     F_    0.365608 0.231261 0.499003 -0.639504
F8    F     F_    0.634783 0.758976 0.497676 -0.633105
F9    F     F_    0.967718 0.338945 0.098386 -0.529878
F10   F     F_    0.032225 0.653416 0.902511 -0.507544
F11   F     F_    0.532267 0.839035 0.401668 -0.529910
F12   F     F_    0.467789 0.153318 0.597433 -0.507564
F13   F     F_    0.591144 0.924829 0.244856 -0.610277
F14   F     F_    0.404239 0.071315 0.749728 -0.592726
F15   F     F_    0.908855 0.424818 0.255138 -0.610248
F16   F     F_    0.095756 0.571278 0.750270 -0.592662
N1    N     N_2   0.414843 0.177564 0.148290 -0.553958
H1    H     H_    0.447109 0.261306 0.140016 0.256891
C65   C     C_3   0.415585 0.126693 0.245207 -0.216599
H2    H     H_    0.397178 0.240683 0.278491 0.142304
H3    H     H_    0.458621 0.110611 0.286121 0.261440
H4    H     H_    0.392725 0.996086 0.249414 0.241187
N2    N     N_2   0.583077 0.881989 0.830454 -0.436058
H5    H     H_    0.601480 0.919971 0.776147 0.302252
C66   C     C_3   0.571134 0.684512 0.831075 -0.436697
H6    H     H_    0.550209 0.639265 0.758621 0.217094
H7    H     H_    0.609865 0.603645 0.853751 0.178620
H8    H     H_    0.543404 0.654481 0.879637 0.192987
N3    N     N_2   0.085149 0.677538 0.351710 -0.553923
H9    H     H_    0.052881 0.761273 0.359985 0.256895
C67   C     C_3   0.084415 0.626706 0.254791 -0.216650
H10   H     H_    0.102816 0.740725 0.221518 0.142281
H11   H     H_    0.041381 0.610606 0.213872 0.261440
H12   H     H_    0.107283 0.496116 0.250576 0.241159
N4    N     N_2   0.916920 0.381934 0.669540 -0.436080
H13   H     H_    0.898519 0.419917 0.723848 0.302234
C68   C     C_3   0.928859 0.184454 0.668913 -0.436694
H14   H     H_    0.949785 0.139194 0.741364 0.217109
H15   H     H_    0.890127 0.103602 0.646237 0.178627
H16   H     H_    0.956587 0.154417 0.620347 0.192995
N5    N     N_2   0.254198 0.900722 0.931105 -0.544481
H17   H     H_    0.228783 0.971468 0.966381 0.260599
C69   C     C_3   0.244686 0.701406 0.927469 -0.371926
H18   H     H_    0.201288 0.673018 0.891727 0.279822
H19   H     H_    0.252914 0.642750 0.000280 0.211109
H20   H     H_    0.271454 0.630163 0.886628 0.167719
N6    N     N_2   0.746494 0.063002 0.071951 -0.508868
H21   H     H_    0.759202 0.164266 0.030937 0.286639
C70   C     C_3   0.782547 0.902355 0.086051 -0.459413
H22   H     H_    0.824192 0.945647 0.125063 0.222240
H23   H     H_    0.785926 0.842237 0.016992 0.184828
H24   H     H_    0.767051 0.793247 0.127710 0.192832
N7    N     N_2   0.245817 0.400878 0.568912 -0.544547
H25   H     H_    0.271221 0.471647 0.533626 0.260535
C71   C     C_3   0.255362 0.201580 0.572586 -0.371966
H26   H     H_    0.298768 0.173285 0.608316 0.279858
H27   H     H_    0.247132 0.142866 0.499787 0.211134
H28   H     H_    0.228615 0.130325 0.613460 0.167780
N8    N     N_2   0.753507 0.563010 0.428049 -0.508874
H29   H     H_    0.740798 0.664274 0.469064 0.286621
C72   C     C_3   0.717453 0.402369 0.413947 -0.459440
H30   H     H_    0.675808 0.445668 0.374933 0.222230
H31   H     H_    0.714074 0.342252 0.483006 0.184831
H32   H     H_    0.732949 0.293259 0.372288 0.192842
N9    N     N_2   0.683779 0.065548 0.208807 -0.507603
H33   H     H_    0.662538 0.156745 0.242666 0.277707
C73   C     C_3   0.710795 0.913645 0.267286 -0.337274
H34   H     H_    0.695255 0.904192 0.333363 0.245917
H35   H     H_    0.755700 0.940867 0.287147 0.174931
H36   H     H_    0.703417 0.777058 0.230180 0.198227
N10   N     N_2   0.315226 0.914121 0.788075 -0.476321
H37   H     H_    0.273531 0.938170 0.768275 0.264563
C74   C     C_3   0.333017 0.747398 0.746447 -0.391213
H38   H     H_    0.341741 0.782748 0.676589 0.244010
H39   H     H_    0.299939 0.641148 0.735009 0.161299
H40   H     H_    0.370600 0.685293 0.792044 0.186465
N11   N     N_2   0.816221 0.565537 0.291191 -0.507603
H41   H     H_    0.837461 0.656735 0.257334 0.277707
C75   C     C_3   0.789206 0.413636 0.232711 -0.337269
H42   H     H_    0.804745 0.404194 0.166631 0.245926
H43   H     H_    0.744301 0.440849 0.212855 0.174932
H44   H     H_    0.796589 0.277046 0.269814 0.198229
N12   N     N_2   0.184783 0.414228 0.711934 -0.476255
H45   H     H_    0.226472 0.438397 0.731737 0.264558
C76   C     C_3   0.167032 0.247447 0.753567 -0.391418
H46   H     H_    0.158234 0.282791 0.823372 0.244091
H47   H     H_    0.200163 0.141371 0.765115 0.161332
H48   H     H_    0.129503 0.185123 0.707917 0.186445
F17   F     F_    0.483623 0.867162 0.185573 -0.608325
F18   F     F_    0.512029 0.136415 0.805037 -0.572095
F19   F     F_    0.016377 0.367145 0.314418 -0.608252
F20   F     F_    0.987967 0.636354 0.694960 -0.572046

loop_
_geom_bond_atom_site_label_1
_geom_bond_atom_site_label_2
_ccdc_geom_bond_type
C34   C38   A    
C71   H28   S    
C59   C63   A    
N12   H45   S    
O1    C5    A    
N11   H41   S    
O19   V1    S    
C18   F5    S    
O13   V1    S    
C23   F4    S    
N1    H1    S    
O3    C7    A    
N8    H29   S    
C14   F10   S    
C69   H20   S    
O15   V3    S    
C13   F9    S    
C74   H38   S    
N6    H21   S    
C75   H43   S    
C14   C25   A    
C53   C54   A    
O7    C3    A    
C70   H23   S    
C34   C50   A    
O5    C1    A    
C9    C18   A    
O9    V1    S    
C46   C54   A    
N8    C72   S    
C14   C18   A    
C34   N10   S    
N3    C67   S    
C55   C60   A    
O4    C8    A    
C76   H48   S    
C73   H35   S    
C40   N7    S    
C71   H26   S    
C71   H27   S    
O1    V3    S    
C31   C43   A    
C12   C23   A    
O2    V4    S    
C33   C49   A    
O3    V1    S    
C41   N2    S    
C74   H39   S    
C29   C37   A    
C1    O15   A    
N2    H5    S    
C2    O16   A    
C7    C9    S    
C24   F3    S    
C31   C39   A    
C46   C50   A    
C68   H16   S    
C65   H2    S    
C32   C40   A    
C45   C49   A    
O14   V2    S    
N9    C73   S    
C29   C41   A    
C52   C64   A    
C16   C20   A    
C4    C29   S    
C35   N11   S    
C44   C48   A    
C66   H8    S    
O11   C7    A    
C15   C28   A    
O12   C8    A    
C76   H46   S    
C73   H36   S    
C13   C17   A    
C9    C22   A    
C65   H3    S    
C38   N5    S    
C10   C17   A    
O10   V2    S    
C56   C59   A    
C11   C24   A    
C39   N8    S    
C64   F16   S    
C75   H44   S    
O5    V1    S    
C67   H11   S    
C70   H24   S    
O7    V3    S    
C27   C28   A    
O8    V4    S    
N4    H13   S    
C72   H32   S    
C75   H42   S    
C22   F1    S    
O18   V4    S    
C23   C27   A    
C30   C38   A    
C32   C44   A    
C33   N9    S    
C36   C52   A    
C8    C10   S    
C47   C55   A    
N7    C71   S    
O2    C6    A    
C11   C20   A    
C44   N3    S    
N1    C65   S    
C60   F20   S    
C15   F11   S    
N10   H37   S    
C21   C25   A    
O8    C4    A    
C58   F18   S    
N10   C74   S    
C19   F8    S    
O9    C5    A    
C48   C52   A    
N2    C66   S    
C1    C32   S    
C50   C62   A    
C33   C37   A    
C21   F2    S    
C3    C30   S    
C49   C61   A    
C76   H47   S    
C10   C21   A    
C63   F15   S    
C51   C63   A    
O6    V2    S    
N7    H25   S    
C68   H14   S    
C65   H4    S    
O12   V4    S    
C42   N1    S    
C69   H18   S    
C62   F14   S    
C35   C51   A    
C74   H40   S    
C61   F13   S    
C37   N6    S    
C66   H6    S    
O16   V4    S    
C67   H12   S    
N6    C70   S    
C3    O13   A    
C36   N12   S    
O17   V3    S    
C60   C64   A    
C69   H19   S    
C43   N4    S    
C16   F12   S    
C15   C19   A    
C67   H10   S    
O11   V3    S    
C30   C42   A    
N12   C76   S    
C16   C27   A    
C6    C12   S    
C70   H22   S    
C22   C26   A    
C35   C39   A    
C59   F19   S    
C36   C40   A    
O10   C6    A    
C72   H31   S    
C5    C11   S    
N5    H17   S    
C57   F17   S    
C48   C56   A    
C20   F7    S    
C58   C62   A    
C72   H30   S    
C47   C51   A    
C13   C26   A    
C54   C57   A    
C45   C53   A    
C42   C46   A    
C53   C58   A    
C41   C45   A    
O20   V2    S    
C43   C47   A    
C2    C31   S    
O4    V2    S    
N4    C68   S    
O6    C2    A    
C55   C56   A    
C24   C28   A    
N11   C75   S    
C25   C26   A    
C4    O14   A    
C73   H34   S    
C68   H15   S    
C12   C19   A    
N5    C69   S    
N9    H33   S    
N3    H9    S    
C57   C61   A    
C17   F6    S    
C66   H7    S    
