data_mof_unit_61381.cif
_audit_creation_date              2012-12-10T19:28:05-0500
_audit_creation_method            fapswitch 2.2
_symmetry_space_group_name_H-M    P1
_symmetry_Int_Tables_number       1
_space_group_crystal_system       triclinic
_cell_length_a                    30.65081
_cell_length_b                    30.651689
_cell_length_c                    32.842167
_cell_angle_alpha                 89.999168
_cell_angle_beta                  90.002072
_cell_angle_gamma                 90.012262
_cell_volume                      30855.1854679

loop_
_atom_site_label
_atom_site_type_symbol
_atom_type_description
_atom_site_fract_x
_atom_site_fract_y
_atom_site_fract_z
_atom_type_partial_charge
C1    C     C_R   0.118602 0.381398 0.250000 -0.071334
C2    C     C_R   0.881395 0.381416 0.250008 -0.070682
C3    C     C_R   0.084526 0.415475 0.750001 0.828875
C4    C     C_R   0.584528 0.084529 0.250001 0.828952
C5    C     C_R   0.415472 0.915476 0.750001 0.828523
C6    C     C_R   0.084530 0.415470 0.250000 0.829020
C7    C     C_R   0.915472 0.584528 0.750000 0.828092
C8    C     C_R   0.415473 0.084522 0.749998 0.829753
C9    C     C_R   0.584526 0.915475 0.250000 0.828877
C10   C     C_R   0.915471 0.415473 0.749999 0.828900
C11   C     C_R   0.084525 0.584526 0.249999 0.828504
C12   C     C_R   0.584530 0.915470 0.750000 0.829019
C13   C     C_R   0.381381 0.118552 0.750000 -0.068912
C14   C     C_R   0.415472 0.084528 0.250000 0.828091
C15   C     C_R   0.084528 0.584529 0.750001 0.828953
C16   C     C_R   0.915472 0.415476 0.250001 0.828528
C17   C     C_1   0.500002 0.999999 0.399220 -0.139552
C18   C     C_1   0.499999 0.999999 0.600780 -0.140523
C19   C     C_1   0.000001 0.499999 0.399220 -0.140311
C20   C     C_1   0.000001 0.500000 0.600780 -0.139402
C21   C     C_1   0.000002 0.499999 0.899220 -0.139551
C22   C     C_1   0.999999 0.499999 0.100780 -0.140529
C23   C     C_1   0.500001 0.999999 0.899220 -0.140311
C24   C     C_R   0.618584 0.881409 0.250003 -0.071360
C25   C     C_1   0.500001 0.000000 0.100780 -0.139401
C26   C     C_1   0.500002 0.999998 0.436804 0.009333
C27   C     C_1   0.500000 0.999998 0.563196 0.008639
C28   C     C_1   0.000002 0.499998 0.436804 0.008889
C29   C     C_1   0.000002 0.499999 0.563196 0.009516
C30   C     C_1   0.000003 0.499998 0.936804 0.009334
C31   C     C_1   1.000000 0.499998 0.063196 0.008637
C32   C     C_1   0.500002 0.999998 0.936804 0.008889
C33   C     C_1   0.500002 0.999999 0.063197 0.009517
C34   C     C_R   0.117037 0.347278 0.278251 -0.205620
C35   C     C_R   0.881393 0.381405 0.749995 -0.071261
C36   C     C_R   0.888331 0.658072 0.729628 -0.208055
C37   C     C_R   0.347285 0.882962 0.278255 -0.205831
C38   C     C_R   0.658074 0.111667 0.729647 -0.208141
C39   C     C_R   0.885917 0.655705 0.274390 -0.211115
C40   C     C_R   0.114334 0.344608 0.725113 -0.207658
C41   C     C_R   0.652702 0.117059 0.278270 -0.206235
C42   C     C_R   0.341899 0.888373 0.729684 -0.206801
C43   C     C_R   0.117032 0.652718 0.721748 -0.205808
C44   C     C_R   0.888333 0.341924 0.270340 -0.208163
C45   C     C_R   0.344274 0.113958 0.725550 -0.205688
C46   C     C_R   0.118589 0.618600 0.249993 -0.070680
C47   C     C_R   0.655386 0.885638 0.274903 -0.209019
C48   C     C_R   0.882939 0.347305 0.721727 -0.206208
C49   C     C_R   0.111644 0.658087 0.270332 -0.206542
C50   C     C_R   0.652723 0.882964 0.721751 -0.205689
C51   C     C_R   0.341929 0.111670 0.270374 -0.208051
C52   C     C_R   0.617036 0.847276 0.778249 -0.205618
C53   C     C_R   0.388330 0.158071 0.229626 -0.208055
C54   C     C_R   0.847286 0.382960 0.778257 -0.205830
C55   C     C_R   0.158074 0.611667 0.229648 -0.208141
C56   C     C_R   0.385880 0.155671 0.774439 -0.211089
C57   C     C_R   0.618602 0.881397 0.750000 -0.071337
C58   C     C_R   0.614333 0.844610 0.225108 -0.207654
C59   C     C_R   0.152700 0.617060 0.778272 -0.206236
C60   C     C_R   0.841898 0.388374 0.229686 -0.206792
C61   C     C_R   0.617030 0.152720 0.221750 -0.205807
C62   C     C_R   0.388333 0.841924 0.770341 -0.208164
C63   C     C_R   0.844250 0.613933 0.225592 -0.205689
C64   C     C_R   0.155377 0.385631 0.774919 -0.209015
C65   C     C_R   0.382941 0.847302 0.221730 -0.206207
C66   C     C_R   0.611644 0.158087 0.770332 -0.206544
C67   C     C_R   0.152721 0.382963 0.221749 -0.205688
C68   C     C_R   0.381404 0.118596 0.250000 -0.070361
C69   C     C_R   0.841928 0.611669 0.770372 -0.208051
C70   C     C_R   0.148947 0.314472 0.278709 -0.033707
C71   C     C_R   0.856375 0.690831 0.729105 -0.033280
C72   C     C_R   0.314468 0.851055 0.278708 -0.033773
C73   C     C_R   0.690831 0.143633 0.729119 -0.033179
C74   C     C_R   0.853651 0.688168 0.275171 -0.025594
C75   C     C_R   0.146515 0.312109 0.724318 -0.031505
C76   C     C_R   0.685504 0.148980 0.278732 -0.033638
C77   C     C_R   0.309126 0.856424 0.729169 -0.033651
C78   C     C_R   0.148936 0.685537 0.721298 -0.033694
C79   C     C_R   0.183682 0.316317 0.250000 -0.092715
C80   C     C_R   0.856364 0.309171 0.270869 -0.033233
C81   C     C_R   0.311732 0.146096 0.724755 -0.033221
C82   C     C_R   0.687857 0.853428 0.275718 -0.025693
C83   C     C_R   0.851020 0.314500 0.721266 -0.033651
C84   C     C_R   0.143598 0.690855 0.270850 -0.033934
C85   C     C_R   0.685529 0.851055 0.721293 -0.033633
C86   C     C_R   0.309169 0.143626 0.270896 -0.033302
C87   C     C_R   0.648945 0.814470 0.778706 -0.033708
C88   C     C_R   0.356374 0.190831 0.229104 -0.033280
C89   C     C_R   0.814470 0.351054 0.778709 -0.033765
C90   C     C_R   0.816326 0.683674 0.750000 -0.092472
C91   C     C_R   0.190831 0.643632 0.229120 -0.033178
C92   C     C_R   0.353607 0.188126 0.775227 -0.025605
C93   C     C_R   0.646517 0.812115 0.224305 -0.031503
C94   C     C_R   0.185502 0.648981 0.778733 -0.033633
C95   C     C_R   0.809125 0.356425 0.229170 -0.033651
C96   C     C_R   0.648934 0.185539 0.221300 -0.033696
C97   C     C_R   0.356364 0.809171 0.770870 -0.033234
C98   C     C_R   0.811716 0.646079 0.224790 -0.033064
C99   C     C_R   0.187844 0.353417 0.775742 -0.025695
C100  C     C_R   0.351023 0.814497 0.221269 -0.033650
C101  C     C_R   0.316300 0.816334 0.249988 -0.092696
C102  C     C_R   0.643598 0.190855 0.770850 -0.033936
C103  C     C_R   0.185528 0.351054 0.221292 -0.033628
C104  C     C_R   0.809168 0.643625 0.770894 -0.033301
C105  C     C_2   0.144393 0.278936 0.309546 0.915546
C106  C     C_2   0.866295 0.731731 0.706167 0.913369
C107  C     C_2   0.278938 0.855596 0.309550 0.915405
C108  C     C_2   0.731744 0.133715 0.706208 0.913225
C109  C     C_2   0.859878 0.725960 0.303188 0.903897
C110  C     C_2   0.140244 0.274833 0.695697 0.908804
C111  C     C_2   0.721035 0.144447 0.309576 0.914807
C112  C     C_R   0.881404 0.618596 0.750000 -0.070360
C113  C     C_R   0.683656 0.183691 0.749984 -0.092406
C114  C     C_2   0.268200 0.866369 0.706284 0.913105
C115  C     C_2   0.144389 0.721070 0.690459 0.915259
C116  C     C_2   0.866289 0.268248 0.293763 0.913268
C117  C     C_2   0.274157 0.139480 0.696550 0.907502
C118  C     C_2   0.725135 0.859670 0.304344 0.906641
C119  C     C_2   0.855549 0.278978 0.690415 0.914801
C120  C     C_2   0.133666 0.731770 0.293752 0.913434
C121  C     C_2   0.721066 0.855611 0.690458 0.915393
C122  C     C_2   0.268270 0.133707 0.293836 0.913432
C123  C     C_2   0.644390 0.778932 0.809541 0.915548
C124  C     C_R   0.816214 0.683532 0.250013 -0.086498
C125  C     C_2   0.366293 0.231730 0.206164 0.913371
C126  C     C_2   0.778942 0.355592 0.809553 0.915403
C127  C     C_2   0.231745 0.633714 0.206209 0.913227
C128  C     C_2   0.359802 0.225885 0.803288 0.903910
C129  C     C_2   0.640241 0.774837 0.195687 0.908802
C130  C     C_2   0.221031 0.644451 0.809580 0.914804
C131  C     C_2   0.768198 0.366371 0.206287 0.913106
C132  C     C_2   0.644385 0.221074 0.190463 0.915259
C133  C     C_2   0.366288 0.768249 0.793765 0.913266
C134  C     C_2   0.774111 0.639437 0.196631 0.907415
C135  C     C_R   0.183622 0.316305 0.750037 -0.089344
C136  C     C_2   0.225113 0.359655 0.804378 0.906638
C137  C     C_2   0.355553 0.778973 0.190421 0.914801
C138  C     C_2   0.633666 0.231770 0.793752 0.913434
C139  C     C_2   0.221063 0.355607 0.190455 0.915391
C140  C     C_2   0.768268 0.633705 0.793832 0.913434
C141  C     C_R   0.683659 0.183707 0.250018 -0.092703
C142  C     C_R   0.316297 0.816357 0.750020 -0.092471
C143  C     C_R   0.183660 0.683707 0.750017 -0.092702
C144  C     C_R   0.816296 0.316357 0.250021 -0.092471
C145  C     C_R   0.316196 0.183515 0.750032 -0.086543
C146  C     C_R   0.683631 0.816314 0.250015 -0.089347
C147  C     C_R   0.816299 0.316335 0.749986 -0.092695
C148  C     C_R   0.381393 0.881405 0.249995 -0.071264
C149  C     C_R   0.183657 0.683690 0.249984 -0.092406
C150  C     C_R   0.683682 0.816317 0.749999 -0.092716
C151  C     C_R   0.316326 0.183674 0.250000 -0.092471
C152  C     C_R   0.282296 0.217704 0.250000 0.166725
C153  C     C_R   0.717712 0.782287 0.750000 0.166447
C154  C     C_R   0.217684 0.717722 0.249986 0.166815
C155  C     C_R   0.782267 0.282307 0.749986 0.166608
C156  C     C_R   0.717657 0.782250 0.250024 0.167596
C157  C     C_R   0.282173 0.217576 0.750011 0.173963
C158  C     C_R   0.782264 0.282331 0.250017 0.166937
C159  C     C_R   0.618588 0.118600 0.749993 -0.070681
C160  C     C_R   0.217685 0.717741 0.750017 0.166676
C161  C     C_R   0.282264 0.782330 0.750016 0.166938
C162  C     C_R   0.717685 0.217741 0.250018 0.166679
C163  C     C_R   0.217648 0.282240 0.750051 0.167588
C164  C     C_R   0.782188 0.717590 0.249987 0.173876
C165  C     C_R   0.717684 0.217722 0.749985 0.166816
C166  C     C_R   0.282268 0.782306 0.249987 0.166612
C167  C     C_R   0.782296 0.717704 0.750000 0.166724
C168  C     C_R   0.217713 0.282287 0.250000 0.166442
C169  C     C_R   0.252553 0.284743 0.277577 -0.072530
C170  C     C_R   0.881386 0.618554 0.249998 -0.068867
C171  C     C_R   0.747362 0.715154 0.722533 -0.072746
C172  C     C_R   0.284719 0.747478 0.277572 -0.072934
C173  C     C_R   0.715139 0.252645 0.722511 -0.072561
C174  C     C_R   0.741958 0.709807 0.268993 -0.064466
C175  C     C_R   0.257877 0.290029 0.731057 -0.077684
C176  C     C_R   0.715242 0.252560 0.277613 -0.072655
C177  C     C_R   0.284800 0.747418 0.722532 -0.073007
C178  C     C_R   0.252504 0.715304 0.722422 -0.072940
C179  C     C_R   0.747351 0.284862 0.277502 -0.072637
C180  C     C_R   0.290035 0.257805 0.731039 -0.082835
C181  C     C_R   0.118581 0.381406 0.750010 -0.071360
C182  C     C_R   0.709803 0.742034 0.269017 -0.076834
C183  C     C_R   0.747437 0.284757 0.722401 -0.072544
C184  C     C_R   0.252607 0.715179 0.277461 -0.072916
C185  C     C_R   0.715255 0.747450 0.722421 -0.072599
C186  C     C_R   0.284849 0.252636 0.277466 -0.072696
C187  C     C_R   0.752552 0.784742 0.777578 -0.072540
C188  C     C_R   0.247362 0.215154 0.222535 -0.072745
C189  C     C_R   0.784718 0.247479 0.777571 -0.072962
C190  C     C_R   0.215140 0.752644 0.222512 -0.072559
C191  C     C_R   0.241940 0.209791 0.769010 -0.064092
C192  C     C_R   0.618594 0.118608 0.250007 -0.071274
C193  C     C_R   0.757880 0.790036 0.231017 -0.077682
C194  C     C_R   0.215241 0.752560 0.777611 -0.072665
C195  C     C_R   0.784799 0.247420 0.222531 -0.073009
C196  C     C_R   0.752503 0.215306 0.222421 -0.072946
C197  C     C_R   0.247351 0.784862 0.777500 -0.072644
C198  C     C_R   0.790041 0.757813 0.231000 -0.082629
C199  C     C_R   0.209787 0.242019 0.769035 -0.076817
C200  C     C_R   0.247439 0.784756 0.222402 -0.072564
C201  C     C_R   0.752606 0.215180 0.777460 -0.072916
C202  C     C_R   0.215254 0.247449 0.222423 -0.072614
C203  C     C_R   0.381395 0.881416 0.750008 -0.070683
C204  C     C_R   0.784848 0.752635 0.777466 -0.072693
C205  C     C_1   0.500002 0.999998 0.481209 0.024278
C206  C     C_1   0.500001 0.999998 0.518791 0.024047
C207  C     C_1   0.000003 0.499998 0.481209 0.024294
C208  C     C_1   0.000003 0.499998 0.518791 0.024497
C209  C     C_1   0.000002 0.499998 0.981209 0.024278
C210  C     C_1   0.000001 0.499998 0.018791 0.024046
C211  C     C_1   0.500003 0.999998 0.981209 0.024294
C212  C     C_1   0.500002 0.999998 0.018791 0.024498
C213  C     C_R   0.500000 0.000000 0.145952 0.794565
C214  C     C_R   0.118594 0.618608 0.750007 -0.071272
C215  C     C_R   0.500000 1.000000 0.854048 0.794447
C216  C     C_R   0.999999 0.499999 0.145952 0.794396
C217  C     C_R   0.000001 0.500000 0.854048 0.794549
C218  C     C_R   0.000000 0.500000 0.645952 0.794565
C219  C     C_R   0.000000 0.500000 0.354048 0.794451
C220  C     C_R   0.499999 0.999999 0.645952 0.794394
C221  C     C_R   0.500001 1.000000 0.354048 0.794548
C222  C     C_R   0.415471 0.915473 0.249999 0.828900
C223  C     C_R   0.584525 0.084526 0.749999 0.828503
C224  C     C_R   0.915473 0.584522 0.249999 0.829780
H1    H     H_    0.254693 0.311558 0.298961 0.130011
H2    H     H_    0.745177 0.311718 0.298836 0.129751
H3    H     H_    0.321006 0.264096 0.716283 0.130519
H4    H     H_    0.678840 0.735754 0.283789 0.128711
H5    H     H_    0.745310 0.311567 0.701012 0.129938
H6    H     H_    0.254789 0.688314 0.298785 0.129547
H7    H     H_    0.688439 0.745313 0.701036 0.129941
H8    H     H_    0.311720 0.254829 0.298785 0.129720
H9    H     H_    0.754691 0.811555 0.798963 0.130011
H10   H     H_    0.245167 0.188285 0.201215 0.129677
H11   H     H_    0.811530 0.245351 0.798960 0.129648
H12   H     H_    0.745169 0.688286 0.701213 0.129676
H13   H     H_    0.188274 0.754825 0.201186 0.129881
H14   H     H_    0.235602 0.178833 0.783772 0.128284
H15   H     H_    0.764214 0.820997 0.216259 0.130004
H16   H     H_    0.188438 0.754678 0.799008 0.129863
H17   H     H_    0.811657 0.245248 0.201198 0.129524
H18   H     H_    0.754624 0.188503 0.201024 0.129680
H19   H     H_    0.245175 0.811719 0.798833 0.129748
H20   H     H_    0.821007 0.764102 0.216235 0.130505
H21   H     H_    0.178819 0.235737 0.783799 0.128687
H22   H     H_    0.245311 0.811567 0.201013 0.129940
H23   H     H_    0.311530 0.745351 0.298962 0.129646
H24   H     H_    0.754789 0.188314 0.798784 0.129549
H25   H     H_    0.188438 0.245311 0.201039 0.129943
H26   H     H_    0.811718 0.754827 0.798787 0.129721
H27   H     H_    0.090397 0.346091 0.299905 0.207053
H28   H     H_    0.918877 0.663158 0.713718 0.206115
H29   H     H_    0.346113 0.909594 0.299919 0.207040
H30   H     H_    0.663169 0.081110 0.713762 0.206132
H31   H     H_    0.914507 0.659038 0.293561 0.198356
H32   H     H_    0.086013 0.341652 0.705557 0.205283
H33   H     H_    0.653884 0.090422 0.299929 0.207063
H34   H     H_    0.688273 0.254826 0.701186 0.129879
H35   H     H_    0.336807 0.918937 0.713808 0.207089
H36   H     H_    0.090399 0.653890 0.700084 0.207046
H37   H     H_    0.918899 0.336820 0.286213 0.206136
H38   H     H_    0.341102 0.085394 0.706338 0.205797
H39   H     H_    0.658362 0.913963 0.294449 0.205221
H40   H     H_    0.909571 0.346129 0.700064 0.207094
H41   H     H_    0.081086 0.663175 0.286219 0.207123
H42   H     H_    0.653911 0.909607 0.700098 0.207042
H43   H     H_    0.336843 0.081124 0.286285 0.206103
H44   H     H_    0.590394 0.846087 0.799902 0.207054
H45   H     H_    0.735625 0.678854 0.283764 0.128323
H46   H     H_    0.418876 0.163157 0.213715 0.206115
H47   H     H_    0.846116 0.409590 0.799923 0.207030
H48   H     H_    0.163169 0.581109 0.213763 0.206132
H49   H     H_    0.414448 0.158982 0.793641 0.198344
H50   H     H_    0.586008 0.841652 0.205559 0.205287
H51   H     H_    0.153881 0.590425 0.799933 0.207058
H52   H     H_    0.836806 0.418938 0.213810 0.207087
H53   H     H_    0.590395 0.153893 0.200088 0.207048
H54   H     H_    0.418898 0.836821 0.786215 0.206136
H55   H     H_    0.841043 0.585343 0.206416 0.205643
H56   H     H_    0.264215 0.320993 0.716307 0.130010
H57   H     H_    0.158349 0.413955 0.794466 0.205221
H58   H     H_    0.409575 0.846126 0.200068 0.207092
H59   H     H_    0.581086 0.163175 0.786220 0.207125
H60   H     H_    0.153908 0.409603 0.200095 0.207036
H61   H     H_    0.836842 0.581123 0.786282 0.206102
H62   H     H_    0.117696 0.259300 0.362705 0.363040
H63   H     H_    0.912394 0.770762 0.681568 0.363114
H64   H     H_    0.259323 0.882268 0.362722 0.362890
H65   H     H_    0.770800 0.087616 0.681674 0.362988
H66   H     H_    0.832736 0.772804 0.338226 0.372062
H67   H     H_    0.688439 0.254677 0.299011 0.129863
H68   H     H_    0.097969 0.238293 0.663116 0.362266
H69   H     H_    0.740652 0.117787 0.362755 0.362774
H70   H     H_    0.229151 0.912497 0.681781 0.363537
H71   H     H_    0.117727 0.740681 0.637278 0.362871
H72   H     H_    0.912398 0.229176 0.318265 0.363044
H73   H     H_    0.237229 0.096808 0.664815 0.362395
H74   H     H_    0.761728 0.901918 0.336902 0.359931
H75   H     H_    0.882200 0.259376 0.637229 0.362813
H76   H     H_    0.087552 0.770816 0.318277 0.365067
H77   H     H_    0.740706 0.882318 0.637304 0.362860
H78   H     H_    0.311659 0.745246 0.701200 0.129524
H79   H     H_    0.229239 0.087610 0.318437 0.363158
H80   H     H_    0.617690 0.759293 0.862698 0.363041
H81   H     H_    0.412391 0.270760 0.181563 0.363116
H82   H     H_    0.759335 0.382251 0.862734 0.362889
H83   H     H_    0.270801 0.587614 0.181675 0.362988
H84   H     H_    0.332623 0.272679 0.838357 0.372073
H85   H     H_    0.597959 0.738293 0.163117 0.362266
H86   H     H_    0.240644 0.617798 0.862763 0.362774
H87   H     H_    0.729148 0.412500 0.181786 0.363540
H88   H     H_    0.617718 0.240689 0.137286 0.362872
H89   H     H_    0.254627 0.688500 0.701025 0.129680
H90   H     H_    0.412396 0.729178 0.818270 0.363044
H91   H     H_    0.737026 0.596719 0.165108 0.362376
H92   H     H_    0.261701 0.401898 0.836946 0.359935
H93   H     H_    0.382205 0.759369 0.137236 0.362813
H94   H     H_    0.587552 0.270815 0.818279 0.365063
H95   H     H_    0.240696 0.382304 0.137295 0.362860
H96   H     H_    0.729236 0.587607 0.818431 0.363159
O1    O     O_3   0.500000 0.000000 0.250000 -0.464991
O2    O     O_R   0.500000 0.036350 0.833960 -0.622258
O3    O     O_R   0.757411 0.409746 0.197625 -0.792656
O4    O     O_2   0.662238 0.256369 0.195288 -0.583037
O5    O     O_R   0.618610 0.214288 0.155871 -0.796167
O6    O     O_2   0.337038 0.744344 0.805724 -0.583499
O7    O     O_R   0.409658 0.757435 0.802421 -0.796318
O8    O     O_2   0.753606 0.670521 0.183282 -0.583173
O9    O     O_R   0.762800 0.597182 0.184459 -0.791469
O10   O     O_2   0.245591 0.328403 0.817414 -0.600504
O11   O     O_R   0.236143 0.401714 0.817344 -0.795389
O12   O     O_2   0.337684 0.743685 0.195233 -0.583276
O13   O     O_R   0.963650 0.500000 0.166040 -0.622389
O14   O     O_R   0.381327 0.785763 0.155830 -0.796095
O15   O     O_2   0.662911 0.255690 0.805699 -0.583413
O16   O     O_R   0.590295 0.242561 0.802428 -0.790829
O17   O     O_2   0.256341 0.337728 0.195261 -0.583110
O18   O     O_R   0.214297 0.381413 0.155882 -0.796091
O19   O     O_2   0.744357 0.662954 0.805761 -0.583295
O20   O     O_R   0.757480 0.590342 0.802560 -0.796256
O21   O     O_R   0.036350 0.500000 0.833960 -0.621590
O22   O     O_R   0.000000 0.536350 0.666040 -0.621455
O23   O     O_R   0.000000 0.463650 0.333960 -0.621098
O24   O     O_R   0.536350 0.000000 0.666040 -0.621088
O25   O     O_R   0.463650 0.000000 0.333960 -0.621476
O26   O     O_R   0.000000 0.463650 0.666040 -0.621525
O27   O     O_R   1.000000 0.536350 0.333960 -0.622255
O28   O     O_R   0.463650 0.000000 0.666040 -0.622382
O29   O     O_3   0.500000 0.000000 0.750000 -0.464887
O30   O     O_R   0.536350 0.000000 0.333960 -0.621589
O31   O     O_R   0.448840 0.912530 0.228020 -0.638699
O32   O     O_R   0.551160 0.087470 0.771980 -0.638804
O33   O     O_R   0.912530 0.551160 0.228020 -0.639480
O34   O     O_R   0.087470 0.448840 0.771980 -0.639384
O35   O     O_R   0.551160 0.087470 0.228020 -0.638970
O36   O     O_R   0.448840 0.912530 0.771980 -0.639296
O37   O     O_R   0.087470 0.448840 0.228020 -0.638918
O38   O     O_R   0.912530 0.551160 0.771980 -0.639205
O39   O     O_R   0.448840 0.087470 0.771980 -0.639053
O40   O     O_3   0.000000 0.500000 0.250000 -0.464886
O41   O     O_R   0.551160 0.912530 0.228020 -0.639373
O42   O     O_R   0.912530 0.448840 0.771980 -0.638993
O43   O     O_R   0.087470 0.551160 0.228020 -0.639300
O44   O     O_R   0.551160 0.912530 0.771980 -0.638903
O45   O     O_R   0.448840 0.087470 0.228020 -0.639201
O46   O     O_R   0.087470 0.551160 0.771980 -0.638712
O47   O     O_R   0.912530 0.448840 0.228020 -0.638749
O48   O     O_R   0.948840 0.412530 0.728020 -0.638699
O49   O     O_R   0.051160 0.587470 0.271980 -0.638807
O50   O     O_R   0.412530 0.051160 0.728020 -0.639477
O51   O     O_3   0.000000 0.500000 0.750000 -0.464991
O52   O     O_R   0.587470 0.948840 0.271980 -0.639382
O53   O     O_R   0.051160 0.587470 0.728020 -0.638971
O54   O     O_R   0.948840 0.412530 0.271980 -0.639294
O55   O     O_R   0.587470 0.948840 0.728020 -0.638918
O56   O     O_R   0.412530 0.051160 0.271980 -0.639204
O57   O     O_R   0.948840 0.587470 0.271980 -0.639065
O58   O     O_R   0.051160 0.412530 0.728020 -0.639369
O59   O     O_R   0.412530 0.948840 0.271980 -0.638993
O60   O     O_R   0.587470 0.051160 0.728020 -0.639301
O61   O     O_R   0.051160 0.412530 0.271980 -0.638905
O62   O     O_R   0.500000 0.036350 0.166040 -0.621455
O63   O     O_R   0.948840 0.587470 0.728020 -0.639201
O64   O     O_R   0.587470 0.051160 0.271980 -0.638713
O65   O     O_R   0.412530 0.948840 0.728020 -0.638744
O66   O     O_2   0.162273 0.243659 0.304741 -0.583008
O67   O     O_R   0.118587 0.285700 0.344117 -0.795868
O68   O     O_2   0.837045 0.755643 0.694239 -0.583419
O69   O     O_R   0.909659 0.742518 0.697439 -0.796271
O70   O     O_2   0.243650 0.837724 0.304738 -0.582754
O71   O     O_R   0.285720 0.881384 0.344133 -0.796293
O72   O     O_2   0.755651 0.162967 0.694257 -0.583530
O73   O     O_R   0.500000 0.963650 0.833960 -0.621098
O74   O     O_R   0.742549 0.090349 0.697531 -0.796375
O75   O     O_2   0.896753 0.737383 0.312676 -0.603000
O76   O     O_R   0.823964 0.747883 0.319651 -0.771325
O77   O     O_2   0.171476 0.254298 0.682698 -0.582442
O78   O     O_R   0.098178 0.263861 0.682705 -0.795203
O79   O     O_2   0.756321 0.162321 0.304763 -0.583227
O80   O     O_R   0.714255 0.118665 0.344163 -0.796192
O81   O     O_2   0.244267 0.837133 0.694343 -0.583722
O82   O     O_R   0.257413 0.909744 0.697621 -0.792673
O83   O     O_2   0.162242 0.756365 0.695282 -0.583038
O84   O     O_R   0.036350 0.500000 0.166040 -0.621086
O85   O     O_R   0.118617 0.714282 0.655865 -0.796169
O86   O     O_2   0.837039 0.244343 0.305722 -0.583498
O87   O     O_R   0.909660 0.257433 0.302417 -0.796319
O88   O     O_2   0.253555 0.170563 0.683331 -0.583219
O89   O     O_R   0.262987 0.097252 0.684183 -0.791535
O90   O     O_2   0.745621 0.828421 0.317374 -0.600476
O91   O     O_R   0.736163 0.901730 0.317307 -0.795392
O92   O     O_2   0.837678 0.243690 0.695224 -0.583273
O93   O     O_R   0.881324 0.285768 0.655825 -0.796098
O94   O     O_2   0.162911 0.755690 0.305699 -0.583411
O95   O     O_R   0.963650 0.500000 0.833960 -0.621476
O96   O     O_R   0.090295 0.742562 0.302426 -0.790817
O97   O     O_2   0.756342 0.837726 0.695261 -0.583111
O98   O     O_R   0.714306 0.881426 0.655891 -0.796093
O99   O     O_2   0.244360 0.162957 0.305765 -0.583296
O100  O     O_R   0.257481 0.090344 0.302565 -0.796255
O101  O     O_2   0.662269 0.743656 0.804735 -0.583008
O102  O     O_R   0.618581 0.785694 0.844112 -0.795866
O103  O     O_2   0.337043 0.255641 0.194236 -0.583422
O104  O     O_R   0.409657 0.242517 0.197435 -0.796269
O105  O     O_2   0.743650 0.337728 0.804737 -0.582751
O106  O     O_R   0.500000 0.963650 0.166040 -0.621525
O107  O     O_R   0.785731 0.381367 0.844143 -0.796293
O108  O     O_2   0.255652 0.662966 0.194258 -0.583533
O109  O     O_R   0.242550 0.590348 0.197533 -0.796375
O110  O     O_2   0.396667 0.237305 0.812813 -0.602993
O111  O     O_R   0.323870 0.247781 0.819748 -0.771379
O112  O     O_2   0.671471 0.754302 0.182682 -0.582499
O113  O     O_R   0.598172 0.763861 0.182705 -0.795201
O114  O     O_2   0.256320 0.662320 0.804765 -0.583226
O115  O     O_R   0.214247 0.618676 0.844171 -0.796191
O116  O     O_2   0.744265 0.337136 0.194346 -0.583723
Zn1   Zn    Zn3+2 0.448050 1.000000 0.281500 0.999085
Zn2   Zn    Zn3+2 0.051950 0.500000 0.218500 0.999303
Zn3   Zn    Zn3+2 0.500000 0.051950 0.781500 0.998738
Zn4   Zn    Zn3+2 0.500000 0.948050 0.218500 0.999276
Zn5   Zn    Zn3+2 0.051950 0.500000 0.781500 0.999191
Zn6   Zn    Zn3+2 0.948050 0.500000 0.218500 0.998709
Zn7   Zn    Zn3+2 0.500000 0.948050 0.781500 0.999367
Zn8   Zn    Zn3+2 0.500000 0.051950 0.218500 0.999158
Zn9   Zn    Zn3+2 0.551950 0.000000 0.718500 0.999302
Zn10  Zn    Zn3+2 1.000000 0.551950 0.281500 0.998737
Zn11  Zn    Zn3+2 0.000000 0.448050 0.718500 0.999277
Zn12  Zn    Zn3+2 0.551950 1.000000 0.281500 0.999192
Zn13  Zn    Zn3+2 0.448050 0.000000 0.718500 0.998723
Zn14  Zn    Zn3+2 0.000000 0.448050 0.281500 0.999369
Zn15  Zn    Zn3+2 0.000000 0.551950 0.718500 0.999158
Zn16  Zn    Zn3+2 0.948050 0.500000 0.781500 0.999084

loop_
_geom_bond_atom_site_label_1
_geom_bond_atom_site_label_2
_ccdc_geom_bond_type
O50   Zn13  S    
C90   C167  S    
C12   O55   A    
O44   Zn7   S    
C74   C124  A    
C78   C115  S    
H63   O69   S    
C115  O85   S    
O1    Zn1   S    
C29   C208  S    
C91   C127  S    
C5    O65   A    
C215  O73   A    
C38   C159  A    
C63   C98   A    
H90   O7    S    
C194  C197  A    
C186  H8    S    
C72   C101  A    
C81   C117  S    
C218  O22   A    
C132  O4    D    
C39   C74   A    
C83   C119  S    
C220  O28   A    
C53   C68   A    
C193  H15   S    
C155  C189  A    
C176  C179  A    
C80   C116  S    
C114  O81   D    
C51   H43   S    
C46   C55   A    
C85   C121  S    
C105  O66   D    
C147  C155  S    
C36   C71   A    
C171  H12   S    
C95   C144  A    
C149  C154  S    
O21   Zn5   S    
C123  O102  S    
C190  H13   S    
C224  O57   A    
C174  H45   S    
O26   Zn11  S    
O95   Zn16  S    
C8    O39   A    
O29   Zn13  S    
C171  C185  A    
C1    C6    S    
O36   Zn7   S    
C175  H56   S    
O28   Zn13  S    
C4    O35   A    
O57   Zn10  S    
C91   C149  A    
C34   C70   A    
C73   C108  S    
C23   C215  S    
C153  C187  A    
C7    O63   A    
C187  C204  A    
C116  O87   S    
C104  C140  S    
H72   O87   S    
C127  O109  S    
H77   O98   S    
C157  C191  A    
C145  C157  S    
O65   Zn13  S    
C213  O106  A    
O1    Zn12  S    
H65   O74   S    
O40   Zn10  S    
C167  C204  A    
C160  C178  A    
C213  O62   A    
C187  H9    S    
C177  C178  A    
C170  C224  S    
C168  C169  A    
C38   H30   S    
C139  O18   S    
H76   O96   S    
C82   C118  S    
C161  C177  A    
C115  O83   D    
C40   C181  A    
C110  O78   S    
C107  O71   S    
C126  O107  S    
C180  H3    S    
C70   C79   A    
C50   C57   A    
C135  C163  S    
C45   C81   A    
O23   Zn14  S    
C70   C105  S    
H87   O3    S    
C161  C197  A    
H92   O11   S    
C3    O58   A    
C198  H20   S    
C179  H2    S    
C136  O10   D    
H74   O91   S    
C224  O33   A    
C41   C76   A    
C113  C165  S    
C15   O46   A    
O61   Zn14  S    
C188  C202  A    
C33   C212  S    
C168  C202  A    
C99   C136  S    
C2    C60   A    
C101  C166  S    
O54   Zn14  S    
C97   C142  A    
C17   C221  S    
C100  C137  S    
C4    O64   A    
C195  C196  A    
C40   H32   S    
C60   C95   A    
C39   H31   S    
C134  O9    S    
O84   Zn2   S    
C71   C106  S    
C11   C46   S    
C194  H16   S    
C127  O108  D    
C178  H89   S    
C129  O113  S    
C15   O53   A    
C13   C45   A    
C166  C172  A    
C97   C133  S    
C18   C220  S    
C174  C182  A    
C142  C161  S    
C61   C96   A    
C67   C103  A    
C143  C160  S    
C98   C124  A    
C94   C130  S    
C111  O80   S    
C49   C84   A    
C189  C201  A    
C14   O56   A    
C11   O43   A    
C155  C183  A    
O31   Zn4   S    
H62   O67   S    
C7    C112  S    
H83   O109  S    
H96   O20   S    
H68   O78   S    
C36   H28   S    
C64   C99   A    
C2    C44   A    
C80   C144  A    
C10   C35   S    
O56   Zn1   S    
C109  O75   D    
C13   C56   A    
O51   Zn11  S    
C84   C149  A    
C216  O84   A    
C163  C199  A    
C141  C162  S    
C125  O103  D    
C126  O105  D    
C21   C217  S    
C108  O74   S    
C79   C103  A    
C121  O98   S    
C66   C159  A    
C1    C34   A    
C117  O88   D    
O45   Zn8   S    
O24   Zn9   S    
C218  O26   A    
C130  O115  S    
C152  C186  A    
C32   C211  S    
C156  C182  A    
C63   C170  A    
O42   Zn16  S    
C172  H23   S    
C87   C150  A    
O25   Zn1   S    
C36   C112  A    
C88   C125  S    
O22   Zn15  S    
C62   C97   A    
H93   O14   S    
C222  O59   A    
C116  O86   D    
C209  C210  T    
C93   C146  A    
C41   H33   S    
C19   C28   T    
C34   H27   S    
C134  O8    D    
H79   O100  S    
O29   Zn7   S    
C108  O72   D    
C88   C151  A    
C12   C57   S    
C2    C16   S    
C6    O37   A    
C43   H36   S    
C89   C147  A    
C183  H5    S    
C75   C110  S    
C14   C68   S    
C60   H52   S    
O106  Zn4   S    
C61   H53   S    
O55   Zn9   S    
C140  O19   D    
O38   Zn16  S    
C5    C203  S    
H64   O71   S    
C129  O112  D    
C175  C180  A    
O40   Zn6   S    
C48   C83   A    
C8    O50   A    
O59   Zn1   S    
O48   Zn11  S    
C87   C123  S    
C182  H4    S    
C138  O16   S    
C71   C90   A    
C76   C111  S    
C100  C101  A    
C1    C67   A    
O41   Zn4   S    
C195  H17   S    
C66   H59   S    
C189  H11   S    
O30   Zn12  S    
C125  O104  S    
C114  O82   S    
C42   C77   A    
C53   H46   S    
C43   C214  A    
C122  O99   D    
C25   C33   T    
C69   H61   S    
C138  O15   D    
C58   H50   S    
O46   Zn5   S    
C8    C13   S    
H69   O80   S    
C16   O54   A    
C4    C192  S    
O40   Zn2   S    
C216  O13   A    
C152  C188  A    
C30   C209  S    
C190  C200  A    
C133  O7    S    
C43   C78   A    
O49   Zn10  S    
C46   C49   A    
O39   Zn3   S    
H94   O16   S    
C58   C93   A    
C169  C186  A    
C217  O95   A    
O34   Zn5   S    
C117  O89   S    
C222  O31   A    
C69   C112  A    
C75   C135  A    
C193  C198  A    
C73   C113  A    
C221  O25   A    
C165  C201  A    
C85   C150  A    
H70   O82   S    
C128  O111  S    
C55   C91   A    
C50   C85   A    
C82   C146  A    
C96   C141  A    
C9    O52   A    
C150  C153  S    
C86   C122  S    
C151  C152  S    
C164  C174  A    
H82   O107  S    
C59   C94   A    
H91   O9    S    
C223  O32   A    
C76   C141  A    
C191  H14   S    
C154  C190  A    
C163  C175  A    
C139  O17   D    
C35   C54   A    
C95   C131  S    
C3    O34   A    
C93   C129  S    
C35   C48   A    
C51   C86   A    
O27   Zn10  S    
C164  C198  A    
H73   O89   S    
C89   C126  S    
C52   C87   A    
C11   O49   A    
H95   O18   S    
C207  C208  T    
C123  O101  D    
O58   Zn11  S    
H81   O104  S    
C121  O97   D    
C120  O96   S    
C16   O47   A    
C196  H18   S    
C157  C180  A    
C14   O45   A    
C158  C179  A    
C137  O12   D    
O63   Zn15  S    
C211  C212  T    
C44   C80   A    
C84   C120  S    
C99   C135  A    
C105  O67   S    
C176  H67   S    
C65   C148  A    
C106  O68   D    
C3    C181  S    
H84   O111  S    
C37   H29   S    
C169  H1    S    
C26   C205  S    
C94   C143  A    
O32   Zn3   S    
C9    O41   A    
C77   C114  S    
C44   H37   S    
C188  H10   S    
C217  O21   A    
C197  H19   S    
C20   C218  S    
C106  O69   S    
C65   C100  A    
C67   H60   S    
C7    O38   A    
H85   O113  S    
C167  C171  A    
C49   H41   S    
C21   C30   T    
H71   O85   S    
C40   C75   A    
C111  O79   D    
C27   C206  S    
C23   C32   T    
C184  H6    S    
C173  H34   S    
C102  C113  A    
C86   C151  A    
O29   Zn3   S    
C31   C210  S    
H66   O76   S    
C37   C148  A    
C118  O91   S    
C52   C57   A    
C173  C183  A    
C24   C58   A    
H88   O5    S    
C37   C72   A    
C162  C196  A    
C56   H49   S    
C12   O44   A    
C28   C207  S    
O40   Zn14  S    
C55   H48   S    
C131  O3    S    
C124  C164  S    
O1    Zn4   S    
C110  O77   D    
C120  O94   D    
O2    Zn3   S    
C50   H42   S    
C22   C216  S    
C66   C102  A    
C5    O36   A    
C119  O93   S    
C63   H55   S    
C74   C109  S    
C59   C214  A    
C205  C206  T    
C25   C213  S    
C17   C26   T    
C191  C199  A    
C39   C170  A    
C137  O14   S    
O51   Zn5   S    
C10   O42   A    
C162  C176  A    
C165  C173  A    
H86   O115  S    
C102  C138  S    
C47   C82   A    
C148  C222  S    
C77   C142  A    
C177  H78   S    
C64   H57   S    
C6    O61   A    
C154  C184  A    
C223  O60   A    
C61   C192  A    
C131  O116  D    
C221  O30   A    
C79   C168  S    
C128  O110  D    
C96   C132  S    
C204  H26   S    
O1    Zn8   S    
C201  H24   S    
O13   Zn6   S    
C42   H35   S    
C42   C203  A    
C15   C214  S    
C92   C128  S    
O35   Zn8   S    
C118  O90   D    
C20   C29   T    
C219  O27   A    
O33   Zn6   S    
C185  H7    S    
C22   C31   T    
O43   Zn2   S    
C140  O20   S    
C54   C89   A    
C200  H22   S    
C47   H39   S    
C48   H40   S    
C59   H51   S    
O64   Zn12  S    
C119  O92   D    
O53   Zn15  S    
C103  C139  S    
C172  C184  A    
C72   C107  S    
C90   C104  A    
C202  H25   S    
C54   H47   S    
H80   O102  S    
C65   H58   S    
C109  O76   S    
C83   C147  A    
C64   C181  A    
C132  O5    S    
C52   H44   S    
C107  O70   D    
C81   C145  A    
C19   C219  S    
C144  C158  S    
C122  O100  S    
O51   Zn16  S    
C160  C194  A    
C69   C104  A    
O51   Zn15  S    
O47   Zn6   S    
C219  O23   A    
C130  O114  D    
C41   C192  A    
C92   C145  A    
C24   C47   A    
C136  O11   S    
C18   C27   T    
C215  O2    A    
H75   O93   S    
C9    C24   S    
C10   O48   A    
C133  O6    D    
O29   Zn9   S    
C98   C134  S    
C158  C195  A    
O62   Zn8   S    
C156  C193  A    
C78   C143  A    
C45   H38   S    
C153  C185  A    
C159  C223  S    
C220  O24   A    
C53   C88   A    
C51   C68   A    
O52   Zn12  S    
C166  C200  A    
C62   C203  A    
C199  H21   S    
C56   C92   A    
C146  C156  S    
O60   Zn9   S    
C62   H54   S    
O37   Zn2   S    
O73   Zn7   S    
C38   C73   A    
