data_mof_unit_52562.cif
_audit_creation_date              2013-03-05T16:03:01-0500
_audit_creation_method            fapswitch 2.2
_symmetry_space_group_name_H-M    P1
_symmetry_Int_Tables_number       1
_space_group_crystal_system       triclinic
_cell_length_a                    6.985479
_cell_length_b                    18.263032
_cell_length_c                    20.236991
_cell_angle_alpha                 68.388186
_cell_angle_beta                  91.206092
_cell_angle_gamma                 91.401111
_cell_volume                      2399.33990058

loop_
_atom_site_label
_atom_site_type_symbol
_atom_site_description
_atom_site_fract_x
_atom_site_fract_y
_atom_site_fract_z
_atom_type_partial_charge
O1    O     O_R   0.488990 0.443920 0.942160 -0.570372
O2    O     O_R   0.823840 0.406530 0.087600 -0.597865
O3    O     O_R   0.999650 0.556080 0.057840 -0.565381
C1    C     C_R   0.653843 0.382161 0.114175 0.968052
O4    O     O_R   0.818390 0.434590 0.944530 -0.583779
O5    O     O_R   0.994160 0.584350 0.913750 -0.597622
C2    C     C_R   0.647904 0.422965 0.922177 0.932237
O6    O     O_R   0.494480 0.415650 0.086250 -0.557504
O7    O     O_3   0.662600 0.549100 0.990070 -0.267682
V1    V     V_3+5 0.935320 0.490890 0.001840 1.243954
O8    O     O_R   0.324240 0.593470 0.912400 -0.599161
C3    C     C_R   0.155343 0.616722 0.885084 0.910648
O9    O     O_R   0.329690 0.565410 0.055470 -0.559150
C4    C     C_R   0.163263 0.579701 0.075753 0.992592
V2    V     V_3+5 0.435990 0.509110 0.998160 1.262242
O10   O     O_3   0.158840 0.450900 0.009930 -0.260396
C5    C     C_3   0.943646 0.694528 0.244653 -0.356909
C6    C     C_3   0.298025 0.680998 0.267900 -0.343717
C7    C     C_3   0.289741 0.729589 0.316873 -0.352664
H1    H     H_    0.919381 0.630404 0.274594 0.212368
H2    H     H_    0.442427 0.688364 0.243806 0.159296
H3    H     H_    0.277450 0.617298 0.300382 0.210776
H4    H     H_    0.275341 0.689231 0.373169 0.206070
H5    H     H_    0.427724 0.762467 0.313588 0.133697
C8    C     C_1   0.107808 0.873690 0.379293 -0.279521
C9    C     C_3   0.142045 0.707685 0.208478 0.256270
C10   C     C_3   0.929450 0.742912 0.294148 -0.206571
C11   C     C_3   0.122040 0.788615 0.294338 0.340151
C12   C     C_3   0.159396 0.844563 0.216466 -0.450371
C13   C     C_3   0.171155 0.797309 0.166490 -0.297793
C14   C     C_1   0.113714 0.835274 0.341380 -0.102203
C15   C     C_1   0.153283 0.662560 0.160333 0.028134
C16   C     C_1   0.159583 0.625290 0.121421 -0.096035
H6    H     H_    0.060104 0.818471 0.123786 0.202025
H7    H     H_    0.313252 0.808549 0.140410 0.200986
H8    H     H_    0.042928 0.888247 0.197474 0.172999
H9    H     H_    0.828661 0.713205 0.203197 0.157515
H10   H     H_    0.815962 0.787419 0.271425 0.079039
H11   H     H_    0.295519 0.878484 0.213776 0.173149
C17   C     C_R   0.181209 0.778464 0.878411 -0.297489
C18   C     C_R   0.193145 0.855578 0.877788 0.422786
C19   C     C_R   0.178099 0.918956 0.812868 -0.136214
C20   C     C_R   0.153254 0.906044 0.749557 -0.216992
C21   C     C_R   0.143033 0.828922 0.749036 0.112250
C22   C     C_R   0.156555 0.763721 0.814848 0.081308
C23   C     C_R   0.119536 0.816263 0.684250 -0.283986
C24   C     C_R   0.111807 0.738328 0.685320 0.121697
C25   C     C_R   0.125384 0.673037 0.751027 0.066280
C26   C     C_R   0.145716 0.685456 0.816117 -0.250298
C27   C     C_R   0.093381 0.724071 0.621403 -0.132664
C28   C     C_R   0.091051 0.647751 0.621797 -0.211164
C29   C     C_R   0.106275 0.583493 0.685706 0.008828
C30   C     C_R   0.121707 0.596105 0.749933 -0.167346
H12   H     H_    0.191807 0.730052 0.929043 0.141610
H13   H     H_    0.186456 0.978972 0.810918 0.206220
H14   H     H_    0.142642 0.957361 0.700986 0.148491
H15   H     H_    0.082397 0.771730 0.570261 0.098877
H16   H     H_    0.078529 0.638932 0.571761 0.151118
H17   H     H_    0.133461 0.545335 0.798891 0.153115
H18   H     H_    0.945739 0.454775 0.304458 0.190069
C31   C     C_R   0.469734 0.225233 0.127135 -0.090163
C32   C     C_R   0.351122 0.158959 0.136982 -0.048749
C33   C     C_R   0.324892 0.102287 0.203675 -0.182633
C34   C     C_R   0.418079 0.109987 0.261700 -0.170526
C35   C     C_R   0.526825 0.178714 0.255705 0.143732
C36   C     C_R   0.547083 0.240286 0.187424 0.016841
C37   C     C_R   0.621981 0.184477 0.316256 -0.279785
C38   C     C_R   0.725768 0.254396 0.310142 0.126764
C39   C     C_R   0.712988 0.321814 0.246285 -0.008055
C40   C     C_R   0.639064 0.313440 0.183012 -0.287004
C41   C     C_R   0.836418 0.259875 0.367669 -0.262180
C42   C     C_R   0.929124 0.330116 0.363193 -0.118198
C43   C     C_R   0.892275 0.398508 0.304625 -0.142499
C44   C     C_R   0.774548 0.396086 0.248582 0.283876
H19   H     H_    0.288030 0.147978 0.092032 0.173019
H20   H     H_    0.239881 0.049788 0.209964 0.130490
H21   H     H_    0.403447 0.060303 0.310988 0.137133
H22   H     H_    0.853464 0.209986 0.416749 0.143178
O11   O     O_R   0.770890 0.084490 0.414040 -0.596364
O12   O     O_R   0.445980 0.065450 0.555510 -0.583791
O13   O     O_R   0.270670 0.915620 0.586180 -0.586551
C45   C     C_R   0.616662 0.078849 0.576387 0.973361
O14   O     O_R   0.441480 0.093500 0.412450 -0.596592
O15   O     O_R   0.266140 0.943870 0.442100 -0.595028
C46   C     C_R   0.610908 0.117231 0.385827 0.930298
O16   O     O_R   0.775410 0.056240 0.558120 -0.594331
O17   O     O_3   0.602660 0.950990 0.510100 -0.273018
V3    V     V_3+5 0.329740 0.009100 0.498130 1.173410
O18   O     O_R   0.936120 0.934420 0.444240 -0.592959
C47   C     C_R   0.102921 0.920153 0.424130 0.968307
O19   O     O_R   0.940610 0.906370 0.587310 -0.587631
C48   C     C_R   0.109414 0.884401 0.615318 0.935931
V4    V     V_3+5 0.829110 0.990690 0.501470 1.171232
O20   O     O_3   0.106080 0.049010 0.489880 -0.278869
C49   C     C_3   0.806974 0.265204 0.697715 0.202153
C50   C     C_3   0.442042 0.256627 0.694593 0.047528
C51   C     C_3   0.425309 0.291740 0.756588 0.051742
H23   H     H_    0.743461 0.379377 0.707984 0.230796
H24   H     H_    0.394173 0.355305 0.732570 0.162514
C52   C     C_1   0.632633 0.375403 0.878503 -0.113864
C53   C     C_3   0.631732 0.206506 0.709172 -0.022806
C54   C     C_3   0.780565 0.318073 0.742068 -0.525412
C55   C     C_3   0.621360 0.285304 0.797844 0.067882
C56   C     C_3   0.658514 0.195826 0.841868 -0.302332
C57   C     C_3   0.640838 0.148490 0.790083 -0.364808
C58   C     C_1   0.622581 0.334585 0.842767 0.204673
C59   C     C_1   0.637058 0.160129 0.661594 0.180296
C60   C     C_1   0.630636 0.123054 0.622669 -0.194232
H25   H     H_    0.503238 0.115496 0.803016 0.278140
H26   H     H_    0.932864 0.229396 0.720742 0.054327
H27   H     H_    0.917809 0.321915 0.768788 0.258358
H28   H     H_    0.543441 0.173576 0.881726 0.212996
C61   C     C_2   0.864009 0.692116 0.368020 0.538228
H29   H     H_    0.751075 0.712659 0.392557 0.000015
O21   O     O_2   0.938953 0.629262 0.401407 -0.538921
C62   C     C_2   0.108476 0.503320 0.684521 0.502084
H30   H     H_    0.100101 0.494606 0.634323 0.111754
O22   O     O_2   0.120863 0.446076 0.739606 -0.590282
N1    N     N_R   0.221310 0.869390 0.942955 0.243550
O23   O     O_R   0.221224 0.940643 0.943019 -0.377011
O24   O     O_R   0.250696 0.810935 0.002687 -0.452196
C63   C     C_2   0.527733 0.268984 0.053314 0.539042
H31   H     H_    0.671639 0.293140 0.042154 -0.025609
O25   O     O_2   0.417909 0.274518 0.003988 -0.542825
C64   C     C_2   0.055226 0.331861 0.422288 0.730212
H32   H     H_    0.085185 0.277651 0.466710 0.027613
O26   O     O_2   0.128180 0.393443 0.422003 -0.508252
N2    N     N_R   0.691073 0.468573 0.202769 0.226854
O27   O     O_R   0.790122 0.534026 0.184976 -0.441931
O28   O     O_R   0.505555 0.472411 0.196058 -0.409707
N3    N     N_R   0.847704 0.312323 0.622200 0.275439
O29   O     O_R   0.871639 0.277767 0.577173 -0.418878
O30   O     O_R   0.888591 0.387281 0.601358 -0.329494
C65   C     C_2   0.268364 0.207601 0.687808 0.518577
H33   H     H_    0.161793 0.235665 0.648060 0.090772
O31   O     O_2   0.252918 0.136678 0.720181 -0.623275
N4    N     N_R   0.454962 0.321357 0.623513 0.242163
O32   O     O_R   0.451984 0.395477 0.615271 -0.369274
O33   O     O_R   0.457578 0.304424 0.566345 -0.346008
N5    N     N_R   0.269099 0.257612 0.807205 0.219982
O34   O     O_R   0.226767 0.182839 0.829692 -0.450217
O35   O     O_R   0.209945 0.297493 0.844244 -0.324146
C66   C     C_2   0.788520 0.084765 0.803262 0.474427
H34   H     H_    0.938315 0.099982 0.792687 0.106253
O36   O     O_2   0.739893 0.015310 0.825563 -0.544066
C67   C     C_2   0.838105 0.180660 0.888616 0.639371
H35   H     H_    0.924747 0.129642 0.897272 0.078288
O37   O     O_2   0.877151 0.220477 0.924201 -0.537127

loop_
_geom_bond_atom_site_label_1
_geom_bond_atom_site_label_2
_geom_bond_distance
_ccdc_geom_bond_type
C53   C59   1.499859 S    
O17   V3    2.170195 S    
C18   C19   1.398855 A    
C9    C15   1.494148 S    
V4    O20   2.160342 S    
C6    H2    1.113154 S    
C34   H21   1.077840 S    
O2    C1    1.312332 A    
C6    C9    1.552387 S    
C1    O6    1.298039 A    
N2    O27   1.300109 A    
C4    C16   1.454952 S    
C1    C40   1.496073 S    
C3    C26   1.495941 S    
C30   H17   1.082445 S    
C21   C22   1.425695 A    
N4    O33   1.303502 A    
C12   H8    1.113029 S    
C8    C47   1.454096 S    
C12   C13   1.557015 S    
C13   H7    1.112771 S    
C5    C9    1.552817 S    
C11   C12   1.553614 S    
N5    O35   1.301152 A    
C67   H35   1.080757 S    
O5    C3    1.302348 A    
C23   C48   1.490267 S    
C33   H20   1.083323 S    
C10   H10   1.114208 S    
C66   H34   1.081369 S    
H18   C43   1.083604 S    
C5    H1    1.113225 S    
C62   H30   1.084828 S    
C6    C7    1.557516 S    
C43   C44   1.400162 A    
C54   C55   1.546514 S    
O13   C48   1.300219 A    
O8    V2    2.006791 S    
C31   C36   1.438106 A    
C44   N2    1.436313 S    
C38   C39   1.422110 A    
C35   C37   1.418374 A    
C59   C60   1.212821 T    
O1    V2    1.967725 S    
C45   C60   1.444924 S    
O7    V1    2.170170 S    
C51   N5    1.473761 S    
C31   C32   1.404072 A    
C49   C54   1.557594 S    
C29   C62   1.473675 S    
O14   V3    2.005242 S    
C6    H3    1.112935 S    
O9    C4    1.304611 A    
C49   N3    1.481374 S    
C54   H27   1.104212 S    
C17   C22   1.414314 A    
O15   C47   1.301638 A    
C56   C57   1.586683 S    
C51   H24   1.106102 S    
C21   C23   1.418343 A    
C24   C27   1.413137 A    
C67   O37   1.220477 D    
N1    O24   1.301046 A    
C53   C57   1.590191 S    
C25   C30   1.412916 A    
V3    O20   1.719073 S    
C37   C46   1.490872 S    
C2    C52   1.450531 S    
C13   H6    1.112834 S    
C28   C29   1.394085 A    
C5    C10   1.566651 S    
C56   C67   1.523002 S    
N5    O34   1.299040 A    
O12   C45   1.304083 A    
O18   C47   1.305405 A    
O19   C48   1.303914 A    
C56   H28   1.109854 S    
C50   C65   1.524099 S    
H23   C54   1.110964 S    
C37   C38   1.419009 A    
C31   C63   1.471300 S    
C7    H4    1.110826 S    
C20   C21   1.412468 A    
C57   C66   1.519320 S    
C32   C33   1.377875 A    
O16   V4    1.984739 S    
C19   H13   1.082331 S    
O19   V4    2.006707 S    
C24   C25   1.425199 A    
C22   C26   1.420281 A    
N1    O23   1.301784 A    
C50   C51   1.612882 S    
C12   H11   1.113303 S    
C27   C28   1.390610 A    
C39   C44   1.429698 A    
C28   H16   1.083799 S    
C5    H9    1.113357 S    
C18   N1    1.439861 S    
C7    C11   1.555474 S    
C51   C55   1.572849 S    
O3    C4    1.302843 A    
C10   C61   1.513557 S    
C17   C18   1.404201 A    
O14   C46   1.307143 A    
C9    C13   1.552090 S    
O6    V2    2.005064 S    
C17   H12   1.081552 S    
O9    V2    1.976290 S    
C64   H32   1.085677 S    
C32   H19   1.084039 S    
C19   C20   1.392267 A    
C63   O25   1.221654 D    
N3    O29   1.300652 A    
O2    V1    2.005172 S    
O11   C46   1.298758 A    
C29   C30   1.402666 A    
O4    C2    1.305263 A    
C61   H29   1.085300 S    
C66   O36   1.221365 D    
C57   H25   1.105262 S    
C23   C24   1.415210 A    
C25   C26   1.420322 A    
O1    C2    1.302298 A    
C27   H15   1.082120 S    
C8    C14   1.217335 T    
C50   N4    1.490771 S    
C11   C14   1.496034 S    
O15   V3    1.962192 S    
C42   C43   1.394104 A    
N3    O30   1.301602 A    
C49   H26   1.097527 S    
N2    O28   1.301084 A    
O5    V1    2.003842 S    
C65   O31   1.220505 D    
O8    C3    1.304616 A    
O11   V4    2.000394 S    
C65   H33   1.074097 S    
N4    O32   1.302126 A    
C52   C58   1.214936 T    
C42   C64   1.479702 S    
C15   C16   1.217818 T    
C7    H5    1.113106 S    
O7    V2    1.712401 S    
O4    V1    1.966462 S    
O12   V3    1.966350 S    
O3    V1    1.962139 S    
V1    O10   1.719033 S    
C34   C35   1.418561 A    
C45   O16   1.299606 A    
C36   C40   1.441638 A    
C38   C41   1.416647 A    
O17   V4    1.709019 S    
C62   O22   1.218602 D    
C55   C58   1.496206 S    
O18   V4    1.976605 S    
C39   C40   1.429037 A    
O13   V3    2.003888 S    
C33   C34   1.381062 A    
C49   C53   1.570393 S    
C20   H14   1.082467 S    
C41   C42   1.396227 A    
C35   C36   1.431681 A    
C55   C56   1.571647 S    
C64   O26   1.221471 D    
C61   O21   1.221246 D    
C63   H31   1.081957 S    
C50   C53   1.588924 S    
C41   H22   1.079145 S    
V2    O10   2.160400 S    
C10   C11   1.566473 S    
