data_mof_unit_26270.cif
_audit_creation_date              2012-12-10T17:37:30-0500
_audit_creation_method            fapswitch 2.2
_symmetry_space_group_name_H-M    P1
_symmetry_Int_Tables_number       1
_space_group_crystal_system       triclinic
_cell_length_a                    11.94737
_cell_length_b                    12.845239
_cell_length_c                    16.54252
_cell_angle_alpha                 90.616079
_cell_angle_beta                  82.712482
_cell_angle_gamma                 93.585982
_cell_volume                      2513.27969207

loop_
_atom_site_label
_atom_site_type_symbol
_atom_type_description
_atom_site_fract_x
_atom_site_fract_y
_atom_site_fract_z
_atom_type_partial_charge
C1    C     C_R   0.522659 0.700517 0.498519 0.910133
C2    C     C_R   0.549616 0.131884 0.468570 -0.332430
C3    C     C_R   0.451424 0.974204 0.522489 0.143430
C4    C     C_R   0.546302 0.025601 0.477192 0.124179
C5    C     C_R   0.956157 0.382025 0.442305 0.402334
C6    C     C_R   0.045979 0.621570 0.551705 0.407800
C7    C     C_R   0.839152 0.395756 0.447424 -0.131129
C8    C     C_R   0.160803 0.604878 0.551638 -0.080552
C9    C     C_R   0.858782 0.554554 0.519979 -0.001830
C10   C     C_R   0.141540 0.446058 0.478934 -0.042603
C11   C     C_R   0.975977 0.544968 0.517598 -0.118529
C12   C     C_R   0.477172 0.299468 0.502356 0.919883
C13   C     C_R   0.024532 0.456439 0.479794 -0.097500
C14   C     C_R   0.486396 0.503375 0.654734 0.923638
C15   C     C_R   0.515323 0.507603 0.345960 0.912404
C16   C     C_R   0.483426 0.524478 0.742099 -0.219008
C17   C     C_R   0.528456 0.548450 0.262903 -0.200552
C18   C     C_R   0.583323 0.528470 0.779545 0.472899
C19   C     C_R   0.451783 0.619022 0.239793 0.467427
C20   C     C_R   0.581288 0.567479 0.858310 -0.346083
C21   C     C_R   0.476506 0.667574 0.163503 -0.386228
C22   C     C_R   0.480471 0.598827 0.902097 0.037734
C23   C     C_R   0.461542 0.187971 0.506703 -0.139137
C24   C     C_R   0.568566 0.639659 0.108713 0.026894
C25   C     C_R   0.378849 0.586823 0.867498 0.512761
C26   C     C_R   0.645472 0.571430 0.132593 0.524884
C27   C     C_R   0.381914 0.552557 0.786677 -0.382717
C28   C     C_R   0.626516 0.528580 0.210443 -0.388132
C29   C     C_2   0.477011 0.630158 0.987924 -0.171640
C30   C     C_2   0.569491 0.661508 0.022191 -0.193813
C31   C     C_3   0.713255 0.405506 0.760350 0.102457
C32   C     C_3   0.819303 0.374633 0.706878 -0.788323
C33   C     C_3   0.262952 0.662668 0.258353 0.111466
C34   C     C_R   0.537315 0.811914 0.494805 -0.149222
C35   C     C_3   0.158287 0.642923 0.319938 -0.820999
C36   C     C_3   0.974372 0.272624 0.328782 0.071989
C37   C     C_3   0.904297 0.168776 0.328344 -0.336447
C38   C     C_3   0.866291 0.145829 0.244986 -0.980922
C39   C     C_3   0.992741 0.784636 0.524929 0.094285
C40   C     C_3   0.098335 0.859405 0.510999 -0.391398
C41   C     C_3   0.088193 0.938637 0.444626 -0.942047
C42   C     C_3   0.191994 0.538891 0.916034 0.039718
C43   C     C_3   0.091782 0.575532 0.877051 -0.288993
C44   C     C_3   0.995850 0.490860 0.880490 -0.974918
C45   C     C_R   0.637794 0.970345 0.442771 -0.305328
C46   C     C_3   0.717585 0.453859 0.037468 0.070332
C47   C     C_3   0.774367 0.363748 0.072366 -0.354092
C48   C     C_3   0.769829 0.267028 0.018239 -0.968393
C49   C     C_3   0.176670 0.148966 0.612935 0.094310
C50   C     C_3   0.089806 0.228851 0.637602 -0.786292
C51   C     C_3   0.720016 0.789833 0.335494 0.116852
C52   C     C_3   0.813703 0.720061 0.302581 -0.811089
C53   C     C_R   0.361661 0.029578 0.559451 -0.335376
C54   C     C_R   0.633685 0.862594 0.450906 0.454931
C55   C     C_R   0.364953 0.138589 0.551983 0.476828
C56   C     C_R   0.447905 0.867679 0.531112 -0.310212
H1    H     H_    0.214597 0.662185 0.579117 0.144247
H2    H     H_    0.374718 0.827753 0.565767 0.165392
H3    H     H_    0.711958 0.010189 0.409654 0.151706
H4    H     H_    0.292269 0.987255 0.595793 0.124997
H5    H     H_    0.181869 0.380414 0.448902 0.187526
H6    H     H_    0.818564 0.620090 0.550228 0.191151
H7    H     H_    0.643763 0.345554 0.752560 0.132645
H8    H     H_    0.730440 0.406301 0.824952 0.121402
H9    H     H_    0.890002 0.433846 0.711710 0.260587
H10   H     H_    0.843929 0.297962 0.726751 0.196884
H11   H     H_    0.803165 0.368462 0.642299 0.264622
H12   H     H_    0.783827 0.338022 0.422070 0.146728
H13   H     H_    0.254000 0.609503 0.205453 0.124810
H14   H     H_    0.265980 0.745257 0.238350 0.145602
H15   H     H_    0.165710 0.690479 0.375605 0.258762
H16   H     H_    0.082117 0.663906 0.293187 0.198245
H17   H     H_    0.148505 0.559100 0.336252 0.251704
H18   H     H_    0.054212 0.265589 0.287187 0.160303
H19   H     H_    0.929710 0.336009 0.303091 0.115892
H20   H     H_    0.955571 0.104752 0.344778 0.233747
H21   H     H_    0.828572 0.170920 0.374514 0.206042
H22   H     H_    0.811778 0.207261 0.228605 0.263155
H23   H     H_    0.687946 0.478657 0.229615 0.181337
H24   H     H_    0.816961 0.069507 0.246698 0.263419
H25   H     H_    0.940768 0.142329 0.197678 0.268142
H26   H     H_    0.918882 0.830745 0.546096 0.191783
H27   H     H_    0.974883 0.747861 0.466020 0.144180
H28   H     H_    0.109863 0.901269 0.568745 0.217372
H29   H     H_    0.174203 0.814907 0.492500 0.222868
H30   H     H_    0.076261 0.898123 0.386373 0.266787
H31   H     H_    0.166721 0.990311 0.434761 0.267448
H32   H     H_    0.015490 0.987287 0.462998 0.268332
H33   H     H_    0.163920 0.523613 0.981700 0.155965
H34   H     H_    0.305193 0.551018 0.758131 0.191481
H35   H     H_    0.217808 0.462747 0.888757 0.127928
H36   H     H_    0.060020 0.645944 0.909798 0.235884
H37   H     H_    0.119329 0.596911 0.812384 0.221305
H38   H     H_    0.023915 0.421719 0.844315 0.260951
H39   H     H_    0.922941 0.521294 0.854758 0.275740
H40   H     H_    0.968104 0.466985 0.944542 0.272229
H41   H     H_    0.754730 0.465888 0.973066 0.160180
H42   H     H_    0.625652 0.432392 0.036240 0.123027
H43   H     H_    0.864172 0.387676 0.077681 0.229905
H44   H     H_    0.730898 0.343684 0.134049 0.206699
H45   H     H_    0.650231 0.679744 0.985802 0.184414
H46   H     H_    0.680681 0.241097 0.012630 0.264939
H47   H     H_    0.810462 0.202906 0.045629 0.272024
H48   H     H_    0.815696 0.283949 0.956619 0.263847
H49   H     H_    0.176963 0.096168 0.665724 0.141846
H50   H     H_    0.150095 0.104715 0.559657 0.156300
H51   H     H_    0.083302 0.280709 0.585538 0.268781
H52   H     H_    0.005776 0.188267 0.656016 0.200716
H53   H     H_    0.114516 0.276621 0.689601 0.250029
H54   H     H_    0.732406 0.864574 0.301084 0.133527
H55   H     H_    0.637557 0.749699 0.325111 0.141726
H56   H     H_    0.397956 0.611411 0.026721 0.176163
H57   H     H_    0.810944 0.705450 0.236565 0.224073
H58   H     H_    0.897261 0.758481 0.311198 0.237454
H59   H     H_    0.802791 0.644257 0.335229 0.266864
H60   H     H_    0.421528 0.723824 0.144326 0.161229
H61   H     H_    0.659589 0.571199 0.884661 0.159996
H62   H     H_    0.622410 0.171634 0.433385 0.164848
N1    N     N_R   0.206400 0.519440 0.514690 -0.119065
N2    N     N_R   0.793600 0.480560 0.485310 -0.129337
O1    O     O_R   0.421320 0.658850 0.503920 -0.625697
O2    O     O_3   0.360361 0.645410 0.295758 -0.586974
O3    O     O_3   0.003292 0.292878 0.408192 -0.660675
O4    O     O_3   0.003442 0.711600 0.586755 -0.651964
O5    O     O_3   0.279598 0.619262 0.910642 -0.650678
O6    O     O_3   0.740131 0.547472 0.080185 -0.655240
O7    O     O_3   0.284355 0.200971 0.593542 -0.600554
O8    O     O_3   0.725371 0.807829 0.419251 -0.616242
O9    O     O_R   0.578680 0.341150 0.496080 -0.641096
O10   O     O_R   0.609840 0.646370 0.494500 -0.584928
O11   O     O_R   0.390160 0.353630 0.505500 -0.575877
O12   O     O_R   0.394600 0.506990 0.621070 -0.620092
O13   O     O_R   0.605400 0.493010 0.378930 -0.635072
O14   O     O_R   0.583120 0.494520 0.611640 -0.560340
O15   O     O_R   0.416880 0.505480 0.388360 -0.561631
O16   O     O_3   0.685913 0.505112 0.736732 -0.580290
Zn1   Zn    Zn3+2 0.374120 0.508330 0.506290 0.982512
Zn2   Zn    Zn3+2 0.625880 0.491670 0.493710 0.961721

loop_
_geom_bond_atom_site_label_1
_geom_bond_atom_site_label_2
_ccdc_geom_bond_type
C19   O2    S    
C34   C56   A    
C12   O11   A    
C11   C13   A    
C40   H28   S    
C29   H56   S    
C6    O4    S    
C2    H62   S    
C54   O8    S    
C14   O12   A    
C52   H57   S    
C41   H30   S    
C12   C23   S    
C29   C30   D    
C44   H40   S    
C51   O8    S    
C36   C37   S    
C22   C29   S    
C24   C26   A    
C15   O15   A    
C48   H48   S    
C47   H43   S    
C27   H34   S    
C15   C17   S    
C42   H35   S    
C26   O6    S    
O1    Zn1   S    
C28   H23   S    
C25   O5    S    
C10   N1    A    
C42   O5    S    
C33   C35   S    
C7    H12   S    
C35   H17   S    
O9    Zn2   S    
C31   C32   S    
C56   H2    S    
C22   C25   A    
C18   O16   S    
C5    C13   A    
C33   H13   S    
C16   C27   A    
C46   H42   S    
C35   H15   S    
O13   Zn2   S    
C50   H52   S    
C21   H60   S    
C41   H31   S    
C7    N2    A    
C20   H61   S    
C53   H4    S    
C1    C34   S    
C24   C30   S    
C4    C45   A    
C53   C55   A    
C49   O7    S    
C12   O9    A    
C51   C52   S    
N1    Zn1   S    
C31   H7    S    
C36   O3    S    
C1    O10   A    
C6    C11   A    
C5    C7    A    
C17   C19   A    
C6    C8    A    
C14   O14   A    
O12   Zn1   S    
C48   H47   S    
C37   H21   S    
C50   H53   S    
C47   H44   S    
C9    H6    S    
C40   H29   S    
C2    C4    A    
C43   C44   S    
O14   Zn2   S    
C37   C38   S    
O11   Zn1   S    
C36   H19   S    
C8    H1    S    
C3    C56   A    
C47   C48   S    
C48   H46   S    
C9    C11   A    
C36   H18   S    
C33   H14   S    
C32   H11   S    
C40   C41   S    
C46   H41   S    
C20   C22   A    
C35   H16   S    
C34   C54   A    
C51   H54   S    
C38   H25   S    
C50   H51   S    
C14   C16   S    
C10   H5    S    
N2    Zn2   S    
C42   C43   S    
C3    C4    A    
O10   Zn2   S    
C39   C40   S    
C32   H10   S    
C52   H59   S    
O15   Zn1   S    
C41   H32   S    
C46   C47   S    
C45   H3    S    
C51   H55   S    
C19   C21   A    
C17   C28   A    
C31   H8    S    
C46   O6    S    
C39   H26   S    
C55   O7    S    
C31   O16   S    
C10   C13   A    
C45   C54   A    
C49   H49   S    
C23   C55   A    
C49   H50   S    
C15   O13   A    
C52   H58   S    
C25   C27   A    
C38   H22   S    
C5    O3    S    
C26   C28   A    
C43   H36   S    
C42   H33   S    
C39   H27   S    
C44   H39   S    
C3    C53   A    
C33   O2    S    
C38   H24   S    
C30   H45   S    
C43   H37   S    
C37   H20   S    
C18   C20   A    
C1    O1    A    
C44   H38   S    
C39   O4    S    
C16   C18   A    
C49   C50   S    
C21   C24   A    
C2    C23   A    
C9    N2    A    
C8    N1    A    
C32   H9    S    
