data_mof_unit_54480.cif
_audit_creation_date              2012-12-10T18:53:04-0500
_audit_creation_method            fapswitch 2.2
_symmetry_space_group_name_H-M    P1
_symmetry_Int_Tables_number       1
_space_group_crystal_system       triclinic
_cell_length_a                    9.874715
_cell_length_b                    10.728722
_cell_length_c                    16.906299
_cell_angle_alpha                 90.980249
_cell_angle_beta                  85.818586
_cell_angle_gamma                 89.378834
_cell_volume                      1785.94498663

loop_
_atom_site_label
_atom_site_type_symbol
_atom_type_description
_atom_site_fract_x
_atom_site_fract_y
_atom_site_fract_z
_atom_type_partial_charge
C1    C     C_R   0.499413 0.739927 0.497331 0.914113
C2    C     C_R   0.064508 0.562695 0.557779 -0.137118
C3    C     C_R   0.077504 0.437956 0.441553 0.145586
C4    C     C_R   0.920431 0.562998 0.557949 0.179183
C5    C     C_R   0.481896 0.496030 0.652470 0.904030
C6    C     C_R   0.518056 0.505349 0.347475 0.856285
C7    C     C_R   0.472399 0.474585 0.736813 -0.083292
C8    C     C_R   0.527110 0.523783 0.262530 -0.076411
C9    C     C_R   0.582117 0.417703 0.770609 -0.322700
C10   C     C_R   0.410610 0.560861 0.226118 -0.364184
C11   C     C_R   0.577620 0.399304 0.852309 0.519304
C12   C     C_R   0.501486 0.259946 0.495508 0.912508
C13   C     C_R   0.412110 0.565512 0.143344 0.539064
C14   C     C_R   0.458610 0.433922 0.898128 0.074221
C15   C     C_R   0.536798 0.542347 0.099374 0.086343
C16   C     C_R   0.346109 0.483744 0.863814 -0.236271
C17   C     C_R   0.656021 0.519318 0.136331 -0.240925
C18   C     C_R   0.352921 0.504401 0.783038 -0.201099
C19   C     C_R   0.651044 0.507675 0.217870 -0.208560
C20   C     C_2   0.460159 0.442408 0.983142 -0.110538
C21   C     C_2   0.541280 0.525694 0.014189 -0.146103
C22   C     C_3   0.172484 0.558145 0.138666 0.072670
C23   C     C_R   0.622648 0.932881 0.490709 -0.341948
C24   C     C_3   0.161853 0.415437 0.144311 -0.392963
C25   C     C_3   0.023684 0.377503 0.181679 -0.963724
C26   C     C_3   0.811731 0.388699 0.864947 0.052240
C27   C     C_3   0.896673 0.288726 0.817658 -0.325572
C28   C     C_3   0.036235 0.337464 0.789762 -0.944829
C29   C     C_3   0.789935 0.135410 0.392567 0.108850
C30   C     C_3   0.814093 0.014458 0.342859 -0.413926
C31   C     C_3   0.872804 0.042308 0.259166 -0.950363
C32   C     C_3   0.257901 0.837378 0.382990 0.132820
C33   C     C_3   0.225795 0.943111 0.327093 -0.421148
C34   C     C_R   0.381375 0.066164 0.478903 -0.341820
C35   C     C_3   0.205313 0.892648 0.243924 -0.931943
C36   C     C_R   0.627807 0.059546 0.482279 0.519383
C37   C     C_R   0.379128 0.938151 0.474775 0.513128
C38   C     C_R   0.504518 0.127308 0.485396 -0.238282
C39   C     C_R   0.499028 0.871895 0.488359 -0.239567
C40   C     C_R   0.934721 0.440085 0.441524 -0.088867
H1    H     H_    0.670664 0.388119 0.733356 0.168364
H2    H     H_    0.286522 0.116944 0.475717 0.198963
H3    H     H_    0.885671 0.395743 0.393622 0.124295
H4    H     H_    0.113135 0.612957 0.603752 0.142993
H5    H     H_    0.092648 0.590191 0.100406 0.169787
H6    H     H_    0.147299 0.606053 0.196575 0.127151
H7    H     H_    0.175585 0.372816 0.083939 0.219520
H8    H     H_    0.241428 0.377304 0.180539 0.221238
H9    H     H_    0.003293 0.422451 0.241047 0.261201
H10   H     H_    0.021721 0.274904 0.188267 0.272313
H11   H     H_    0.942973 0.404591 0.142951 0.259986
H12   H     H_    0.319802 0.584372 0.262796 0.149296
H13   H     H_    0.863174 0.411808 0.919550 0.158899
H14   H     H_    0.808698 0.477128 0.831244 0.116185
H15   H     H_    0.909595 0.206512 0.855647 0.232728
H16   H     H_    0.843902 0.257590 0.765168 0.224643
H17   H     H_    0.026072 0.419015 0.750896 0.255821
H18   H     H_    0.095256 0.263181 0.755638 0.278782
H19   H     H_    0.092269 0.365031 0.841702 0.262884
H20   H     H_    0.887098 0.186380 0.389388 0.172925
H21   H     H_    0.713362 0.196043 0.366209 0.124744
H22   H     H_    0.885233 0.952110 0.371974 0.238589
H23   H     H_    0.742812 0.483062 0.245644 0.164092
H24   H     H_    0.716766 0.965053 0.337775 0.218385
H25   H     H_    0.802444 0.103898 0.228921 0.268701
H26   H     H_    0.887567 0.953910 0.224344 0.273137
H27   H     H_    0.972385 0.088588 0.261369 0.266553
H28   H     H_    0.177849 0.765661 0.380582 0.167047
H29   H     H_    0.355381 0.790291 0.361667 0.115710
H30   H     H_    0.132615 0.993763 0.350959 0.244336
H31   H     H_    0.310944 0.010072 0.323097 0.215183
H32   H     H_    0.297177 0.840284 0.219599 0.277119
H33   H     H_    0.186807 0.971266 0.204088 0.271225
H34   H     H_    0.266689 0.546552 0.757158 0.161560
H35   H     H_    0.116336 0.830093 0.245430 0.257031
H36   H     H_    0.191317 0.434512 0.337445 0.204238
H37   H     H_    0.226206 0.315928 0.399893 0.229482
H38   H     H_    0.863664 0.596796 0.673252 0.153197
H39   H     H_    0.870279 0.724446 0.615902 0.170439
H40   H     H_    0.615801 0.576355 0.977074 0.135351
H41   H     H_    0.387465 0.389763 0.019780 0.143944
H42   H     H_    0.256181 0.512995 0.900306 0.163552
H43   H     H_    0.750848 0.502676 0.101297 0.147282
H44   H     H_    0.717296 0.882560 0.495886 0.204271
N1    N     N_R   0.142790 0.500030 0.500020 -0.098878
N2    N     N_R   0.857210 0.499970 0.499980 -0.090526
N3    N     N_3   0.150345 0.370820 0.378092 -0.491385
N4    N     N_3   0.840690 0.631235 0.618241 -0.396731
O1    O     O_R   0.385380 0.683250 0.500010 -0.584608
O2    O     O_3   0.682303 0.340631 0.888855 -0.644890
O3    O     O_3   0.754272 0.114037 0.474032 -0.620697
O4    O     O_3   0.257195 0.880673 0.462763 -0.625577
O5    O     O_R   0.614620 0.316750 0.499990 -0.577751
O6    O     O_R   0.614710 0.683220 0.500000 -0.614601
O7    O     O_R   0.385290 0.316780 0.500000 -0.637139
O8    O     O_R   0.371780 0.500040 0.615800 -0.621873
O9    O     O_R   0.628220 0.499960 0.384200 -0.637750
O10   O     O_R   0.601110 0.500010 0.615800 -0.597046
O11   O     O_R   0.398890 0.499990 0.384200 -0.652280
O12   O     O_3   0.298870 0.596724 0.102249 -0.657151
Zn1   Zn    Zn3+2 0.346870 0.500020 0.500000 0.939874
Zn2   Zn    Zn3+2 0.653130 0.499980 0.500000 0.968288

loop_
_geom_bond_atom_site_label_1
_geom_bond_atom_site_label_2
_ccdc_geom_bond_type
C31   H26   S    
C30   H24   S    
C3    N1    A    
C34   C37   A    
C34   H2    S    
C10   H12   S    
C28   H17   S    
C31   H27   S    
C35   H35   S    
C26   C27   S    
C30   C31   S    
C11   C14   A    
C27   H15   S    
C4    N2    A    
C2    N1    A    
C31   H25   S    
C40   N2    A    
C25   H10   S    
C17   C19   A    
C40   H3    S    
C19   H23   S    
C1    O6    A    
C12   O7    A    
O9    Zn2   S    
C32   H28   S    
C18   H34   S    
O8    Zn1   S    
C26   H14   S    
H39   N4    S    
C29   H21   S    
C8    C19   A    
C22   O12   S    
C23   H44   S    
C3    N3    S    
C24   H8    S    
C6    O9    A    
C14   C20   S    
C24   C25   S    
C2    H4    S    
C5    C7    S    
C1    C39   S    
C27   H16   S    
C6    C8    S    
O10   Zn2   S    
C17   H43   S    
C2    C4    A    
C25   H11   S    
C29   C30   S    
C29   H20   S    
C7    C18   A    
C16   H42   S    
C5    O10   A    
C9    C11   A    
H36   N3    S    
O6    Zn2   S    
C33   H30   S    
C36   O3    S    
C16   C18   A    
C22   H6    S    
C35   H32   S    
C30   H22   S    
C14   C16   A    
C12   O5    A    
N2    Zn2   S    
C26   H13   S    
C29   O3    S    
C5    O8    A    
N1    Zn1   S    
C28   H19   S    
H38   N4    S    
C15   C17   A    
C35   H33   S    
C1    O1    A    
C37   O4    S    
O1    Zn1   S    
C34   C38   A    
C24   H7    S    
C10   C13   A    
O5    Zn2   S    
C3    C40   A    
C32   H29   S    
C4    N4    S    
C28   H18   S    
C26   O2    S    
C9    H1    S    
C6    O11   A    
C13   O12   S    
C13   C15   A    
C37   C39   A    
C32   C33   S    
C11   O2    S    
C32   O4    S    
C23   C39   A    
C21   H40   S    
C36   C38   A    
C33   C35   S    
C22   C24   S    
C12   C38   S    
C25   H9    S    
C33   H31   S    
C7    C9    A    
C15   C21   S    
C22   H5    S    
C20   C21   D    
H37   N3    S    
C8    C10   A    
C23   C36   A    
C27   C28   S    
C20   H41   S    
O11   Zn1   S    
O7    Zn1   S    
