data_mof_unit_24537.cif
_audit_creation_date              2012-10-26T19:57:46-0400
_audit_creation_method            fapswitch 2.2
_symmetry_space_group_name_H-M    P1
_symmetry_Int_Tables_number       1
_space_group_crystal_system       triclinic
_cell_length_a                    7.507617
_cell_length_b                    8.684171
_cell_length_c                    12.958595
_cell_angle_alpha                 87.477708
_cell_angle_beta                  79.325805
_cell_angle_gamma                 103.170568
_cell_volume                      805.121012737

loop_
_atom_site_label
_atom_site_type_symbol
_atom_type_description
_atom_site_fract_x
_atom_site_fract_y
_atom_site_fract_z
_atom_type_partial_charge
C1    C     C_R   0.452488 0.199691 0.503780 0.525329
C2    C     C_R   0.731274 0.542443 0.119603 -0.141929
C3    C     C_R   0.606910 0.520402 0.858641 -0.136178
C4    C     C_R   0.393088 0.479574 0.141360 -0.136199
C5    C     C_R   0.589787 0.516820 0.967161 0.043965
C6    C     C_R   0.410211 0.483153 0.032840 0.043963
C7    C     C_2   0.426111 0.031293 0.507442 -0.165184
C8    C     C_2   0.573888 0.968706 0.492557 -0.165179
C9    C     C_3   0.934437 0.243003 0.645810 0.043967
C10   C     C_3   0.766061 0.156552 0.728985 -0.399902
C11   C     C_3   0.065520 0.756999 0.354185 0.043961
C12   C     C_R   0.547512 0.800309 0.496219 0.525339
C13   C     C_3   0.233915 0.843494 0.271038 -0.399897
C14   C     C_R   0.466432 0.495376 0.701255 0.529968
C15   C     C_R   0.533567 0.504620 0.298745 0.529995
C16   C     C_R   0.553029 0.508891 0.185025 -0.001919
C17   C     C_R   0.446969 0.491094 0.814976 -0.001924
C18   C     C_R   0.250517 0.453432 0.989030 -0.146689
C19   C     C_R   0.749481 0.546542 0.010971 -0.146687
C20   C     C_R   0.268725 0.457538 0.880398 -0.141929
Cu1   Cu    Cu3+1 0.686350 0.517570 0.488220 1.027023
Cu2   Cu    Cu3+1 0.313650 0.482430 0.511780 1.027057
H1    H     H_    0.255200 0.453496 0.191537 0.148459
H2    H     H_    0.776482 0.033309 0.747819 0.099145
H3    H     H_    0.760578 0.219170 0.802015 0.146524
H4    H     H_    0.060927 0.825829 0.424776 0.129433
H5    H     H_    0.938966 0.753790 0.321126 0.158856
H6    H     H_    0.239687 0.780703 0.198073 0.146657
H7    H     H_    0.223262 0.966629 0.252046 0.099124
H8    H     H_    0.364484 0.848321 0.300734 0.164707
H9    H     H_    0.284013 0.958507 0.523191 0.120327
H10   H     H_    0.715985 0.041493 0.476805 0.120317
H11   H     H_    0.744799 0.546479 0.808464 0.148485
H12   H     H_    0.856686 0.566131 0.152179 0.132628
H13   H     H_    0.143313 0.433854 0.847820 0.132636
H14   H     H_    0.112256 0.426877 0.038622 0.104677
H15   H     H_    0.887742 0.573096 0.961379 0.104679
H16   H     H_    0.061015 0.246160 0.678834 0.158852
H17   H     H_    0.938946 0.174179 0.575217 0.129410
H18   H     H_    0.635451 0.152040 0.699403 0.164818
N1    N     N_2   0.033570 0.455950 0.529530 0.093585
N2    N     N_2   0.966430 0.544050 0.470470 0.093583
O1    O     O_R   0.621060 0.286250 0.492350 -0.484675
O2    O     O_3   0.082777 0.602216 0.378122 -0.463319
O3    O     O_R   0.378940 0.713750 0.507650 -0.484643
O4    O     O_R   0.306310 0.256580 0.512240 -0.545457
O5    O     O_R   0.693690 0.743420 0.487760 -0.545461
O6    O     O_R   0.631800 0.512400 0.642670 -0.462523
O7    O     O_R   0.368200 0.487600 0.357330 -0.462504
O8    O     O_R   0.317060 0.482730 0.662570 -0.520961
O9    O     O_R   0.682940 0.517270 0.337430 -0.520989
O10   O     O_3   0.917243 0.397808 0.621886 -0.463321

loop_
_geom_bond_atom_site_label_1
_geom_bond_atom_site_label_2
_ccdc_geom_bond_type
C4    C16   A    
Cu1   O9    S    
C13   H6    S    
C5    C19   A    
C15   O9    A    
C8    C12   S    
C2    C16   A    
N1    N2    D    
N1    O10   S    
C11   H5    S    
Cu2   O8    S    
Cu1   O6    S    
C2    H12   S    
C11   O2    S    
Cu1   O1    S    
Cu1   Cu2   S    
C11   C13   S    
C14   C17   S    
C14   O8    A    
C9    O10   S    
N2    O2    S    
C12   O5    A    
C10   H3    S    
C4    C6    A    
C9    H16   S    
Cu2   O4    S    
C3    C17   A    
C18   C20   A    
C15   O7    A    
C5    C6    A    
C6    C18   A    
C1    O4    A    
Cu2   N1    S    
C7    H9    S    
C3    H11   S    
C15   C16   S    
C8    H10   S    
C3    C5    A    
C13   H8    S    
C7    C8    D    
C17   C20   A    
C10   H18   S    
Cu2   O3    S    
C9    C10   S    
C13   H7    S    
C4    H1    S    
C14   O6    A    
C19   H15   S    
C11   H4    S    
C10   H2    S    
C2    C19   A    
C1    C7    S    
C20   H13   S    
C18   H14   S    
C1    O1    A    
C9    H17   S    
Cu2   O7    S    
Cu1   N2    S    
C12   O3    A    
Cu1   O5    S    
