data_mof_unit_11207.cif
_audit_creation_date              2013-03-05T15:45:33-0500
_audit_creation_method            fapswitch 2.2
_symmetry_space_group_name_H-M    P1
_symmetry_Int_Tables_number       1
_space_group_crystal_system       triclinic
_cell_length_a                    8.405568
_cell_length_b                    14.35966
_cell_length_c                    19.141174
_cell_angle_alpha                 92.969142
_cell_angle_beta                  94.297418
_cell_angle_gamma                 90.961799
_cell_volume                      2300.27688937

loop_
_atom_site_label
_atom_site_type_symbol
_atom_site_description
_atom_site_fract_x
_atom_site_fract_y
_atom_site_fract_z
_atom_type_partial_charge
P1    P     P_3+3 0.937730 0.712710 0.546710 0.460580
O1    O     O_2   0.108370 0.727470 0.525290 -0.364891
O2    O     O_3   0.865330 0.611210 0.531230 -0.417603
O3    O     O_3   0.346360 0.671710 0.401620 -0.345202
O4    O     O_2   0.247895 0.834898 0.453940 -0.383157
O5    O     O_3   0.963312 0.735434 0.637383 -0.553558
O6    O     O_3   0.299276 0.834400 0.323141 -0.556151
H1    H     H_    0.304625 0.707343 0.267564 0.136392
C1    C     C_3   0.321708 0.822844 0.200128 -0.365428
H2    H     H_    0.190329 0.828547 0.190521 0.236103
P2    P     P_3+3 0.357970 0.428340 0.344000 0.482885
P3    P     P_3+3 0.900169 0.624309 0.276212 0.457640
O7    O     O_2   0.182890 0.456530 0.332150 -0.385109
O8    O     O_3   0.933230 0.625130 0.368420 -0.387860
O9    O     O_2   0.036410 0.567432 0.245819 -0.385514
O10   O     O_3   0.345799 0.306473 0.329154 -0.588080
O11   O     O_3   0.932256 0.737864 0.250532 -0.529651
C2    C     C_3   0.884383 0.800419 0.303592 0.477904
H3    H     H_    0.967824 0.798470 0.351404 0.150303
H4    H     H_    0.761005 0.783982 0.316974 0.026877
C3    C     C_3   0.887839 0.898907 0.278343 -1.001288
H5    H     H_    0.011559 0.918925 0.267852 0.268479
H6    H     H_    0.808266 0.902985 0.229609 0.257148
C4    C     C_3   0.946823 0.281217 0.321816 0.208995
H7    H     H_    0.909805 0.327703 0.279178 0.077165
H8    H     H_    0.049807 0.315460 0.351152 0.081485
C5    C     C_3   0.991343 0.187803 0.288136 0.185671
H9    H     H_    0.100508 0.200145 0.259763 0.053548
H10   H     H_    0.020420 0.138499 0.329920 0.079794
Ba1   Ba    Ba6+2 0.150350 0.545800 0.464500 1.540624
C6    C     C_3   0.032720 0.659363 0.669950 0.307843
H11   H     H_    0.147587 0.644523 0.647833 0.095208
H12   H     H_    0.953123 0.596413 0.661778 0.051445
C7    C     C_3   0.061382 0.683030 0.749024 0.169598
H13   H     H_    0.158531 0.638645 0.770455 0.055744
H14   H     H_    0.952157 0.664913 0.775654 0.044647
C8    C     C_3   0.354039 0.261015 0.392532 0.442151
H15   H     H_    0.238326 0.262918 0.415411 0.002294
H16   H     H_    0.443010 0.292613 0.431947 0.170551
C9    C     C_3   0.396719 0.159760 0.378232 -0.988618
H17   H     H_    0.306543 0.124308 0.340245 0.234908
H18   H     H_    0.400868 0.122861 0.427795 0.238183
H19   H     H_    0.514796 0.156150 0.356003 0.286356
P4    P     P_3+3 0.872570 0.287280 0.453240 0.411716
O12   O     O_2   0.701930 0.272470 0.474700 -0.364788
O13   O     O_3   0.944970 0.388780 0.468720 -0.454374
O14   O     O_3   0.463940 0.328280 0.598320 -0.377320
O15   O     O_3   0.817848 0.269453 0.362846 -0.560425
P5    P     P_3+3 0.904546 0.376868 0.723090 0.411720
O16   O     O_3   0.372010 0.546630 0.581240 -0.378832
O17   O     O_3   0.877070 0.374860 0.631520 -0.392359
O18   O     O_2   0.766919 0.432736 0.752971 -0.404685
O19   O     O_3   0.880940 0.262431 0.749677 -0.559045
Ba2   Ba    Ba6+2 0.659830 0.454190 0.535450 1.529635
P6    P     P_3+3 0.367541 0.793633 0.404133 0.457870
C10   C     C_3   0.360796 0.778289 0.269859 0.391250
H20   H     H_    0.492562 0.773094 0.278518 0.024733
H21   H     H_    0.376125 0.894135 0.202350 0.202657
O20   O     O_3   0.438280 0.453360 0.418700 -0.387009
C11   C     C_3   0.534271 0.745380 0.649350 0.722886
H22   H     H_    0.582690 0.704951 0.604292 0.084291
C12   C     C_3   0.434470 0.824822 0.619357 -0.924274
H23   H     H_    0.421471 0.882109 0.659803 0.247941
H24   H     H_    0.490650 0.854120 0.573655 0.211843
H25   H     H_    0.311440 0.798717 0.602204 0.285342
P7    P     P_3+3 0.447032 0.571561 0.668409 0.429583
O21   O     O_2   0.627420 0.543410 0.667830 -0.370030
O22   O     O_3   0.436800 0.691644 0.689820 -0.580697
H26   H     H_    0.846529 0.948633 0.319163 0.245000
C13   C     C_3   0.866758 0.200580 0.689703 0.465048
H27   H     H_    0.758410 0.216068 0.656843 0.166362
H28   H     H_    0.965625 0.210601 0.655731 0.026470
C14   C     C_3   0.860378 0.097211 0.708299 -0.459375
H29   H     H_    0.736886 0.069556 0.698111 0.217232
H30   H     H_    0.933138 0.055603 0.672457 0.188036
P8    P     P_3+3 0.439229 0.206112 0.599797 0.414728
C15   C     C_3   0.420650 0.203466 0.741625 0.654896
O23   O     O_2   0.564721 0.163880 0.553020 -0.411054
O24   O     O_3   0.496547 0.163304 0.683340 -0.583489
C16   C     C_3   0.443607 0.136947 0.803335 1.008035
H31   H     H_    0.575670 0.130639 0.813858 -0.098900
C17   C     C_R   0.007989 0.938834 0.534845 -0.121552
C18   C     C_R   0.820194 0.803914 0.500520 0.220739
C19   C     C_R   0.673691 0.773692 0.467065 -0.468475
C20   C     C_R   0.568913 0.835978 0.435831 0.241587
C21   C     C_R   0.612972 0.929987 0.433660 -0.316351
C22   C     C_R   0.760769 0.963597 0.465242 0.072613
C23   C     C_R   0.864737 0.901257 0.500820 -0.024993
H32   H     H_    0.636819 0.701272 0.468330 0.203964
C24   C     C_R   0.946214 0.096705 0.496629 -0.024027
C25   C     C_R   0.050967 0.034175 0.531608 0.059320
C26   C     C_R   0.989610 0.194217 0.498035 0.218068
C27   C     C_R   0.134346 0.224570 0.533454 -0.495551
C28   C     C_R   0.241954 0.161963 0.562322 0.280369
C29   C     C_R   0.199648 0.067396 0.562603 -0.296936
C30   C     C_R   0.802872 0.059264 0.462738 -0.140572
H33   H     H_    0.530555 0.976895 0.408220 0.167742
H34   H     H_    0.282819 0.019928 0.587172 0.172662
H35   H     H_    0.167886 0.297841 0.535563 0.176298
H36   H     H_    0.087604 0.894635 0.564386 0.175639
H37   H     H_    0.722396 0.104099 0.434370 0.178191
C31   C     C_R   0.600489 0.540442 0.293903 0.216153
C32   C     C_R   0.461212 0.488220 0.274385 0.231237
C33   C     C_R   0.412840 0.474705 0.202484 -0.350071
C34   C     C_R   0.505532 0.511994 0.151039 0.081551
C35   C     C_R   0.651808 0.558886 0.173069 -0.356657
C36   C     C_R   0.700386 0.572450 0.244419 0.121204
C37   C     C_R   0.476482 0.577616 0.031433 -0.379230
C38   C     C_R   0.423723 0.572941 0.959453 0.640385
C39   C     C_R   0.344269 0.491104 0.929551 -0.001554
C40   C     C_R   0.319953 0.416347 0.972668 -0.242959
C41   C     C_R   0.371679 0.422496 0.044173 -0.176014
C42   C     C_R   0.450911 0.503282 0.074559 0.148802
C43   C     C_R   0.143341 0.439383 0.828884 -0.292797
C44   C     C_R   0.097388 0.429863 0.756668 0.290114
C45   C     C_R   0.343039 0.505950 0.731071 0.262331
C46   C     C_R   0.391106 0.514833 0.802774 -0.204450
C47   C     C_R   0.291658 0.481972 0.852919 0.064988
C48   C     C_R   0.198892 0.461413 0.708311 -0.520882
H38   H     H_    0.505525 0.547790 0.818943 0.174976
H39   H     H_    0.533698 0.640883 0.054391 0.157349
H40   H     H_    0.303238 0.435948 0.186985 0.167992
H41   H     H_    0.262450 0.352202 0.950735 0.174775
H42   H     H_    0.351993 0.363198 0.075378 0.127748
H43   H     H_    0.063290 0.414562 0.865926 0.154428
H44   H     H_    0.729219 0.583549 0.134931 0.170951
H45   H     H_    0.161581 0.455880 0.652858 0.171502
O25   O     O_3   0.859988 0.151221 0.243981 -0.555226
C49   C     C_3   0.913790 0.104795 0.183696 -0.200404
H46   H     H_    0.007304 0.053376 0.197319 0.127609
H47   H     H_    0.959964 0.156089 0.148144 0.129472
H48   H     H_    0.811388 0.066240 0.155016 0.162328
O26   O     O_3   0.099691 0.779359 0.761888 -0.541675
C50   C     C_3   0.168389 0.795471 0.831602 -0.132040
H49   H     H_    0.097785 0.761608 0.870813 0.116758
H50   H     H_    0.170847 0.871733 0.845223 0.153625
H51   H     H_    0.293995 0.770647 0.835245 0.182378
C51   C     C_3   0.384806 0.765309 0.139690 -1.013602
H52   H     H_    0.516394 0.759336 0.148085 0.265753
H53   H     H_    0.327925 0.694685 0.135764 0.287928
H54   H     H_    0.356202 0.799559 0.089714 0.275979
C52   C     C_3   0.672480 0.786273 0.698725 -0.885689
H55   H     H_    0.627564 0.820816 0.746492 0.217579
H56   H     H_    0.745635 0.728567 0.717123 0.248525
H57   H     H_    0.744915 0.837834 0.672051 0.248387
C53   C     C_3   0.917863 0.078640 0.784025 -0.739117
H58   H     H_    0.849299 0.119334 0.821884 0.251665
H59   H     H_    0.900647 0.003361 0.792707 0.233966
H60   H     H_    0.046212 0.096422 0.794782 0.290555
C54   C     C_3   0.242053 0.216631 0.725405 -0.889625
H61   H     H_    0.219722 0.271671 0.687698 0.217472
H62   H     H_    0.188577 0.149645 0.703055 0.239304
H63   H     H_    0.183639 0.238166 0.773543 0.262897
C55   C     C_3   0.500734 0.296990 0.766599 -0.857233
H64   H     H_    0.504198 0.344705 0.723509 0.293657
H65   H     H_    0.435895 0.330312 0.809010 0.229336
H66   H     H_    0.622893 0.286462 0.789561 0.259183
O27   O     O_3   0.377374 0.178209 0.863402 -0.665523
C56   C     C_3   0.428223 0.132518 0.924334 -0.269251
H67   H     H_    0.560541 0.128811 0.931491 0.121647
H68   H     H_    0.371911 0.061900 0.923743 0.168895
H69   H     H_    0.388394 0.173160 0.970494 0.169362
O28   O     O_3   0.363814 0.050408 0.784035 -0.627455
C57   C     C_3   0.469715 0.975951 0.791393 -0.354458
H70   H     H_    0.527122 0.974521 0.845600 0.128640
H71   H     H_    0.562050 0.979794 0.753165 0.164160
H72   H     H_    0.401360 0.909709 0.780183 0.211286
O29   O     O_3   0.431429 0.650579 0.919200 -0.644634
C58   C     C_3   0.584240 0.694409 0.927449 -0.347576
H73   H     H_    0.682960 0.643539 0.932227 0.147973
H74   H     H_    0.591672 0.745812 0.973181 0.164795
H75   H     H_    0.601404 0.733669 0.880042 0.180865
O30   O     O_3   0.646109 0.554723 0.363218 -0.656293
C59   C     C_3   0.747068 0.481796 0.381117 0.168781
H76   H     H_    0.840036 0.466071 0.344144 0.062607
H77   H     H_    0.682078 0.415885 0.386027 0.132509
H78   H     H_    0.807645 0.506919 0.430861 0.234292

loop_
_geom_bond_atom_site_label_1
_geom_bond_atom_site_label_2
_geom_bond_distance
_ccdc_geom_bond_type
P7    O22   1.756637 S    
C22   C23   1.424453 A    
C27   C28   1.391240 A    
C5    H10   1.111680 S    
C2    C3    1.518564 S    
C14   H30   1.111031 S    
C14   H29   1.104995 S    
C40   C41   1.402563 A    
C4    C5    1.522626 S    
O6    P6    1.745663 S    
C37   H39   1.077990 S    
O25   C49   1.410367 S    
H1    C10   1.113036 S    
C50   H51   1.118398 S    
C43   C44   1.406146 A    
C29   H34   1.083723 S    
C20   C21   1.397333 A    
C45   C46   1.400076 A    
C31   O30   1.357329 S    
Ba1   Ba2   4.627846 S    
O16   Ba2   2.947586 S    
P7    C45   1.826716 S    
C34   C42   1.499288 S    
C57   H70   1.112375 S    
C8    H15   1.096365 S    
C4    H8    1.091184 S    
O14   P8    1.765006 S    
C41   H42   1.082566 S    
C8    C9    1.519439 S    
C56   H67   1.112886 S    
C7    H13   1.111605 S    
O2    Ba2   2.825453 S    
P5    O19   1.757711 S    
C33   H40   1.082226 S    
C35   C36   1.398591 A    
C37   C38   1.413259 A    
C2    H4    1.111168 S    
C11   C12   1.537019 S    
C2    H3    1.112378 S    
C58   H73   1.116431 S    
C21   H33   1.081595 S    
C59   H76   1.111202 S    
C41   C42   1.404875 A    
C12   H24   1.121877 S    
C11   C52   1.530589 S    
C39   C40   1.408897 A    
C24   C26   1.439424 A    
C9    H19   1.109739 S    
O28   C57   1.408579 S    
P2    Ba1   3.392572 S    
P5    O17   1.749355 S    
C54   H63   1.108648 S    
P3    O11   1.749675 S    
P8    O24   1.778613 S    
C13   H27   1.099982 S    
C1    H2    1.110946 S    
C27   H35   1.082611 S    
C55   H65   1.104461 S    
P4    C26   1.877574 S    
O10   C8    1.404840 S    
C49   H48   1.109262 S    
P8    C28   1.845391 S    
C9    H18   1.108923 S    
C18   C23   1.440616 A    
Ba1   O16   2.799516 S    
C3    H5    1.109798 S    
Ba1   O20   2.948434 S    
C58   H74   1.112801 S    
C52   H57   1.118123 S    
C39   C47   1.498413 S    
C28   C29   1.398336 A    
O6    C10   1.401656 S    
O8    Ba1   2.791844 S    
P2    O20   1.556671 S    
O19   C13   1.411097 S    
C33   C34   1.420914 A    
P4    O13   1.575097 S    
C53   H59   1.110877 S    
Ba2   O20   2.799098 S    
C15   O24   1.427088 S    
C6    C7    1.534195 S    
C40   H41   1.082994 S    
P1    O5    1.745851 S    
C4    O15   1.398499 S    
O7    Ba1   2.813363 S    
C30   H37   1.078285 S    
C19   C20   1.391393 A    
C55   H66   1.102198 S    
C46   H38   1.081511 S    
C43   H43   1.082650 S    
C21   C22   1.406704 A    
C50   H50   1.111973 S    
Ba2   O21   2.813391 S    
C7    O26   1.419713 S    
O30   C59   1.399153 S    
C17   C25   1.415711 A    
C3    H26   1.110010 S    
C11   H22   1.120344 S    
P1    O2    1.575096 S    
C37   C42   1.406116 A    
P6    C20   1.837453 S    
O2    Ba1   2.943331 S    
C16   O28   1.420528 S    
C12   H23   1.112545 S    
C38   O29   1.390975 S    
C15   C55   1.529754 S    
C53   H60   1.106124 S    
C1    C51   1.519808 S    
C16   O27   1.421056 S    
C18   C19   1.396405 A    
C59   H78   1.087011 S    
P3    O9    1.548867 D    
P5    O18   1.546536 D    
C22   C30   1.416957 A    
O13   Ba2   2.944189 S    
C13   C14   1.545242 S    
C6    H12   1.112908 S    
O11   C2    1.406831 S    
C56   H69   1.109413 S    
C31   C36   1.401721 A    
C1    C10   1.525985 S    
C4    H7    1.110789 S    
O16   P7    1.755751 S    
C5    O25   1.415645 S    
C11   O22   1.415128 S    
C55   H64   1.100954 S    
C43   C47   1.413932 A    
C51   H53   1.110478 S    
O14   Ba2   2.801917 S    
C9    H17   1.108372 S    
P5    C44   1.836147 S    
P3    O8    1.765425 S    
O12   Ba2   2.839871 S    
C44   C48   1.392407 A    
C3    H6    1.111049 S    
O3    P6    1.754631 S    
O26   C50   1.419749 S    
C58   H75   1.109944 S    
C52   H56   1.097102 S    
C10   H20   1.111887 S    
O5    C6    1.399876 S    
C32   C33   1.408150 A    
P4    O12   1.535694 D    
C53   H58   1.108503 S    
C15   C16   1.560064 S    
O29   C58   1.415293 S    
C12   H25   1.114048 S    
C52   H55   1.111564 S    
C17   H36   1.079413 S    
O4    P6    1.541628 D    
C6    H11   1.102575 S    
P8    O23   1.545606 D    
C16   H31   1.119276 S    
C51   H54   1.110405 S    
C15   C54   1.526929 S    
P3    C36   1.871578 S    
C13   H28   1.104909 S    
C24   C30   1.409453 A    
C50   H49   1.116631 S    
P1    Ba1   3.404312 S    
P1    C18   1.872279 S    
C34   C35   1.417066 A    
C35   H44   1.082572 S    
C45   C48   1.390281 A    
Ba1   O13   2.824846 S    
C14   C53   1.531343 S    
O1    Ba1   2.839342 S    
O17   Ba2   2.792342 S    
C57   H71   1.108464 S    
C56   H68   1.111023 S    
C49   H46   1.113442 S    
C8    H16   1.096796 S    
C46   C47   1.413028 A    
P2    O7    1.536405 D    
C24   C25   1.424876 A    
O27   C56   1.409758 S    
C54   H62   1.106507 S    
C17   C23   1.410488 A    
P1    O1    1.535333 D    
C26   C27   1.399168 A    
P7    O21   1.576462 D    
C7    H14   1.116359 S    
C57   H72   1.105896 S    
C31   C32   1.395858 A    
C59   H77   1.096622 S    
P2    O10   1.758329 S    
C51   H52   1.111104 S    
C25   C29   1.407470 A    
P4    Ba2   3.404886 S    
C1    H21   1.111697 S    
C19   H32   1.082131 S    
C5    H9    1.116937 S    
C54   H61   1.106624 S    
P2    C32   1.880155 S    
C38   C39   1.414663 A    
O3    Ba1   2.802630 S    
P4    O15   1.761177 S    
C49   H47   1.112722 S    
C48   H45   1.082518 S    
