data_mof_unit_50028.cif
_audit_creation_date              2012-12-10T18:04:00-0500
_audit_creation_method            fapswitch 2.2
_symmetry_space_group_name_H-M    P1
_symmetry_Int_Tables_number       1
_space_group_crystal_system       triclinic
_cell_length_a                    10.829561
_cell_length_b                    9.527741
_cell_length_c                    11.032331
_cell_angle_alpha                 89.999985
_cell_angle_beta                  89.767582
_cell_angle_gamma                 90.0
_cell_volume                      1138.32036342

loop_
_atom_site_label
_atom_site_type_symbol
_atom_type_description
_atom_site_fract_x
_atom_site_fract_y
_atom_site_fract_z
_atom_type_partial_charge
C1    C     C_R   0.262105 0.499987 0.499984 0.818214
C2    C     C_R   0.737895 0.499987 0.500016 0.818214
C3    C     C_R   0.392736 0.074230 0.516113 0.018216
C4    C     C_R   0.607264 0.074231 0.483887 0.018215
C5    C     C_R   0.392526 0.925898 0.515294 0.216439
C6    C     C_R   0.607474 0.925898 0.484706 0.216438
C7    C     C_R   0.500938 0.500642 0.262428 0.849934
C8    C     C_R   0.499062 0.500642 0.737572 0.849934
C9    C     C_R   0.500029 0.627262 0.061971 -0.040435
C10   C     C_R   0.499971 0.627262 0.938029 -0.040436
C11   C     C_R   0.501169 0.502481 0.129681 -0.056550
C12   C     C_R   0.498831 0.502481 0.870319 -0.056551
C13   C     C_R   0.500287 0.375442 0.063767 -0.133658
C14   C     C_R   0.499713 0.375442 0.936233 -0.133659
C15   C     C_3   0.489178 0.784706 0.928817 0.489706
C16   C     C_3   0.510822 0.784706 0.071183 0.489704
C17   C     C_R   0.063844 0.372568 0.499962 -0.151536
C18   C     C_R   0.936155 0.372568 0.500042 -0.151536
C19   C     C_R   0.871754 0.500073 0.500031 -0.022584
C20   C     C_R   0.128246 0.500073 0.499969 -0.022584
C21   C     C_R   0.936140 0.627618 0.500023 -0.120002
C22   C     C_R   0.063860 0.627618 0.499973 -0.120003
Cu1   Cu    Cu3+1 0.500000 0.640660 0.500000 1.122094
Cu2   Cu    Cu3+1 0.500000 0.359340 0.500000 0.982875
H1    H     H_    0.500579 0.275448 0.110313 0.180817
H2    H     H_    0.499421 0.275448 0.889687 0.180817
H3    H     H_    0.111750 0.272827 0.499871 0.153519
H4    H     H_    0.888250 0.272827 0.500135 0.153519
H5    H     H_    0.306495 0.128565 0.530100 0.123005
H6    H     H_    0.693505 0.128565 0.469900 0.123005
H7    H     H_    0.305982 0.871739 0.527564 0.123009
H8    H     H_    0.694018 0.871739 0.472436 0.123009
N1    N     N_R   0.500000 0.852070 0.500000 -0.141233
N2    N     N_R   0.500000 0.147940 0.500000 -0.191636
O1    O     O_R   0.319640 0.618740 0.499990 -0.577905
O2    O     O_R   0.680360 0.618740 0.500010 -0.577905
O3    O     O_R   0.319620 0.381170 0.499990 -0.608883
O4    O     O_R   0.680380 0.381170 0.500010 -0.608883
O5    O     O_R   0.499990 0.618810 0.319660 -0.496619
O6    O     O_R   0.500010 0.618810 0.680340 -0.496619
O7    O     O_R   0.499960 0.381240 0.319650 -0.604346
O8    O     O_R   0.500040 0.381240 0.680350 -0.604346
S1    S     S_3+6 0.604870 0.872276 0.835236 0.071665
O9    O     O_2   0.682912 0.976170 0.902403 -0.237957
O10   O     O_2   0.689015 0.767439 0.775473 -0.261115
O11   O     O_3   0.531907 0.964843 0.729024 -0.533848
H9    H     H_    0.523262 0.060920 0.762242 0.363062
S2    S     S_3+6 0.395130 0.872276 0.164764 0.071668
O12   O     O_2   0.317088 0.976170 0.097597 -0.237952
O13   O     O_2   0.310985 0.767439 0.224526 -0.261114
O14   O     O_3   0.468093 0.964842 0.270976 -0.533848
H10   H     H_    0.476739 0.060920 0.237757 0.363062
S3    S     S_3+6 0.333199 0.821596 0.874403 0.052421
O15   O     O_2   0.312334 0.977295 0.865569 -0.259312
O16   O     O_2   0.313063 0.760120 0.751026 -0.308291
O17   O     O_3   0.227432 0.749655 0.967745 -0.482894
H11   H     H_    0.146693 0.782153 0.936564 0.388985
S4    S     S_3+6 0.666801 0.821596 0.125597 0.052421
O18   O     O_2   0.687666 0.977295 0.134431 -0.259316
O19   O     O_2   0.686937 0.760120 0.248974 -0.308286
O20   O     O_3   0.772569 0.749654 0.032255 -0.482897
H12   H     H_    0.853306 0.782165 0.063428 0.388989
H13   H     H_    0.888199 0.727339 0.500088 0.160892
H14   H     H_    0.111801 0.727339 0.499906 0.160892

loop_
_geom_bond_atom_site_label_1
_geom_bond_atom_site_label_2
_ccdc_geom_bond_type
Cu1   N1    S    
Cu2   O4    S    
S1    O9    D    
C13   C14   A    
Cu2   O8    S    
C9    C10   A    
C2    O4    A    
C6    H8    S    
C6    N1    A    
C1    O3    A    
C8    C12   S    
C16   S2    S    
S4    O20   S    
S2    O13   D    
Cu2   O3    S    
S4    O18   D    
C15   S1    S    
S1    O10   D    
C16   S4    S    
S3    O15   D    
C14   H2    S    
C7    C11   S    
Cu2   O7    S    
C11   C13   A    
C13   H1    S    
C10   C12   A    
Cu1   O5    S    
C15   S3    S    
S2    O12   D    
C19   C21   A    
C9    C16   S    
C8    O8    A    
C17   C18   A    
Cu1   O1    S    
C10   C15   S    
S3    O16   D    
O20   H12   S    
S1    O11   S    
C4    N2    A    
C21   H13   S    
C15   C16   S    
Cu1   Cu2   S    
S4    O19   D    
Cu1   O6    S    
C17   H3    S    
C5    N1    A    
C12   C14   A    
C17   C20   A    
C18   H4    S    
O17   H11   S    
C1    O1    A    
C4    C6    A    
Cu1   O2    S    
S3    O17   S    
C2    O2    A    
C3    H5    S    
C9    C11   A    
O11   H9    S    
C18   C19   A    
C1    C20   S    
C7    O5    A    
C8    O6    A    
C3    N2    A    
C3    C5    A    
C2    C19   S    
C21   C22   A    
C22   H14   S    
S2    O14   S    
C4    H6    S    
O14   H10   S    
C7    O7    A    
C20   C22   A    
C5    H7    S    
Cu2   N2    S    
