data_mof_unit_58000.cif
_audit_creation_date              2012-12-11T17:00:23-0500
_audit_creation_method            fapswitch 2.2
_symmetry_space_group_name_H-M    P1
_symmetry_Int_Tables_number       1
_space_group_crystal_system       triclinic
_cell_length_a                    6.948323
_cell_length_b                    13.727173
_cell_length_c                    20.262047
_cell_angle_alpha                 103.305572
_cell_angle_beta                  90.635636
_cell_angle_gamma                 90.086225
_cell_volume                      1880.60076194

loop_
_atom_site_label
_atom_site_type_symbol
_atom_type_description
_atom_site_fract_x
_atom_site_fract_y
_atom_site_fract_z
_atom_type_partial_charge
O1    O     O_R   0.506770 0.599700 0.449550 -0.540852
O2    O     O_R   0.179980 0.595740 0.587960 -0.542834
O3    O     O_R   0.004580 0.400300 0.550450 -0.540885
C1    C     C_R   0.348574 0.616900 0.615392 0.698183
O4    O     O_R   0.177380 0.611700 0.452380 -0.539719
O5    O     O_R   0.001970 0.416370 0.413900 -0.538640
C2    C     C_R   0.345390 0.638985 0.436849 0.691342
O6    O     O_R   0.509390 0.583630 0.586100 -0.539607
O7    O     O_3   0.337530 0.435890 0.487530 -0.373425
V1    V     V_3+5 0.064660 0.511890 0.502310 1.406166
O8    O     O_R   0.671950 0.404260 0.412040 -0.545468
C3    C     C_R   0.839978 0.382398 0.384836 0.703847
O9    O     O_R   0.674540 0.388300 0.547620 -0.541967
C4    C     C_R   0.844392 0.362651 0.564766 0.709375
V2    V     V_3+5 0.564030 0.488110 0.497690 1.394470
O10   O     O_3   0.841030 0.564110 0.512470 -0.371720
C5    C     C_R   0.915174 0.118256 0.613564 -0.165228
H1    H     H_    0.879661 0.164287 0.520513 0.113071
H2    H     H_    0.997201 0.000133 0.696482 0.128416
H3    H     H_    0.941688 0.041215 0.587630 0.120522
C6    C     C_R   0.858156 0.289331 0.607001 -0.031359
C7    C     C_R   0.769771 0.307201 0.930187 -0.161410
C8    C     C_R   0.712945 0.375909 0.893199 -0.126728
C9    C     C_R   0.741690 0.355733 0.823511 -0.171168
C10   C     C_R   0.839504 0.268614 0.789500 0.081675
C11   C     C_R   0.885002 0.195284 0.826829 0.069899
C12   C     C_R   0.874337 0.247367 0.718171 0.061730
C13   C     C_R   0.914683 0.146797 0.684478 0.112694
C14   C     C_R   0.956694 0.075551 0.721799 -0.203979
C15   C     C_R   0.949647 0.100479 0.792071 -0.203432
C16   C     C_R   0.872028 0.321007 0.678514 0.108224
C17   C     C_R   0.879334 0.188298 0.575264 -0.226902
C18   C     C_R   0.852059 0.216140 0.897574 -0.079128
H4    H     H_    0.739617 0.322609 0.983963 0.103266
H5    H     H_    0.678146 0.407080 0.796528 0.136393
H6    H     H_    0.639785 0.443704 0.918287 0.119243
H7    H     H_    0.986333 0.042982 0.818639 0.123729
C19   C     C_R   0.726204 0.263252 0.199570 0.047290
C20   C     C_R   0.869373 0.190467 0.181698 -0.102036
C21   C     C_R   0.017602 0.190549 0.229860 -0.180390
H8    H     H_    0.135658 0.138747 0.217329 0.121603
C22   C     C_R   0.008343 0.252879 0.295858 -0.195419
H9    H     H_    0.120773 0.248118 0.332325 0.125939
C23   C     C_R   0.849611 0.316432 0.315711 -0.128131
C24   C     C_R   0.714887 0.322718 0.264969 0.115105
C25   C     C_3   0.500057 0.319642 0.263024 -0.025122
C26   C     C_3   0.513135 0.260090 0.189725 -0.397513
H10   H     H_    0.440223 0.275845 0.297696 0.142997
H11   H     H_    0.467080 0.301731 0.151240 0.174725
H12   H     H_    0.450298 0.184676 0.181928 0.156230
C27   C     C_R   0.495112 0.759519 0.702812 0.098430
C28   C     C_R   0.351793 0.686760 0.683157 -0.139576
C29   C     C_R   0.197624 0.688329 0.728311 -0.174339
H13   H     H_    0.079882 0.635888 0.714618 0.132909
C30   C     C_R   0.198708 0.753703 0.793186 -0.182302
H14   H     H_    0.083341 0.748941 0.827690 0.125366
C31   C     C_R   0.354715 0.819040 0.814969 -0.109618
C32   C     C_R   0.497537 0.823063 0.767232 0.070347
C33   C     C_3   0.711502 0.819168 0.772682 -0.394997
C34   C     C_3   0.708830 0.750137 0.701806 -0.027899
H15   H     H_    0.758197 0.780966 0.812829 0.150257
H16   H     H_    0.779000 0.893511 0.775835 0.175873
H17   H     H_    0.756818 0.672552 0.700495 0.139547
C35   C     C_R   0.350777 0.893454 0.400334 -0.164511
H18   H     H_    0.342713 0.837241 0.490592 0.102463
H19   H     H_    0.352067 0.969256 0.430574 0.133533
C36   C     C_R   0.350514 0.718590 0.400379 -0.021463
C37   C     C_R   0.317415 0.695232 0.077025 -0.166293
C38   C     C_R   0.280515 0.622966 0.112812 -0.124822
C39   C     C_R   0.286009 0.647367 0.183125 -0.145945
C40   C     C_R   0.336517 0.744987 0.220153 0.046948
C41   C     C_R   0.374557 0.820439 0.183914 0.022634
C42   C     C_R   0.347564 0.769103 0.292331 0.045535
C43   C     C_R   0.360604 0.870596 0.328563 0.074584
C44   C     C_R   0.390322 0.946341 0.292950 0.077763
C45   C     C_R   0.423025 0.918826 0.222136 0.052387
C46   C     C_R   0.346990 0.694432 0.329844 -0.200907
C47   C     C_R   0.346361 0.818015 0.435655 -0.177579
C48   C     C_R   0.360688 0.793601 0.110926 -0.058159
H20   H     H_    0.348501 0.616643 0.305581 0.100220
H21   H     H_    0.305880 0.674961 0.022143 0.099485
H22   H     H_    0.242794 0.588588 0.207081 0.111074
H23   H     H_    0.241839 0.547772 0.085826 0.117680
O11   O     O_R   0.203450 0.916320 0.913910 -0.542444
O12   O     O_R   0.535520 0.888300 0.047620 -0.544916
O13   O     O_R   0.710860 0.083650 0.086100 -0.541192
C49   C     C_R   0.368090 0.866135 0.067748 0.701134
O14   O     O_R   0.532860 0.904250 0.912040 -0.540652
O15   O     O_R   0.708190 0.099710 0.949550 -0.536097
C50   C     C_R   0.363916 0.883405 0.884542 0.704752
O16   O     O_R   0.206120 0.900260 0.050460 -0.539771
O17   O     O_3   0.375280 0.064080 0.012470 -0.372380
V3    V     V_3+5 0.648180 0.988110 0.997690 1.403559
O18   O     O_R   0.038220 0.111740 0.952370 -0.542879
C51   C     C_R   0.868287 0.138261 0.936055 0.690054
O19   O     O_R   0.040880 0.095790 0.087940 -0.546049
C52   C     C_R   0.872991 0.118864 0.114624 0.699072
V4    V     V_3+5 0.148800 0.011950 0.002300 1.404900
O20   O     O_3   0.871820 0.935920 0.987530 -0.371278
C53   C     C_3   0.409267 0.422148 0.270663 -0.767884
H24   H     H_    0.255231 0.413666 0.255192 0.217535
H25   H     H_    0.418464 0.462216 0.324738 0.216156
H26   H     H_    0.484412 0.466279 0.239020 0.206851
C54   C     C_3   0.799415 0.796131 0.647447 -0.740155
H27   H     H_    0.739858 0.871679 0.648796 0.202744
H28   H     H_    0.957514 0.802580 0.655650 0.213320
H29   H     H_    0.770117 0.747413 0.596530 0.224718
C55   C     C_3   0.380333 0.056407 0.329919 -0.359295
C56   C     C_3   0.565433 0.094081 0.370308 -0.354320
C57   C     C_3   0.524343 0.185437 0.427151 -0.705982
H30   H     H_    0.440944 0.241956 0.407693 0.230275
H31   H     H_    0.441422 0.163237 0.467934 0.215756
H32   H     H_    0.662214 0.219808 0.448626 0.202602
H33   H     H_    0.631120 0.035196 0.392713 0.203612
H34   H     H_    0.673945 0.115297 0.336305 0.197865
H35   H     H_    0.252355 0.067694 0.363249 0.166740
H36   H     H_    0.351230 0.104441 0.294054 0.160160
C58   C     C_3   0.533066 0.990122 0.190248 -0.732948
H37   H     H_    0.655921 0.950088 0.161864 0.217019
H38   H     H_    0.435068 0.022265 0.157657 0.197442
H39   H     H_    0.601724 0.052412 0.227175 0.194265
C59   C     C_3   0.919504 0.430244 0.708859 -0.836786
H40   H     H_    0.035229 0.455698 0.679446 0.213539
H41   H     H_    0.790449 0.477473 0.707715 0.193346
H42   H     H_    0.979947 0.442924 0.760985 0.215915

loop_
_geom_bond_atom_site_label_1
_geom_bond_atom_site_label_2
_ccdc_geom_bond_type
C30   H14   S    
C49   O16   A    
C42   C43   A    
C36   C46   A    
C41   C45   A    
C48   C49   S    
O17   V4    S    
C26   H11   S    
C29   H13   S    
C23   C24   A    
C6    C16   A    
O11   C50   A    
C1    C28   S    
C34   H17   S    
C37   H21   S    
C4    C6    S    
C13   C14   A    
C41   C48   A    
O5    C3    A    
C19   C20   A    
C20   C52   S    
O18   V4    S    
V2    O10   S    
V4    O20   S    
C5    H3    S    
C55   C56   S    
O13   C52   A    
C58   H37   S    
O17   V3    S    
C19   C24   A    
C57   H30   S    
O12   V3    S    
C37   C38   A    
O19   V4    S    
C8    C9    A    
C39   C40   A    
O1    V2    S    
O7    V1    S    
V3    O20   S    
C1    O6    A    
C37   C48   A    
C21   C22   A    
C33   C34   S    
O9    C4    A    
O15   V3    S    
O18   C51   A    
C36   C47   A    
C22   C23   A    
C18   C51   S    
C54   H28   S    
C54   H27   S    
C26   H12   S    
C58   H38   S    
C29   C30   A    
C7    H4    S    
C6    C17   A    
C25   H10   S    
C33   H15   S    
C9    H5    S    
C43   C44   A    
O12   C49   A    
C12   C16   A    
C27   C28   A    
C9    C10   A    
C31   C50   S    
C20   C21   A    
C40   C42   A    
O14   V3    S    
C10   C11   A    
C24   C25   S    
C53   H26   S    
C45   C58   S    
C15   H7    S    
C58   H39   S    
C35   H19   S    
O15   C51   A    
O2    C1    A    
C44   C45   A    
C14   C15   A    
C38   H23   S    
O13   V3    S    
C11   C18   A    
O19   C52   A    
C53   H25   S    
C27   C32   A    
C57   H32   S    
C19   C26   S    
O3    C4    A    
C56   H33   S    
C21   H8    S    
O14   C50   A    
C11   C15   A    
O6    V2    S    
O8    V2    S    
O9    V2    S    
H1    C17   S    
C22   H9    S    
C59   H41   S    
O2    V1    S    
C28   C29   A    
O4    C2    A    
C46   H20   S    
C7    C18   A    
C25   C53   S    
C25   C26   S    
C33   H16   S    
C42   C46   A    
H18   C47   S    
O1    C2    A    
C5    C13   A    
C35   C47   A    
C55   H36   S    
C16   C59   S    
O5    V1    S    
O8    C3    A    
C10   C12   A    
O11   V4    S    
C55   H35   S    
C59   H42   S    
C30   C31   A    
C32   C33   S    
O4    V1    S    
C3    C23   S    
O3    V1    S    
V1    O10   S    
C56   C57   S    
C31   C32   A    
C53   H24   S    
O16   V4    S    
O7    V2    S    
C38   C39   A    
C39   H22   S    
C57   H31   S    
C56   H34   S    
C2    C36   S    
C44   C55   S    
C40   C41   A    
C8    H6    S    
C12   C13   A    
C5    C17   A    
C35   C43   A    
C7    C8    A    
C27   C34   S    
C59   H40   S    
C34   C54   S    
C54   H29   S    
H2    C14   S    
