data_mof_unit_66427.cif
_audit_creation_date              2013-03-05T16:36:54-0500
_audit_creation_method            fapswitch 2.2
_symmetry_space_group_name_H-M    P1
_symmetry_Int_Tables_number       1
_space_group_crystal_system       triclinic
_cell_length_a                    36.238857
_cell_length_b                    25.692348
_cell_length_c                    25.679964
_cell_angle_alpha                 90.002384
_cell_angle_beta                  89.997417
_cell_angle_gamma                 89.97815
_cell_volume                      23909.6195284

loop_
_atom_site_label
_atom_site_type_symbol
_atom_site_description
_atom_site_fract_x
_atom_site_fract_y
_atom_site_fract_z
_atom_type_partial_charge
Zn1   Zn    Zn3+2 0.719300 0.249980 0.438970 1.008007
Zn2   Zn    Zn3+2 0.280700 0.249980 0.438970 1.004856
Zn3   Zn    Zn3+2 0.280700 0.249980 0.561030 1.006421
Zn4   Zn    Zn3+2 0.719300 0.249980 0.561030 1.003841
Zn5   Zn    Zn3+2 0.219300 0.749980 0.938970 1.007570
Zn6   Zn    Zn3+2 0.780700 0.749980 0.938970 1.004703
Zn7   Zn    Zn3+2 0.780700 0.749980 0.061030 1.006465
Zn8   Zn    Zn3+2 0.219300 0.749980 0.061030 1.004234
Zn9   Zn    Zn3+2 0.780720 0.311020 0.500000 0.985208
Zn10  Zn    Zn3+2 0.219280 0.311020 0.500000 0.979602
Zn11  Zn    Zn3+2 0.280720 0.811020 0.000000 0.984916
Zn12  Zn    Zn3+2 0.719280 0.811020 0.000000 0.979239
Zn13  Zn    Zn3+2 0.780730 0.188950 0.500000 1.005317
Zn14  Zn    Zn3+2 0.219270 0.188950 0.500000 1.006572
Zn15  Zn    Zn3+2 0.280730 0.688950 0.000000 1.005515
Zn16  Zn    Zn3+2 0.719270 0.688950 0.000000 1.006779
O1    O     O_3   0.750020 0.249980 0.500000 -0.493170
O2    O     O_3   0.249980 0.249980 0.500000 -0.492351
O3    O     O_3   0.250020 0.749980 0.000000 -0.493106
O4    O     O_3   0.749980 0.749980 0.000000 -0.492265
O5    O     O_R   0.728520 0.310110 0.602800 -0.633734
O6    O     O_R   0.271480 0.310110 0.602800 -0.633191
O7    O     O_R   0.271480 0.310110 0.397200 -0.634632
O8    O     O_R   0.728520 0.310110 0.397200 -0.634248
O9    O     O_R   0.228520 0.810110 0.102800 -0.633607
O10   O     O_R   0.771480 0.810110 0.102800 -0.633269
O11   O     O_R   0.771480 0.810110 0.897200 -0.634646
O12   O     O_R   0.228520 0.810110 0.897200 -0.634413
O13   O     O_R   0.728520 0.189860 0.397190 -0.620571
O14   O     O_R   0.271480 0.189860 0.397190 -0.621886
O15   O     O_R   0.271480 0.189860 0.602810 -0.621703
O16   O     O_R   0.728520 0.189860 0.602810 -0.621525
O17   O     O_R   0.228520 0.689860 0.897190 -0.620992
O18   O     O_R   0.771480 0.689860 0.897190 -0.622052
O19   O     O_R   0.771480 0.689860 0.102810 -0.621820
O20   O     O_R   0.228520 0.689860 0.102810 -0.621316
O21   O     O_R   0.771490 0.352810 0.439870 -0.631937
O22   O     O_R   0.228510 0.352810 0.439870 -0.632722
O23   O     O_R   0.228510 0.352810 0.560130 -0.637345
O24   O     O_R   0.771490 0.352810 0.560130 -0.635603
O25   O     O_R   0.271490 0.852810 0.939870 -0.632060
O26   O     O_R   0.728510 0.852810 0.939870 -0.632914
O27   O     O_R   0.728510 0.852810 0.060130 -0.637385
O28   O     O_R   0.271490 0.852810 0.060130 -0.635662
O29   O     O_R   0.771530 0.147160 0.560090 -0.633578
O30   O     O_R   0.228470 0.147160 0.560090 -0.632943
O31   O     O_R   0.228470 0.147160 0.439910 -0.633492
O32   O     O_R   0.771530 0.147160 0.439910 -0.634113
O33   O     O_R   0.271530 0.647160 0.060090 -0.633535
O34   O     O_R   0.728470 0.647160 0.060090 -0.632750
O35   O     O_R   0.728470 0.647160 0.939910 -0.633505
O36   O     O_R   0.271530 0.647160 0.939910 -0.634021
O37   O     O_R   0.832000 0.292700 0.500000 -0.639480
O38   O     O_R   0.168000 0.292700 0.500000 -0.646482
O39   O     O_R   0.332000 0.792700 0.000000 -0.639967
O40   O     O_R   0.668000 0.792700 0.000000 -0.646919
O41   O     O_R   0.668030 0.249990 0.542720 -0.631075
O42   O     O_R   0.331970 0.249990 0.542720 -0.626435
O43   O     O_R   0.331970 0.249990 0.457280 -0.631035
O44   O     O_R   0.668030 0.249990 0.457280 -0.626397
O45   O     O_R   0.168030 0.749990 0.042720 -0.631061
O46   O     O_R   0.831970 0.749990 0.042720 -0.626484
O47   O     O_R   0.831970 0.749990 0.957280 -0.631043
O48   O     O_R   0.168030 0.749990 0.957280 -0.626463
O49   O     O_R   0.832010 0.207260 0.500000 -0.622619
O50   O     O_R   0.167990 0.207260 0.500000 -0.619659
O51   O     O_R   0.332010 0.707260 0.000000 -0.622545
O52   O     O_R   0.667990 0.707260 0.000000 -0.619612
C1    C     C_R   0.750003 0.349055 0.599084 0.822103
C2    C     C_R   0.249989 0.349060 0.599084 0.821726
C3    C     C_R   0.250000 0.349069 0.400921 0.825389
C4    C     C_R   0.749998 0.349061 0.400919 0.824303
C5    C     C_R   0.250003 0.849056 0.099084 0.822306
C6    C     C_R   0.749989 0.849061 0.099084 0.821996
C7    C     C_R   0.750000 0.849068 0.900921 0.825314
C8    C     C_R   0.249998 0.849061 0.900919 0.824297
C9    C     C_R   0.750020 0.150911 0.400951 0.832060
C10   C     C_R   0.249983 0.150919 0.400946 0.831826
C11   C     C_R   0.249977 0.150923 0.599055 0.831218
C12   C     C_R   0.750026 0.150915 0.599054 0.830978
C13   C     C_R   0.250021 0.650911 0.900950 0.832114
C14   C     C_R   0.749983 0.650919 0.900946 0.831843
C15   C     C_R   0.749977 0.650924 0.099055 0.831445
C16   C     C_R   0.250025 0.650915 0.099053 0.831119
C17   C     C_R   0.849554 0.249971 0.499891 0.820556
C18   C     C_R   0.150444 0.250017 0.499892 0.823312
C19   C     C_R   0.349554 0.749972 0.999893 0.820865
C20   C     C_R   0.650445 0.750019 0.999893 0.823519
C21   C     C_R   0.650336 0.250025 0.499999 0.832414
C22   C     C_R   0.349663 0.250026 0.500000 0.833056
C23   C     C_R   0.150336 0.750024 0.999999 0.832464
C24   C     C_R   0.849663 0.750026 0.000000 0.833143
C25   C     C_3   0.521745 0.215847 0.548245 0.019696
C26   C     C_3   0.478730 0.221462 0.551571 0.026816
C27   C     C_3   0.478271 0.216819 0.451095 0.019553
C28   C     C_3   0.521283 0.222498 0.447882 0.026671
C29   C     C_3   0.021745 0.715714 0.048157 0.019669
C30   C     C_3   0.978730 0.721320 0.051497 0.026799
C31   C     C_3   0.978271 0.716941 0.951009 0.019554
C32   C     C_3   0.021283 0.722625 0.947812 0.026587
H1    H     H_    0.526702 0.251973 0.416982 0.118917
H2    H     H_    0.466602 0.236455 0.416100 0.116868
H3    H     H_    0.473297 0.250313 0.583057 0.118797
H4    H     H_    0.533405 0.234776 0.583627 0.117211
H5    H     H_    0.026703 0.752180 0.916989 0.118746
H6    H     H_    0.966603 0.736669 0.916066 0.116713
H7    H     H_    0.973296 0.750089 0.083059 0.118827
H8    H     H_    0.033404 0.734552 0.083588 0.117292
C33   C     C_1   0.389277 0.249165 0.500020 -0.097278
C34   C     C_1   0.610723 0.249163 0.499974 -0.097004
C35   C     C_1   0.889277 0.749162 0.000019 -0.097336
C36   C     C_1   0.110723 0.749159 0.999973 -0.097043
C37   C     C_3   0.536693 0.246101 0.499686 0.129177
C38   C     C_3   0.463307 0.246097 0.500252 0.129093
C39   C     C_3   0.036694 0.746095 0.999677 0.129241
C40   C     C_3   0.963307 0.746090 0.000243 0.129118
C41   C     C_3   0.478610 0.302693 0.497963 -0.517161
C42   C     C_3   0.521361 0.302641 0.503112 -0.517252
C43   C     C_3   0.978610 0.802692 0.998102 -0.517189
C44   C     C_3   0.021362 0.802625 0.003251 -0.517234
C45   C     C_1   0.422566 0.247974 0.500126 -0.012754
C46   C     C_1   0.577435 0.247974 0.499849 -0.012571
C47   C     C_1   0.922566 0.747969 0.000122 -0.012812
C48   C     C_1   0.077434 0.747968 0.999845 -0.012592
H9    H     H_    0.529371 0.320537 0.540939 0.200981
H10   H     H_    0.466518 0.326791 0.529705 0.203537
H11   H     H_    0.470591 0.321342 0.460504 0.201019
H12   H     H_    0.533440 0.327369 0.471862 0.203554
H13   H     H_    0.029371 0.820423 0.041124 0.201035
H14   H     H_    0.966519 0.826707 0.029907 0.203571
H15   H     H_    0.970591 0.821439 0.960692 0.200936
H16   H     H_    0.033440 0.827434 0.972064 0.203480
C49   C     C_R   0.215982 0.482710 0.728283 -0.200363
C50   C     C_R   0.783815 0.484391 0.726539 -0.199220
C51   C     C_R   0.783888 0.483282 0.272318 -0.195566
C52   C     C_R   0.217550 0.490406 0.279411 -0.195149
C53   C     C_R   0.716200 0.984790 0.226203 -0.200312
C54   C     C_R   0.283679 0.985337 0.225593 -0.199117
C55   C     C_R   0.283857 0.983614 0.772651 -0.195737
C56   C     C_R   0.717172 0.989119 0.778123 -0.195317
H17   H     H_    0.190213 0.469612 0.711379 0.164650
H18   H     H_    0.809452 0.472557 0.708326 0.165150
H19   H     H_    0.809622 0.470572 0.289637 0.169753
H20   H     H_    0.192887 0.483108 0.302114 0.169845
H21   H     H_    0.690598 0.973283 0.207708 0.164858
H22   H     H_    0.309216 0.974221 0.206662 0.165249
H23   H     H_    0.309567 0.971158 0.790223 0.169647
H24   H     H_    0.692225 0.980846 0.799851 0.169703
C57   C     C_R   0.249456 0.461145 0.711598 0.120426
C58   C     C_R   0.750505 0.461177 0.711560 0.119954
C59   C     C_R   0.750458 0.461204 0.288452 0.117801
C60   C     C_R   0.249587 0.461309 0.288560 0.117272
C61   C     C_R   0.749459 0.961162 0.211581 0.120144
C62   C     C_R   0.250499 0.961190 0.211547 0.119785
C63   C     C_R   0.250458 0.961208 0.788456 0.117887
C64   C     C_R   0.749579 0.961290 0.788541 0.117501
C65   C     C_R   0.282676 0.478186 0.733551 -0.163918
C66   C     C_R   0.717456 0.476590 0.735198 -0.164214
C67   C     C_R   0.717284 0.477751 0.265962 -0.164521
C68   C     C_R   0.281380 0.470874 0.259126 -0.164742
C69   C     C_R   0.782462 0.976150 0.235587 -0.163941
C70   C     C_R   0.217579 0.975677 0.236111 -0.164115
C71   C     C_R   0.217315 0.977428 0.765639 -0.164647
C72   C     C_R   0.781739 0.972112 0.760365 -0.164857
H25   H     H_    0.308722 0.461756 0.720921 0.153110
H26   H     H_    0.691536 0.458877 0.723896 0.153255
H27   H     H_    0.691271 0.460925 0.278160 0.153709
H28   H     H_    0.306309 0.448580 0.265887 0.154659
H29   H     H_    0.808340 0.958112 0.224565 0.153504
H30   H     H_    0.191760 0.957237 0.225536 0.153507
H31   H     H_    0.191327 0.960347 0.777582 0.153643
H32   H     H_    0.806955 0.950805 0.768112 0.154338
C73   C     C_R   0.782239 0.014642 0.274044 -0.203968
C74   C     C_R   0.217811 0.014181 0.274558 -0.203743
C75   C     C_R   0.217543 0.015921 0.727181 -0.202512
C76   C     C_R   0.781521 0.010634 0.721934 -0.202647
C77   C     C_R   0.282451 0.516664 0.772021 -0.204088
C78   C     C_R   0.717689 0.515088 0.773650 -0.203883
C79   C     C_R   0.717513 0.516241 0.227502 -0.202273
C80   C     C_R   0.281165 0.509404 0.220704 -0.202344
H33   H     H_    0.807990 0.025894 0.292292 0.160569
H34   H     H_    0.192126 0.025040 0.293245 0.160641
H35   H     H_    0.191686 0.028128 0.709856 0.161490
H36   H     H_    0.806613 0.018633 0.700427 0.162147
H37   H     H_    0.308369 0.529516 0.788668 0.160155
H38   H     H_    0.691904 0.526669 0.791614 0.160373
H39   H     H_    0.691631 0.528704 0.210431 0.161647
H40   H     H_    0.305971 0.516423 0.198214 0.162496
C81   C     C_R   0.749028 0.038424 0.288784 0.094152
C82   C     C_R   0.250947 0.038476 0.288727 0.094611
C83   C     C_R   0.250899 0.038471 0.711255 0.092375
C84   C     C_R   0.749157 0.038603 0.711391 0.092785
C85   C     C_R   0.249022 0.538383 0.788825 0.094346
C86   C     C_R   0.750955 0.538452 0.788752 0.094742
C87   C     C_R   0.750900 0.538464 0.211247 0.092261
C88   C     C_R   0.249170 0.538639 0.211427 0.092635
C89   C     C_R   0.715800 0.023378 0.264718 0.175498
C90   C     C_R   0.284088 0.023938 0.264093 0.175574
C91   C     C_R   0.284263 0.022195 0.734131 0.174682
C92   C     C_R   0.716781 0.027751 0.739660 0.175259
C93   C     C_R   0.215579 0.521276 0.766821 0.175423
C94   C     C_R   0.784225 0.522982 0.765049 0.175542
C95   C     C_R   0.784295 0.521859 0.233795 0.174660
C96   C     C_R   0.217162 0.529053 0.240962 0.175336
C97   C     C_1   0.249703 0.421577 0.671923 -0.045783
C98   C     C_1   0.750254 0.421588 0.671906 -0.045484
C99   C     C_1   0.750219 0.421612 0.328108 -0.041986
C100  C     C_1   0.249813 0.421674 0.328171 -0.042522
C101  C     C_1   0.749707 0.921585 0.171914 -0.045759
C102  C     C_1   0.250249 0.921595 0.171899 -0.045356
C103  C     C_1   0.250219 0.921614 0.828110 -0.042208
C104  C     C_1   0.749807 0.921665 0.828161 -0.042702
C105  C     C_1   0.749518 0.078085 0.328437 -0.010555
C106  C     C_1   0.250471 0.078126 0.328395 -0.010412
C107  C     C_1   0.250428 0.078134 0.671603 -0.010700
C108  C     C_1   0.749621 0.078187 0.671661 -0.010507
C109  C     C_1   0.249512 0.578067 0.828456 -0.010690
C110  C     C_1   0.750478 0.578114 0.828407 -0.010513
C111  C     C_1   0.750428 0.578131 0.171600 -0.010561
C112  C     C_1   0.249630 0.578204 0.171678 -0.010241
C113  C     C_1   0.749843 0.111318 0.361580 -0.099741
C114  C     C_1   0.250157 0.111345 0.361553 -0.100301
C115  C     C_1   0.250131 0.111358 0.638453 -0.099441
C116  C     C_1   0.749899 0.111366 0.638467 -0.100074
C117  C     C_1   0.249839 0.611312 0.861585 -0.099931
C118  C     C_1   0.750161 0.611341 0.861558 -0.100405
C119  C     C_1   0.750132 0.611357 0.138452 -0.099320
C120  C     C_1   0.249904 0.611372 0.138472 -0.099801
C121  C     C_1   0.249872 0.388453 0.638670 -0.130511
C122  C     C_1   0.750097 0.388452 0.638666 -0.128940
C123  C     C_1   0.750076 0.388471 0.361345 -0.125416
C124  C     C_1   0.249937 0.388505 0.361378 -0.126687
C125  C     C_1   0.749874 0.888457 0.138667 -0.130531
C126  C     C_1   0.250094 0.888456 0.138663 -0.128835
C127  C     C_1   0.250076 0.888471 0.861345 -0.125673
C128  C     C_1   0.749934 0.888501 0.861374 -0.126896
C129  C     C_R   0.018969 0.299955 0.505946 0.392242
C130  C     C_R   0.980149 0.298530 0.502613 0.397382
C131  C     C_R   0.518971 0.800023 0.004044 0.392200
C132  C     C_R   0.480151 0.798483 0.000773 0.397399
C133  C     C_R   0.038612 0.252531 0.511566 -0.160185
C134  C     C_R   0.961512 0.251001 0.508899 -0.148554
C135  C     C_R   0.538611 0.752836 0.011398 -0.160180
C136  C     C_R   0.461512 0.751221 0.008807 -0.148563
C137  C     C_R   0.019672 0.205447 0.520108 0.112281
C138  C     C_R   0.980889 0.204832 0.519478 0.099561
C139  C     C_R   0.519669 0.706098 0.021662 0.112365
C140  C     C_R   0.480886 0.705465 0.021063 0.099669
C141  C     C_1   0.078083 0.251354 0.506322 0.080380
C142  C     C_1   0.921973 0.250212 0.504686 0.110359
C143  C     C_1   0.578082 0.751476 0.006216 0.080342
C144  C     C_1   0.421972 0.750293 0.004647 0.110312
C145  C     C_1   0.888884 0.249977 0.501958 -0.123691
C146  C     C_1   0.111139 0.250316 0.502707 -0.132232
C147  C     C_1   0.388884 0.749992 0.001945 -0.123804
C148  C     C_1   0.611139 0.750340 0.002661 -0.132376
I1    I     I_    0.447984 0.156588 0.584164 -0.200207
I2    I     I_    0.543351 0.137473 0.555421 -0.174058
I3    I     I_    0.552062 0.158287 0.413989 -0.205277
I4    I     I_    0.456703 0.138607 0.442339 -0.175840
I5    I     I_    0.947983 0.656360 0.083918 -0.199975
I6    I     I_    0.043350 0.637322 0.055130 -0.174192
I7    I     I_    0.052062 0.658500 0.913755 -0.205148
I8    I     I_    0.956701 0.638753 0.942046 -0.175372
I9    I     I_    0.664429 0.057481 0.284904 -0.294474
I10   I     I_    0.335342 0.058829 0.283383 -0.302863
I11   I     I_    0.335851 0.054411 0.712115 -0.281065
I12   I     I_    0.666719 0.068323 0.725961 -0.292869
I13   I     I_    0.163875 0.552203 0.790183 -0.294133
I14   I     I_    0.835679 0.556436 0.785777 -0.302580
I15   I     I_    0.835931 0.553567 0.211272 -0.280599
I16   I     I_    0.167670 0.571579 0.229221 -0.293268
O53   O     O_3   0.960252 0.341506 0.485424 -0.598175
C149  C     C_3   0.957192 0.380030 0.524615 0.137917
H41   H     H_    0.944632 0.414905 0.506174 0.181553
H42   H     H_    0.984421 0.393003 0.539018 0.159820
C150  C     C_3   0.932046 0.363060 0.569721 -0.447914
H43   H     H_    0.904556 0.351947 0.554130 0.251517
H44   H     H_    0.944180 0.328928 0.590037 0.215127
C151  C     C_3   0.927121 0.406862 0.609234 -0.888029
H45   H     H_    0.954239 0.418183 0.625923 0.264730
H46   H     H_    0.908923 0.393478 0.641339 0.273913
H47   H     H_    0.914222 0.441309 0.590457 0.270604
O54   O     O_3   0.036447 0.347397 0.497439 -0.617424
C152  C     C_3   0.061108 0.362670 0.537955 0.088615
H48   H     H_    0.063626 0.405683 0.535382 0.180766
H49   H     H_    0.089250 0.347790 0.530104 0.165863
C153  C     C_3   0.049204 0.349339 0.594338 -0.467924
H50   H     H_    0.020873 0.363539 0.602161 0.222597
H51   H     H_    0.049687 0.306616 0.600670 0.228657
C154  C     C_3   0.075306 0.374062 0.633867 -0.866772
H52   H     H_    0.103935 0.359875 0.627647 0.261318
H53   H     H_    0.066521 0.363407 0.673898 0.273161
H54   H     H_    0.074773 0.417138 0.630227 0.267017
O55   O     O_3   0.460252 0.840803 0.982029 -0.598389
C155  C     C_3   0.457213 0.880749 0.019773 0.137355
H55   H     H_    0.444603 0.914897 0.000083 0.181526
H56   H     H_    0.484452 0.894288 0.033606 0.160067
C156  C     C_3   0.432139 0.865435 0.065549 -0.447600
H57   H     H_    0.404635 0.853720 0.050459 0.251923
H58   H     H_    0.444321 0.832094 0.087087 0.215156
C157  C     C_3   0.427240 0.910667 0.103420 -0.887708
H59   H     H_    0.454374 0.922631 0.119602 0.264541
H60   H     H_    0.409095 0.898463 0.136052 0.274176
H61   H     H_    0.414294 0.944378 0.083412 0.270503
O56   O     O_3   0.536454 0.847116 0.993799 -0.617598
C158  C     C_3   0.561096 0.863877 0.033745 0.088304
H62   H     H_    0.563606 0.906767 0.029595 0.180701
H63   H     H_    0.589243 0.848731 0.026466 0.166194
C159  C     C_3   0.549175 0.852619 0.090573 -0.467856
H64   H     H_    0.520836 0.867078 0.097847 0.222584
H65   H     H_    0.549669 0.810158 0.098470 0.228739
C160  C     C_3   0.575254 0.878793 0.129185 -0.866071
H66   H     H_    0.603890 0.864404 0.123513 0.261748
H67   H     H_    0.566455 0.869614 0.169574 0.273222
H68   H     H_    0.574710 0.921706 0.123961 0.266794
I17   I     I_    0.050236 0.135185 0.532706 -0.264919
I18   I     I_    0.950951 0.134140 0.532087 -0.267861
I19   I     I_    0.550231 0.636343 0.036822 -0.265098
I20   I     I_    0.450944 0.635289 0.036265 -0.267946

loop_
_geom_bond_atom_site_label_1
_geom_bond_atom_site_label_2
_geom_bond_distance
_ccdc_geom_bond_type
C4    C123  1.434606 S    
C154  H52   1.111053 S    
C79   C87   1.401654 A    
C66   H26   1.083493 S    
O26   C7    1.271209 A    
C77   C85   1.401617 A    
C133  C137  1.408287 A    
O54   C152  1.426721 S    
C36   C48   1.206738 T    
O30   C11   1.272081 A    
C26   I1    2.172918 S    
C87   C95   1.407669 A    
C132  C136  1.404965 A    
C43   H14   1.113320 S    
C85   C93   1.407736 A    
C149  H41   1.110864 S    
Zn12  O26   1.910343 S    
C106  C114  1.205626 T    
C37   C46   1.477219 S    
C88   C96   1.407653 A    
C41   H10   1.113316 S    
C80   C88   1.401659 A    
C27   H2    1.113917 S    
C54   C62   1.400507 A    
C142  C145  1.201162 T    
C137  C138  1.405633 A    
C32   C39   1.565141 S    
O11   C7    1.271352 A    
C52   C60   1.400487 A    
O34   C15   1.272079 A    
C49   C93   1.400468 A    
C159  H65   1.109762 S    
C153  C154  1.526146 S    
C133  C141  1.436998 S    
Zn1   O44   1.916520 S    
C31   C40   1.566209 S    
Zn2   O43   1.916562 S    
C51   C95   1.400462 A    
Zn5   O48   1.916520 S    
C61   C69   1.399703 A    
Zn6   O47   1.916562 S    
C108  C116  1.205611 T    
Zn7   O46   1.916520 S    
O16   C12   1.271708 A    
Zn16  O4    1.923149 S    
Zn12  O4    1.922455 S    
Zn1   O13   1.909991 S    
O56   C158  1.426732 S    
C53   C61   1.400540 A    
Zn3   O15   1.910269 S    
C5    C126  1.434458 S    
Zn4   O16   1.910080 S    
C56   C64   1.400492 A    
C155  H55   1.110861 S    
C53   C89   1.400455 A    
C75   H35   1.083602 S    
C81   C89   1.407730 A    
C76   H36   1.083612 S    
C24   C35   1.435711 S    
Zn10  O22   1.910343 S    
C66   C78   1.397639 A    
C62   C102  1.439284 S    
O25   C8    1.271421 A    
Zn13  O29   1.909321 S    
C33   C45   1.206731 T    
C143  C148  1.201742 T    
Zn10  O2    1.922455 S    
C28   I3    2.172919 S    
C103  C127  1.205652 T    
O29   C12   1.271859 A    
Zn15  O33   1.909321 S    
C56   C92   1.400384 A    
C78   H38   1.083606 S    
C152  H49   1.107484 S    
C131  C135  1.418240 A    
O48   C23   1.270641 A    
C59   C99   1.439424 S    
C110  C118  1.205627 T    
C59   C67   1.399735 A    
C23   C36   1.435729 S    
C40   C47   1.477203 S    
C97   C121  1.205562 T    
Zn16  O35   1.909107 S    
C71   C75   1.397691 A    
C74   H34   1.083613 S    
C87   C111  1.440705 S    
C29   C30   1.567737 S    
C85   C109  1.440669 S    
C14   C118  1.434256 S    
Zn7   O10   1.910054 S    
O33   C16   1.271859 A    
C154  H53   1.110466 S    
C160  H67   1.110463 S    
C68   C80   1.397727 A    
C155  C156  1.537058 S    
C31   C32   1.567744 S    
C67   H27   1.083490 S    
Zn5   O17   1.909991 S    
C43   H15   1.113263 S    
C130  O53   1.390478 S    
C69   H29   1.083504 S    
C84   C92   1.407653 A    
C150  H43   1.111079 S    
C98   C122  1.205565 T    
C104  C128  1.205614 T    
C27   I4    2.168065 S    
C157  H60   1.110420 S    
Zn8   O3    1.922356 S    
C135  C143  1.436974 S    
C44   H13   1.113261 S    
C7    C128  1.434541 S    
C151  H45   1.110998 S    
C58   C98   1.439284 S    
C65   H25   1.083501 S    
O38   C18   1.268019 A    
C63   C71   1.399736 A    
C132  O55   1.390485 S    
C21   C34   1.435724 S    
O5    C1    1.271608 A    
C153  H51   1.109762 S    
O32   C9    1.271950 A    
C82   C106  1.440713 S    
C55   C63   1.400553 A    
Zn15  O51   1.917124 S    
Zn11  O28   1.910126 S    
C93   I13   2.121490 S    
C81   C105  1.440668 S    
C10   C114  1.434254 S    
C144  C147  1.201134 T    
C96   I16   2.121329 S    
C139  I19   2.142111 S    
C140  I20   2.140584 S    
C72   H32   1.083492 S    
C29   C39   1.566208 S    
O8    C4    1.271619 A    
Zn9   O1    1.923147 S    
C31   H6    1.113920 S    
C62   C70   1.399711 A    
O50   C18   1.269068 A    
C131  O56   1.391094 S    
O37   C17   1.268588 A    
C11   C115  1.434232 S    
C18   C146  1.426241 S    
Zn1   O1    1.922440 S    
Zn13  O1    1.922457 S    
Zn2   O14   1.910214 S    
C158  C159  1.549190 S    
C2    C121  1.434456 S    
C41   C42   1.554907 S    
C54   H22   1.083523 S    
C19   C147  1.426250 S    
C149  H42   1.105374 S    
O39   C19   1.268557 A    
O36   C13   1.271952 A    
C156  C157  1.525655 S    
C38   C41   1.557548 S    
C92   I12   2.121346 S    
O13   C9    1.271693 A    
Zn1   O8    1.910332 S    
C150  C151  1.525659 S    
Zn2   O7    1.910143 S    
Zn3   O6    1.910054 S    
O18   C14   1.271904 A    
C22   C33   1.435710 S    
O6    C2    1.271421 A    
C109  C117  1.205599 T    
C149  C150  1.537032 S    
C131  C132  1.409846 A    
C151  H47   1.110856 S    
Zn14  O30   1.909202 S    
C68   H28   1.083489 S    
Zn15  O3    1.922457 S    
C78   C86   1.401638 A    
Zn11  O3    1.923147 S    
C134  C138  1.404759 A    
O41   C21   1.270728 A    
C53   H21   1.083522 S    
Zn16  O34   1.909202 S    
C79   H39   1.083603 S    
C27   C38   1.566206 S    
C86   C94   1.407723 A    
C77   H37   1.083604 S    
C112  C120  1.205610 T    
Zn8   O20   1.910080 S    
C129  O54   1.391117 S    
C80   H40   1.083613 S    
C83   C107  1.440705 S    
O22   C3    1.271210 A    
C38   C45   1.477205 S    
C105  C113  1.205597 T    
C42   H9    1.113262 S    
C71   H31   1.083492 S    
C155  H56   1.105369 S    
C73   H33   1.083612 S    
C141  C146  1.201778 T    
C28   H1    1.114372 S    
Zn8   O9    1.910277 S    
C60   C100  1.439367 S    
C35   C47   1.206732 T    
C158  H62   1.110856 S    
C134  C142  1.437098 S    
O7    C3    1.271352 A    
C95   I15   2.121512 S    
C20   C148  1.426209 S    
C57   C97   1.439286 S    
O55   C155  1.415861 S    
O19   C15   1.271943 A    
C15   C119  1.434236 S    
Zn9   O24   1.910126 S    
C30   H7    1.114372 S    
Zn6   O18   1.910214 S    
Zn10  O23   1.910293 S    
C156  H57   1.111076 S    
C152  H48   1.110862 S    
C12   C116  1.434221 S    
C69   C73   1.397608 A    
C70   H30   1.083496 S    
C32   I7    2.172934 S    
C83   C91   1.407669 A    
C25   C37   1.566206 S    
Zn15  O36   1.909275 S    
C6    C125  1.434456 S    
O49   C17   1.268446 A    
C41   H11   1.113263 S    
C137  I17   2.142126 S    
C29   I6    2.168040 S    
C74   C82   1.401638 A    
Zn4   O1    1.922356 S    
C31   I8    2.168072 S    
C135  C139  1.408274 A    
C28   C37   1.565136 S    
Zn9   O37   1.916839 S    
O12   C8    1.271621 A    
Zn11  O39   1.916839 S    
C82   C90   1.407722 A    
C159  H64   1.107838 S    
C39   C48   1.477217 S    
C58   C66   1.399710 A    
O51   C19   1.268455 A    
C67   C79   1.397693 A    
C43   C44   1.554902 S    
Zn5   O3    1.922440 S    
C129  C133  1.418268 A    
C152  C153  1.549184 S    
Zn6   O4    1.922358 S    
C49   H17   1.083516 S    
C94   I14   2.121352 S    
C52   H20   1.083484 S    
C34   C46   1.206736 T    
C61   C101  1.439284 S    
C160  H66   1.111054 S    
C51   C59   1.400555 A    
C72   C76   1.397719 A    
C102  C126  1.205564 T    
O28   C5    1.271342 A    
O40   C20   1.267968 A    
C25   I2    2.168043 S    
Zn3   O42   1.916520 S    
C136  C140  1.404755 A    
Zn7   O4    1.922438 S    
O21   C4    1.271426 A    
C111  C119  1.205615 T    
C57   C65   1.399694 A    
C159  C160  1.526141 S    
C60   C68   1.399755 A    
C25   C26   1.567738 S    
C64   C104  1.439364 S    
Zn14  O2    1.923149 S    
C27   C28   1.567743 S    
C56   H24   1.083486 S    
C26   C38   1.565128 S    
C86   C110  1.440715 S    
Zn13  O49   1.917124 S    
O44   C21   1.270641 A    
C157  H61   1.110857 S    
C55   H23   1.083481 S    
C32   H5    1.114371 S    
C13   C117  1.434211 S    
C151  H46   1.110420 S    
C90   I10   2.121346 S    
Zn12  O27   1.910293 S    
C75   C83   1.401652 A    
C55   C91   1.400460 A    
C76   C84   1.401659 A    
C50   H18   1.083520 S    
C50   C58   1.400512 A    
Zn3   O2    1.922438 S    
C73   C81   1.401622 A    
C29   H8    1.113915 S    
O46   C24   1.270651 A    
O47   C24   1.270712 A    
C3    C124  1.434539 S    
Zn16  O52   1.916776 S    
O9    C5    1.271607 A    
Zn8   O45   1.916561 S    
O27   C6    1.271173 A    
C89   I9    2.121475 S    
C42   H12   1.113313 S    
C25   H4    1.113914 S    
C88   C112  1.440703 S    
C50   C94   1.400437 A    
O24   C1    1.271340 A    
C154  H54   1.110835 S    
C49   C57   1.400544 A    
C160  H68   1.110835 S    
C91   I11   2.121511 S    
C158  H63   1.107485 S    
O43   C22   1.270716 A    
Zn4   O41   1.916561 S    
Zn5   O12   1.910332 S    
O42   C22   1.270651 A    
C30   C40   1.565129 S    
Zn6   O11   1.910143 S    
Zn9   O21   1.910224 S    
O53   C149  1.415848 S    
Zn14  O50   1.916776 S    
C65   C77   1.397604 A    
C156  H58   1.111004 S    
O35   C14   1.272114 A    
Zn12  O40   1.917184 S    
C54   C90   1.400428 A    
C9    C113  1.434206 S    
C100  C124  1.205608 T    
C150  H44   1.111002 S    
O52   C20   1.269093 A    
C16   C120  1.434221 S    
C52   C96   1.400379 A    
C157  H59   1.110997 S    
C136  C144  1.437075 S    
C44   H16   1.113319 S    
Zn7   O19   1.910269 S    
Zn2   O2    1.922358 S    
C107  C115  1.205617 T    
C26   H3    1.114370 S    
Zn13  O32   1.909275 S    
C139  C140  1.405640 A    
O15   C11   1.271943 A    
Zn14  O31   1.909107 S    
C70   C74   1.397646 A    
C130  C134  1.404984 A    
C17   C145  1.426272 S    
O31   C10   1.272112 A    
C40   C43   1.557547 S    
C153  H50   1.107832 S    
C63   C103  1.439423 S    
C1    C122  1.434456 S    
Zn4   O5    1.910277 S    
C138  I18   2.140604 S    
C30   I5    2.172922 S    
C99   C123  1.205650 T    
O20   C16   1.271706 A    
C51   H19   1.083479 S    
O10   C6    1.271425 A    
O23   C2    1.271175 A    
Zn11  O25   1.910224 S    
C8    C127  1.434608 S    
Zn10  O38   1.917184 S    
C101  C125  1.205563 T    
C37   C42   1.557551 S    
O14   C10   1.271906 A    
C64   C72   1.399750 A    
C39   C44   1.557550 S    
C129  C130  1.409866 A    
O17   C13   1.271693 A    
C84   C108  1.440700 S    
O45   C23   1.270728 A    
