data_mof_unit_64602.cif
_audit_creation_date              2012-12-10T19:07:53-0500
_audit_creation_method            fapswitch 2.2
_symmetry_space_group_name_H-M    P1
_symmetry_Int_Tables_number       1
_space_group_crystal_system       triclinic
_cell_length_a                    37.018789
_cell_length_b                    30.28433
_cell_length_c                    21.597634
_cell_angle_alpha                 89.807713
_cell_angle_beta                  54.759592
_cell_angle_gamma                 90.001574
_cell_volume                      19775.4103098

loop_
_atom_site_label
_atom_site_type_symbol
_atom_type_description
_atom_site_fract_x
_atom_site_fract_y
_atom_site_fract_z
_atom_type_partial_charge
C1    C     C_R   0.086313 0.500075 0.415022 0.897768
C2    C     C_R   0.972368 0.528014 0.245672 0.160255
C3    C     C_R   0.495429 0.342596 0.948964 -0.134929
C4    C     C_R   0.005336 0.842449 0.050694 -0.136539
C5    C     C_R   0.995328 0.842634 0.948964 -0.134660
C6    C     C_R   0.499978 0.586315 0.999928 0.975403
C7    C     C_R   0.999980 0.086315 0.999926 0.975345
C8    C     C_R   0.040068 0.296756 0.957778 0.429265
C9    C     C_R   0.959396 0.296679 0.041408 0.429133
C10   C     C_R   0.540058 0.796749 0.958043 0.428851
C11   C     C_R   0.459375 0.796685 0.041216 0.429541
C12   C     C_R   0.039980 0.342538 0.958123 -0.223303
C13   C     C_R   0.527357 0.028251 0.754343 0.155530
C14   C     C_R   0.959639 0.342467 0.041363 -0.217960
C15   C     C_R   0.539977 0.842531 0.958381 -0.220928
C16   C     C_R   0.459625 0.842473 0.041165 -0.221431
C17   C     C_R   0.999852 0.365559 0.999855 -0.173182
C18   C     C_R   0.499846 0.865559 0.999878 -0.172802
C19   C     C_R   0.505024 0.296741 0.051275 -0.142113
C20   C     C_R   0.495461 0.296841 0.949067 -0.142296
C21   C     C_R   0.005657 0.796678 0.050320 -0.141547
C22   C     C_R   0.995457 0.796877 0.948856 -0.144001
C23   C     C_R   0.999694 0.273859 0.999551 -0.018458
C24   C     C_R   0.472355 0.027996 0.245685 0.158843
C25   C     C_R   0.499675 0.773858 0.999588 -0.018148
C26   C     C_R   0.497859 0.703181 0.945149 0.430604
C27   C     C_R   0.501460 0.703120 0.054474 0.429987
C28   C     C_R   0.997778 0.203178 0.945225 0.430633
C29   C     C_R   0.001590 0.203124 0.054328 0.429979
C30   C     C_R   0.497982 0.657395 0.945416 -0.172845
C31   C     C_R   0.501578 0.657343 0.054280 -0.173068
C32   C     C_R   0.997896 0.157392 0.945502 -0.172796
C33   C     C_R   0.001698 0.157346 0.054148 -0.173310
C34   C     C_R   0.499859 0.634322 0.999850 -0.157571
C35   C     C_3   0.955878 0.569761 0.829178 -0.465297
C36   C     C_R   0.999870 0.134322 0.999835 -0.157749
C37   C     C_R   0.500316 0.273771 0.000141 0.148098
C38   C     C_R   0.000649 0.773751 0.999485 0.148475
C39   C     C_R   0.025312 0.702788 0.930842 -0.182763
C40   C     C_R   0.975676 0.702580 0.068275 -0.184245
C41   C     C_R   0.525492 0.202900 0.931436 -0.182194
C42   C     C_R   0.475238 0.202544 0.068779 -0.181989
C43   C     C_R   0.967773 0.522686 0.749806 0.088925
C44   C     C_R   0.972989 0.528750 0.308637 0.132919
C45   C     C_R   0.526789 0.028875 0.691331 0.133035
C46   C     C_3   0.923045 0.530560 0.292061 -0.416453
C47   C     C_R   0.472976 0.028735 0.308649 0.132949
C48   C     C_R   0.999617 0.498772 0.686350 -0.076200
C49   C     C_R   0.001568 0.501092 0.312703 -0.088282
C50   C     C_R   0.498583 0.000692 0.687169 -0.088524
C51   C     C_R   0.501568 0.001091 0.312703 -0.087901
C52   C     C_R   0.027570 0.469714 0.690737 -0.171339
C53   C     C_R   0.034008 0.477137 0.249129 -0.195593
C54   C     C_R   0.466428 0.976206 0.750706 -0.195112
C55   C     C_R   0.534018 0.977149 0.249120 -0.195466
C56   C     C_R   0.027635 0.469792 0.755054 -0.180136
C57   C     C_3   0.576638 0.031653 0.708071 -0.416288
C58   C     C_R   0.034332 0.477507 0.184437 -0.188525
C59   C     C_R   0.466038 0.976676 0.815469 -0.188537
C60   C     C_R   0.534341 0.977518 0.184428 -0.188611
C61   C     C_3   0.423030 0.030510 0.292077 -0.415709
C62   C     C_3   0.956941 0.570733 0.757854 -0.432044
C63   C     C_3   0.923797 0.531775 0.361532 -0.468481
C64   C     C_3   0.575943 0.032734 0.638528 -0.466486
C65   C     C_R   0.913689 0.499990 0.584858 0.894599
C66   C     C_3   0.423782 0.031733 0.361546 -0.468485
C67   C     C_R   0.202505 0.463680 0.272262 -0.144424
C68   C     C_R   0.797355 0.462993 0.726917 -0.146126
C69   C     C_R   0.702523 0.963499 0.272977 -0.145556
C70   C     C_R   0.297358 0.963031 0.727032 -0.144778
C71   C     C_R   0.156689 0.464353 0.319233 -0.236390
C72   C     C_R   0.843178 0.463757 0.680011 -0.233139
C73   C     C_R   0.656710 0.964195 0.319853 -0.235647
C74   C     C_R   0.343183 0.963800 0.680141 -0.235310
C75   C     C_R   0.134466 0.500187 0.367878 -0.133892
C76   C     C_R   0.586313 0.000076 0.415095 0.892714
C77   C     C_R   0.865534 0.499918 0.631703 -0.135744
C78   C     C_R   0.634469 0.000179 0.368091 -0.132103
C79   C     C_R   0.365536 0.999904 0.631675 -0.132379
C80   C     C_R   0.158803 0.535309 0.370098 0.387421
C81   C     C_R   0.841318 0.535229 0.629601 0.380326
C82   C     C_R   0.658797 0.035422 0.370034 0.382686
C83   C     C_R   0.341321 0.035146 0.629395 0.382639
C84   C     C_R   0.204672 0.534501 0.322267 -0.182171
C85   C     C_R   0.795452 0.534307 0.677331 -0.182815
C86   C     C_R   0.704666 0.034572 0.322321 -0.181497
C87   C     C_R   0.413690 0.999987 0.584847 0.892896
C88   C     C_R   0.295455 0.034222 0.677107 -0.181538
C89   C     C_R   0.226486 0.498935 0.273292 0.078365
C90   C     C_R   0.773507 0.498472 0.726129 0.077690
C91   C     C_R   0.726492 0.998871 0.273705 0.078422
C92   C     C_R   0.273509 0.998448 0.726069 0.078148
C93   C     C_R   0.000427 0.499840 0.619685 0.876464
C94   C     C_R   0.999848 0.500116 0.380111 0.871601
C95   C     C_R   0.500170 0.999987 0.619877 0.871141
C96   C     C_R   0.499849 0.000116 0.380110 0.871113
C97   C     C_R   0.297203 0.535294 0.177761 -0.178750
C98   C     C_R   0.998739 0.497914 0.815244 -0.076539
C99   C     C_R   0.703100 0.534711 0.821996 -0.180828
C100  C     C_R   0.797165 0.035159 0.177796 -0.178920
C101  C     C_R   0.203106 0.034755 0.821787 -0.179057
C102  C     C_R   0.343086 0.535777 0.131874 0.340584
C103  C     C_R   0.657225 0.535310 0.868030 0.340434
C104  C     C_R   0.843045 0.035645 0.131759 0.340060
C105  C     C_R   0.157231 0.035356 0.867842 0.340168
C106  C     C_R   0.366262 0.499367 0.132832 -0.217364
C107  C     C_R   0.633740 0.499178 0.867148 -0.217408
C108  C     C_R   0.866263 0.999325 0.132869 -0.217407
C109  C     C_R   0.001365 0.500738 0.184885 -0.105211
C110  C     C_R   0.133740 0.999170 0.867144 -0.217681
C111  C     C_R   0.343539 0.462420 0.178823 0.337606
C112  C     C_R   0.656161 0.462365 0.821130 0.337779
C113  C     C_R   0.843579 0.962463 0.179166 0.337635
C114  C     C_R   0.156152 0.962300 0.821294 0.337901
C115  C     C_R   0.297632 0.462137 0.223923 -0.178163
C116  C     C_R   0.702067 0.461968 0.775866 -0.179709
C117  C     C_R   0.797673 0.962180 0.224424 -0.180473
C118  C     C_R   0.202059 0.961900 0.776010 -0.179853
C119  C     C_R   0.274506 0.498610 0.223797 -0.022297
C120  C     C_R   0.498666 0.000545 0.815107 -0.103911
C121  C     C_R   0.725492 0.498192 0.775863 -0.021964
C122  C     C_R   0.774509 0.998566 0.224146 -0.022614
C123  C     C_R   0.225492 0.998178 0.775818 -0.022729
C124  C     C_R   0.000185 0.633802 0.999723 -0.226807
C125  C     C_R   0.500182 0.133828 0.000030 -0.225646
C126  C     C_R   0.000601 0.725652 0.999522 -0.040201
C127  C     C_R   0.500390 0.225683 0.000127 -0.041281
C128  C     C_R   0.499616 0.726010 0.999778 -0.024422
C129  C     C_R   0.999642 0.226011 0.999739 -0.024498
C130  C     C_R   0.999952 0.413585 0.999995 0.913105
C131  C     C_R   0.501365 0.000734 0.184886 -0.104964
C132  C     C_R   0.499951 0.913585 0.000005 0.913496
C133  C     C_R   0.025189 0.656979 0.930494 0.336350
C134  C     C_R   0.975385 0.656785 0.068821 0.352325
C135  C     C_R   0.525472 0.157104 0.930936 0.350393
C136  C     C_R   0.475050 0.156743 0.069180 0.350451
C137  C     C_R   0.999758 0.500080 0.880075 0.887324
C138  C     C_R   0.000239 0.499535 0.119994 0.895557
C139  C     C_R   0.499761 0.999502 0.880023 0.895227
C140  C     C_R   0.500239 0.999532 0.119993 0.895527
C141  C     C_R   0.000050 0.586031 0.999873 0.980166
C142  C     C_R   0.966978 0.521822 0.814156 0.135063
C143  C     C_R   0.500051 0.086039 0.999979 0.988547
C144  C     C_R   0.500064 0.365646 0.000195 -0.014271
C145  C     C_R   0.000201 0.865637 0.999966 -0.013761
C146  C     C_R   0.500000 0.413652 0.000090 0.916934
C147  C     C_R   0.000026 0.913649 0.000052 0.916792
C148  C     C_R   0.413914 0.499852 0.085837 0.990993
C149  C     C_R   0.586088 0.499826 0.914160 0.990473
C150  C     C_R   0.913914 0.999845 0.085841 0.990826
C151  C     C_R   0.086088 0.999824 0.914160 0.990691
C152  C     C_R   0.504809 0.342508 0.051426 -0.135946
Cl1   Cl    Cl    0.370506 0.583013 0.075924 -0.549011
Cl2   Cl    Cl    0.944983 0.629533 0.157316 -0.610939
Cl3   Cl    Cl    0.556082 0.130250 0.842471 -0.609061
Cl4   Cl    Cl    0.444329 0.129411 0.157589 -0.609307
Cl5   Cl    Cl    0.091170 0.268952 0.904637 -0.500059
Cl6   Cl    Cl    0.908209 0.268768 0.094447 -0.498338
Cl7   Cl    Cl    0.591163 0.768936 0.905192 -0.501419
Cl8   Cl    Cl    0.408177 0.768783 0.093974 -0.498678
Cl9   Cl    Cl    0.495542 0.731071 0.875778 -0.512570
Cl10  Cl    Cl    0.503673 0.730923 0.123773 -0.512783
Cl11  Cl    Cl    0.995327 0.231064 0.875992 -0.511959
Cl12  Cl    Cl    0.630216 0.582385 0.923980 -0.550518
Cl13  Cl    Cl    0.003947 0.230930 0.123473 -0.512874
Cl14  Cl    Cl    0.133994 0.579769 0.434017 -0.545331
Cl15  Cl    Cl    0.866250 0.580187 0.566158 -0.587302
Cl16  Cl    Cl    0.633996 0.080168 0.433294 -0.583983
Cl17  Cl    Cl    0.366266 0.080015 0.565755 -0.583574
Cl18  Cl    Cl    0.870410 0.082787 0.075460 -0.549372
Cl19  Cl    Cl    0.130227 0.082495 0.923595 -0.548919
Cl20  Cl    Cl    0.371580 0.415679 0.179881 -0.586909
Cl21  Cl    Cl    0.627747 0.415919 0.820228 -0.587891
Cl22  Cl    Cl    0.871662 0.915823 0.180424 -0.588573
Cl23  Cl    Cl    0.127724 0.915793 0.820622 -0.587301
Cl24  Cl    Cl    0.055350 0.629946 0.842124 -0.583550
H1    H     H_    0.223443 0.561276 0.324161 0.187377
H2    H     H_    0.491511 0.359841 0.909175 0.173125
H3    H     H_    0.009380 0.859601 0.090259 0.172627
H4    H     H_    0.991119 0.859917 0.909547 0.172462
H5    H     H_    0.496571 0.639979 0.903125 0.209452
H6    H     H_    0.503075 0.639893 0.096612 0.209622
H7    H     H_    0.996399 0.139974 0.903303 0.209523
H8    H     H_    0.003276 0.139898 0.096395 0.209586
H9    H     H_    0.922300 0.575224 0.881823 0.216578
H10   H     H_    0.911291 0.561901 0.282571 0.261684
H11   H     H_    0.587967 0.063233 0.717602 0.261814
H12   H     H_    0.776781 0.561262 0.675604 0.187114
H13   H     H_    0.411255 0.061842 0.282604 0.261883
H14   H     H_    0.923990 0.576860 0.769310 0.211667
H15   H     H_    0.912904 0.563958 0.391535 0.263414
H16   H     H_    0.586457 0.065069 0.608512 0.263200
H17   H     H_    0.412873 0.063915 0.391552 0.263581
H18   H     H_    0.984426 0.591101 0.711573 0.239503
H19   H     H_    0.908531 0.502189 0.398665 0.210110
H20   H     H_    0.591594 0.003375 0.601421 0.210275
H21   H     H_    0.408532 0.002143 0.398671 0.210057
H22   H     H_    0.138602 0.437111 0.316729 0.181234
H23   H     H_    0.723430 0.061452 0.323969 0.187036
H24   H     H_    0.861161 0.436351 0.682387 0.184496
H25   H     H_    0.638642 0.936855 0.317555 0.181443
H26   H     H_    0.361171 0.936450 0.682657 0.181556
H27   H     H_    0.050715 0.448877 0.643258 0.169366
H28   H     H_    0.058133 0.457582 0.250271 0.163097
H29   H     H_    0.442537 0.956245 0.749532 0.163682
H30   H     H_    0.558151 0.957604 0.250256 0.163079
H31   H     H_    0.279191 0.563451 0.177587 0.192705
H32   H     H_    0.721345 0.562669 0.822093 0.191641
H33   H     H_    0.779122 0.063244 0.177489 0.192953
H34   H     H_    0.276784 0.061127 0.675247 0.187059
H35   H     H_    0.221356 0.062754 0.821742 0.192921
H36   H     H_    0.279971 0.433845 0.259897 0.187578
H37   H     H_    0.719492 0.433798 0.739847 0.187224
H38   H     H_    0.780045 0.933954 0.260624 0.187064
H39   H     H_    0.219478 0.933684 0.740121 0.187368
H40   H     H_    0.071282 0.359990 0.925733 0.204318
H41   H     H_    0.928401 0.359869 0.073857 0.204588
H42   H     H_    0.571285 0.859978 0.926173 0.204035
H43   H     H_    0.428385 0.859879 0.073472 0.204051
H44   H     H_    0.050727 0.448967 0.757107 0.171666
H45   H     H_    0.509325 0.279279 0.090456 0.152235
H46   H     H_    0.058642 0.457954 0.135939 0.174798
H47   H     H_    0.441948 0.956761 0.863975 0.174336
H48   H     H_    0.558660 0.957973 0.135923 0.174643
H49   H     H_    0.044849 0.720566 0.877509 0.189841
H50   H     H_    0.956246 0.720189 0.121535 0.188902
H51   H     H_    0.545234 0.220738 0.878192 0.189395
H52   H     H_    0.455545 0.220103 0.122053 0.189326
H53   H     H_    0.982642 0.589629 0.824448 0.242766
H54   H     H_    0.907561 0.500085 0.288536 0.215548
H55   H     H_    0.592484 0.001483 0.711658 0.216186
H56   H     H_    0.491228 0.279459 0.909890 0.152241
H57   H     H_    0.407565 0.000023 0.288540 0.215678
H58   H     H_    0.219254 0.436052 0.234338 0.161756
H59   H     H_    0.780503 0.435144 0.764683 0.162522
H60   H     H_    0.719279 0.935766 0.235325 0.161533
H61   H     H_    0.280507 0.935232 0.764927 0.161976
H62   H     H_    0.010226 0.779178 0.089150 0.152222
H63   H     H_    0.990986 0.779541 0.909924 0.150236
H64   H     H_    0.508638 0.359695 0.091215 0.172961
O1    O     O_R   0.065460 0.536930 0.434540 -0.561642
O2    O     O_R   0.565500 0.499990 0.986230 -0.597648
O3    O     O_R   0.934500 0.999990 0.013770 -0.598031
O4    O     O_R   0.065500 0.999990 0.986230 -0.597677
O5    O     O_R   0.500010 0.565450 0.051710 -0.615520
O6    O     O_R   0.499990 0.565450 0.948290 -0.616011
O7    O     O_R   0.000010 0.065450 0.051710 -0.615733
O8    O     O_R   0.999990 0.065450 0.948290 -0.615865
O9    O     O_R   0.065420 0.463020 0.434580 -0.632965
O10   O     O_R   0.934580 0.463020 0.565420 -0.628145
O11   O     O_R   0.565420 0.963020 0.434580 -0.631554
O12   O     O_R   0.934540 0.536930 0.565460 -0.565176
O13   O     O_R   0.434580 0.963020 0.565420 -0.631547
O14   O     O_R   0.000000 0.536930 0.591610 -0.604666
O15   O     O_R   0.000000 0.536930 0.408390 -0.597317
O16   O     O_R   0.500000 0.036930 0.591610 -0.597337
O17   O     O_R   0.500000 0.036930 0.408390 -0.597297
O18   O     O_R   0.999960 0.463020 0.591650 -0.623273
O19   O     O_R   0.000040 0.463020 0.408350 -0.620820
O20   O     O_R   0.499960 0.963020 0.591650 -0.620910
O21   O     O_R   0.500040 0.963020 0.408350 -0.620757
O22   O     O_R   0.963030 0.434450 0.036960 -0.624198
O23   O     O_R   0.565460 0.036930 0.434540 -0.561234
O24   O     O_R   0.036970 0.434450 0.963040 -0.629081
O25   O     O_R   0.463030 0.934450 0.036960 -0.627332
O26   O     O_R   0.536970 0.934450 0.963040 -0.627232
O27   O     O_R   0.963010 0.499910 0.945370 -0.625200
O28   O     O_R   0.036990 0.499910 0.054630 -0.623473
O29   O     O_R   0.463010 0.999910 0.945370 -0.623231
O30   O     O_R   0.536990 0.999910 0.054630 -0.623540
O31   O     O_R   0.036930 0.499960 0.871460 -0.596645
O32   O     O_R   0.963070 0.499960 0.128540 -0.610101
O33   O     O_R   0.536930 0.999960 0.871460 -0.610286
O34   O     O_R   0.434540 0.036930 0.565460 -0.561002
O35   O     O_R   0.463070 0.999960 0.128540 -0.610010
O36   O     O_R   0.963000 0.565380 0.037000 -0.587046
O37   O     O_R   0.037000 0.565380 0.963000 -0.576095
O38   O     O_R   0.463000 0.065380 0.037000 -0.580628
O39   O     O_R   0.537000 0.065380 0.963000 -0.580746
O40   O     O_R   0.499940 0.434520 0.051770 -0.618547
O41   O     O_R   0.500060 0.434520 0.948230 -0.617966
O42   O     O_R   0.999940 0.934520 0.051770 -0.618206
O43   O     O_R   0.000060 0.934520 0.948230 -0.618261
O44   O     O_R   0.434510 0.499990 0.117200 -0.590581
O45   O     O_R   0.565490 0.499990 0.882800 -0.590770
O46   O     O_R   0.934510 0.999990 0.117200 -0.590814
O47   O     O_R   0.065490 0.999990 0.882800 -0.590824
O48   O     O_R   0.434500 0.499990 0.013770 -0.598096
Zn1   Zn    Zn3+2 0.000000 0.549330 0.500000 1.096219
Zn2   Zn    Zn3+2 0.500020 0.499990 0.930910 1.075724
Zn3   Zn    Zn3+2 0.999980 0.999990 0.069090 1.075813
Zn4   Zn    Zn3+2 0.000020 0.999990 0.930910 1.075262
Zn5   Zn    Zn3+2 0.500000 0.049330 0.500000 1.104886
Zn6   Zn    Zn3+2 1.000000 0.450620 0.500000 1.003175
Zn7   Zn    Zn3+2 0.500000 0.950620 0.500000 1.002014
Zn8   Zn    Zn3+2 0.950620 0.499900 0.049380 1.031500
Zn9   Zn    Zn3+2 0.049380 0.499900 0.950620 1.050553
Zn10  Zn    Zn3+2 0.450620 0.999900 0.049380 1.036232
Zn11  Zn    Zn3+2 0.549380 0.999900 0.950620 1.035893
Zn12  Zn    Zn3+2 0.499980 0.499990 0.069090 1.076387

loop_
_geom_bond_atom_site_label_1
_geom_bond_atom_site_label_2
_ccdc_geom_bond_type
C99   C103  A    
C105  C110  A    
C24   C61   S    
C107  C112  A    
C18   C132  S    
C79   C87   S    
C62   H14   S    
C138  O32   A    
O9    Zn6   S    
C139  O29   A    
C115  H36   S    
C69   H60   S    
C27   Cl10  S    
O16   Zn5   S    
C22   C38   A    
C29   C33   A    
C100  C104  A    
C8    C23   A    
C16   H43   S    
C42   C136  A    
O12   Zn1   S    
C131  C140  S    
C19   C37   A    
C96   O17   A    
C91   C122  S    
C70   C74   A    
C68   C90   A    
C118  H39   S    
C87   O34   A    
C99   C121  A    
C125  C135  A    
C85   H12   S    
C83   C88   A    
C88   H34   S    
C61   H13   S    
C8    Cl5   S    
C80   Cl14  S    
C64   H16   S    
C65   C77   S    
C116  C121  A    
O8    Zn4   S    
C27   C31   A    
C28   C32   A    
C92   C123  S    
C93   O14   A    
C73   H25   S    
C108  C113  A    
C27   C128  A    
C78   C82   A    
O20   Zn7   S    
C68   C72   A    
C54   H29   S    
C81   Cl15  S    
C46   H10   S    
C15   H42   S    
C102  Cl1   S    
C146  O41   A    
C124  C133  A    
C150  O3    A    
C74   C79   A    
O40   Zn12  S    
C62   H18   S    
C4    H3    S    
C106  C111  A    
C56   H44   S    
C22   H63   S    
C55   H30   S    
C105  Cl19  S    
C6    O6    A    
C151  O47   A    
C85   C90   A    
C42   H52   S    
O43   Zn4   S    
C26   Cl9   S    
C52   H27   S    
C13   C45   A    
C24   C131  A    
O38   Zn10  S    
C45   C50   A    
C49   C53   A    
C7    O8    A    
C51   C55   A    
C40   H50   S    
C57   H11   S    
O1    Zn1   S    
C48   C52   A    
C148  O48   A    
C43   C142  A    
C103  C107  A    
C21   H62   S    
C83   Cl17  S    
C15   C18   A    
C2    C109  A    
C59   C120  A    
C53   C58   A    
C61   H57   S    
C41   C127  A    
C33   C36   A    
C137  O31   A    
O25   Zn10  S    
O28   Zn9   S    
C32   C36   A    
O34   Zn5   S    
C76   C78   S    
C111  Cl20  S    
O36   Zn8   S    
C1    O9    A    
C13   C57   S    
C11   C25   A    
C7    O7    A    
C100  H33   S    
O39   Zn11  S    
C132  O25   A    
C29   C129  A    
C21   C38   A    
O19   Zn6   S    
C2    C44   A    
C110  C114  A    
C65   O10   A    
C98   C142  A    
C14   C17   A    
C146  O40   A    
O29   Zn10  S    
C38   C126  S    
C54   C59   A    
C95   O20   A    
C5    C145  A    
C30   C34   A    
C147  O42   A    
C9    C23   A    
C40   C134  A    
C109  C138  S    
O48   Zn2   S    
C97   C119  A    
C117  C122  A    
C68   H59   S    
O4    Zn3   S    
C8    C12   A    
C33   H8    S    
C31   C34   A    
C113  C117  A    
C10   C25   A    
C70   H61   S    
C26   C30   A    
C115  C119  A    
O21   Zn7   S    
C90   C121  S    
O22   Zn8   S    
C124  C141  S    
C41   C135  A    
C13   C120  A    
C71   H22   S    
O46   Zn3   S    
O6    Zn2   S    
O26   Zn11  S    
C116  H37   S    
O41   Zn2   S    
C45   C64   S    
C124  C134  A    
C46   C63   S    
O15   Zn1   S    
C94   O15   A    
C20   C37   A    
O5    Zn12  S    
C125  C143  S    
C4    C145  A    
C64   H20   S    
C136  Cl4   S    
C84   H1    S    
C35   C142  S    
C107  C149  S    
C65   O12   A    
O7    Zn3   S    
O47   Zn4   S    
C139  O33   A    
C150  O46   A    
C69   C91   A    
C95   O16   A    
C81   C85   A    
C28   Cl11  S    
C113  Cl22  S    
C67   H58   S    
C7    C36   S    
C32   H7    S    
C112  C116  A    
C80   C84   A    
C82   Cl16  S    
C101  H35   S    
C103  Cl12  S    
C50   C54   A    
C20   H56   S    
C140  O35   A    
C104  Cl18  S    
C3    H2    S    
C86   C91   A    
C23   C129  S    
C29   Cl13  S    
C89   C119  S    
C149  O2    A    
C12   C17   A    
C69   C73   A    
C47   C66   S    
C97   C102  A    
O17   Zn5   S    
C86   H23   S    
C17   C130  S    
C39   C126  A    
C55   C60   A    
C46   H54   S    
C60   C131  A    
C145  C147  S    
C11   Cl8   S    
C44   C63   S    
C48   C93   S    
C98   C137  S    
C144  C146  S    
C110  C151  S    
C47   C51   A    
C74   H26   S    
C82   C86   A    
O44   Zn12  S    
C143  O38   A    
C6    C34   S    
C9    C14   A    
O33   Zn11  S    
C5    H4    S    
C147  O43   A    
C11   C16   A    
C77   C81   A    
O23   Zn5   S    
C3    C20   A    
C130  O22   A    
C59   H47   S    
C42   C127  A    
O32   Zn8   S    
C125  C136  A    
C114  Cl23  S    
C31   H6    S    
C30   H5    S    
C63   H19   S    
C104  C108  A    
C66   H17   S    
C39   C133  A    
O3    Zn4   S    
C25   C128  S    
C70   C92   A    
C3    C144  A    
C99   H32   S    
O11   Zn7   S    
C79   C83   A    
C134  Cl2   S    
C138  O28   A    
C63   H15   S    
C140  O30   A    
C67   C71   A    
C118  C123  A    
C117  H38   S    
C39   H49   S    
C108  C150  S    
C132  O26   A    
C93   O18   A    
O42   Zn3   S    
C87   O13   A    
C144  C152  A    
C76   O11   A    
C10   Cl7   S    
C43   C62   S    
C44   C49   A    
C41   H51   S    
C96   O21   A    
O10   Zn6   S    
C58   C109  A    
C6    O5    A    
C19   H45   S    
C56   C98   A    
C58   H46   S    
C106  C148  S    
C2    C46   S    
O2    Zn12  S    
C101  C123  A    
O13   Zn7   S    
C10   C15   A    
C57   H55   S    
C50   C95   S    
C67   C89   A    
C135  Cl3   S    
C28   C129  A    
C151  O4    A    
C61   C66   S    
C5    C22   A    
C88   C92   A    
C73   C78   A    
C14   H41   S    
C49   C94   S    
O14   Zn1   S    
C75   C80   A    
O35   Zn10  S    
C51   C96   S    
C112  Cl21  S    
C60   H48   S    
C101  C105  A    
C53   H28   S    
C1    C75   S    
O24   Zn9   S    
O31   Zn9   S    
O45   Zn2   S    
C35   H53   S    
C72   C77   A    
C72   H24   S    
O18   Zn6   S    
C94   O19   A    
C152  H64   S    
C35   H9    S    
C40   C126  A    
C143  O39   A    
C19   C152  A    
C120  C139  S    
C26   C128  A    
C97   H31   S    
C114  C118  A    
C1    O1    A    
O37   Zn9   S    
C76   O23   A    
C84   C89   A    
C57   C64   S    
C43   C48   A    
C148  O44   A    
C24   C47   A    
C149  O45   A    
C9    Cl6   S    
C141  O37   A    
C71   C75   A    
C4    C21   A    
C137  O27   A    
C102  C106  A    
C35   C62   S    
C100  C122  A    
O27   Zn8   S    
C133  Cl24  S    
C130  O24   A    
C66   H21   S    
C16   C18   A    
C12   H40   S    
O30   Zn11  S    
C111  C115  A    
C141  O36   A    
C52   C56   A    
C37   C127  S    
