data_mof_unit_67859.cif
_audit_creation_date              2013-03-05T15:41:50-0500
_audit_creation_method            fapswitch 2.2
_symmetry_space_group_name_H-M    P1
_symmetry_Int_Tables_number       1
_space_group_crystal_system       triclinic
_cell_length_a                    8.054057
_cell_length_b                    8.535804
_cell_length_c                    10.547241
_cell_angle_alpha                 94.101668
_cell_angle_beta                  86.243966
_cell_angle_gamma                 93.318711
_cell_volume                      720.657595911

loop_
_atom_site_label
_atom_site_type_symbol
_atom_site_description
_atom_site_fract_x
_atom_site_fract_y
_atom_site_fract_z
_atom_type_partial_charge
O1    O     O_R   0.389250 0.738570 0.508410 -0.632488
O2    O     O_R   0.610750 0.261430 0.491590 -0.632476
O3    O     O_R   0.678390 0.711620 0.486450 -0.663255
O4    O     O_R   0.321610 0.288380 0.513550 -0.663264
C1    C     C_R   0.544325 0.793243 0.497298 0.942228
C2    C     C_R   0.455675 0.206757 0.502703 0.942227
O5    O     O_R   0.355460 0.513510 0.697030 -0.618399
O6    O     O_R   0.644540 0.486490 0.302970 -0.618381
O7    O     O_R   0.644600 0.486560 0.675070 -0.616898
O8    O     O_R   0.355400 0.513440 0.324930 -0.616908
C3    C     C_R   0.503886 0.509614 0.741462 0.932555
C4    C     C_R   0.496112 0.490383 0.258539 0.932570
Zn1   Zn    Zn3+2 0.306940 0.517990 0.514670 0.926702
Zn2   Zn    Zn3+2 0.693060 0.482010 0.485330 0.926719
N1    N     N_2   0.950320 0.457950 0.465730 -0.073478
N2    N     N_2   0.049680 0.542050 0.534270 -0.073491
C5    C     C_3   0.409947 0.618309 0.974011 0.496114
C6    C     C_3   0.590042 0.381685 0.025992 0.496096
C7    C     C_3   0.559768 0.636915 0.057953 -0.506284
C8    C     C_3   0.440219 0.363079 0.942051 -0.506293
H1    H     H_    0.605121 0.746106 0.111531 0.172211
H2    H     H_    0.394860 0.253889 0.888476 0.172215
C9    C     C_3   0.491056 0.488237 0.123064 -0.237622
C10   C     C_3   0.508936 0.511757 0.876939 -0.237627
C11   C     C_3   0.341569 0.471694 0.039419 0.506948
C12   C     C_3   0.658421 0.528301 0.960586 0.506980
C13   C     C_2   0.567121 0.957410 0.497018 -0.371643
C14   C     C_2   0.432879 0.042591 0.502986 -0.371630
H3    H     H_    0.694485 0.007540 0.492518 0.177346
H4    H     H_    0.305516 0.992460 0.507488 0.177375
O9    O     O_3   0.321818 0.744277 0.937829 -0.628540
C15   C     C_3   0.292778 0.851252 0.044311 -0.379479
H5    H     H_    0.408504 0.921520 0.067172 0.194286
H6    H     H_    0.239489 0.791316 0.129419 0.196484
H7    H     H_    0.201444 0.934827 0.020754 0.179789
O10   O     O_3   0.678165 0.255713 0.062175 -0.628538
C16   C     C_3   0.707225 0.148750 0.955687 -0.379476
H8    H     H_    0.760532 0.208697 0.870590 0.196478
H9    H     H_    0.591504 0.078486 0.932807 0.194274
H10   H     H_    0.798552 0.065170 0.979249 0.179780
O11   O     O_3   0.176297 0.441644 0.086169 -0.624317
C17   C     C_3   0.093601 0.342116 0.995156 -0.319422
H11   H     H_    0.130736 0.219098 0.996788 0.160564
H12   H     H_    0.112505 0.383862 0.897217 0.203754
H13   H     H_    0.960201 0.342781 0.020025 0.266609
O12   O     O_3   0.823697 0.558356 0.913847 -0.624354
C18   C     C_3   0.906366 0.657935 0.004843 -0.319571
H14   H     H_    0.887452 0.616241 0.102797 0.203742
H15   H     H_    0.869225 0.780944 0.003158 0.160614
H16   H     H_    0.039768 0.657270 0.979997 0.266589
C19   C     C_3   0.013331 0.310425 0.411788 -0.173719
C20   C     C_3   0.918998 0.237786 0.299180 -0.281930
C21   C     C_3   0.002972 0.090662 0.241666 -0.983640
H17   H     H_    0.134165 0.120354 0.208999 0.274353
H18   H     H_    0.001599 0.001403 0.313512 0.258358
H19   H     H_    0.935199 0.038297 0.159619 0.264282
H20   H     H_    0.789458 0.201373 0.325275 0.266939
H21   H     H_    0.917407 0.325904 0.227732 0.277305
H22   H     H_    0.139438 0.332574 0.369639 0.250443
H23   H     H_    0.011017 0.225511 0.487184 0.163906
C22   C     C_3   0.986686 0.689580 0.588209 -0.173735
C23   C     C_3   0.081010 0.762180 0.700832 -0.282031
C24   C     C_3   0.997184 0.909414 0.758268 -0.983599
H24   H     H_    0.998715 0.998646 0.686386 0.258376
H25   H     H_    0.865945 0.879863 0.790899 0.274283
H26   H     H_    0.064958 0.961744 0.840327 0.264305
H27   H     H_    0.082426 0.674089 0.772307 0.277268
H28   H     H_    0.210604 0.798416 0.674795 0.267070
H29   H     H_    0.989036 0.774500 0.512817 0.163941
H30   H     H_    0.860569 0.667454 0.630349 0.250408

loop_
_geom_bond_atom_site_label_1
_geom_bond_atom_site_label_2
_geom_bond_distance
_ccdc_geom_bond_type
C22   H30   1.093442 S    
C7    C9    1.543384 S    
O7    Zn2   2.011736 S    
C24   H25   1.110507 S    
C17   H13   1.089387 S    
C23   C24   1.529045 S    
N1    C19   1.449343 S    
C13   H3    1.087801 S    
O11   C17   1.410110 S    
C15   H7    1.105361 S    
O9    C15   1.411895 S    
C6    C12   1.529495 S    
C23   H28   1.094414 S    
O6    C4    1.315306 A    
C5    C11   1.529489 S    
C15   H5    1.109349 S    
C14   H4    1.087797 S    
C24   H26   1.106765 S    
C19   C20   1.526656 S    
C16   H9    1.109353 S    
C1    C13   1.402880 S    
C21   H17   1.110501 S    
O5    C3    1.315300 A    
O7    C3    1.309816 A    
C4    C9    1.430910 S    
O2    C2    1.308682 A    
O3    Zn2   1.969428 S    
C20   H21   1.103291 S    
C23   H27   1.103191 S    
O1    C1    1.308682 A    
O8    C4    1.309804 A    
C18   H15   1.109947 S    
O10   C16   1.411894 S    
C5    C7    1.537134 S    
C16   H8    1.114236 S    
C10   C12   1.532805 S    
C18   H16   1.089357 S    
C6    C8    1.537144 S    
C21   H18   1.111469 S    
C22   C23   1.526628 S    
O2    Zn2   1.963774 S    
C2    C14   1.402879 S    
Zn1   N2    2.089286 S    
C5    C10   1.534559 S    
O1    Zn1   1.963774 S    
C20   H20   1.094511 S    
C12   O12   1.404760 S    
C11   O11   1.404758 S    
C6    C9    1.534549 S    
C18   H14   1.114878 S    
C8    C10   1.543398 S    
C3    C10   1.430929 S    
O5    Zn1   1.991068 S    
C9    C11   1.532799 S    
C19   H22   1.093438 S    
C20   C21   1.529082 S    
O4    C2    1.312981 A    
C17   H11   1.109959 S    
C21   H19   1.106753 S    
C22   H29   1.112202 S    
C13   C14   1.333097 D    
C7    C12   1.545202 S    
C16   H10   1.105368 S    
O12   C18   1.410115 S    
O6    Zn2   1.991067 S    
C19   H23   1.112213 S    
N2    C22   1.449325 S    
Zn2   N1    2.089286 S    
C6    O10   1.410015 S    
C7    H1    1.110731 S    
O8    Zn1   2.011736 S    
C17   H12   1.114887 S    
C5    O9    1.410019 S    
N1    N2    1.270184 D    
O4    Zn1   1.969428 S    
C8    H2    1.110730 S    
C24   H24   1.111474 S    
O3    C1    1.312981 A    
C8    C11   1.545202 S    
C15   H6    1.114232 S    
