data_mof_unit_36827.cif
_audit_creation_date              2012-10-26T19:48:09-0400
_audit_creation_method            fapswitch 2.2
_symmetry_space_group_name_H-M    P1
_symmetry_Int_Tables_number       1
_space_group_crystal_system       triclinic
_cell_length_a                    11.312948
_cell_length_b                    9.798635
_cell_length_c                    10.731632
_cell_angle_alpha                 92.706232
_cell_angle_beta                  89.456545
_cell_angle_gamma                 91.497373
_cell_volume                      1187.84389551

loop_
_atom_site_label
_atom_site_type_symbol
_atom_type_description
_atom_site_fract_x
_atom_site_fract_y
_atom_site_fract_z
_atom_type_partial_charge
C1    C     C_R   0.262263 0.499977 0.499019 0.570566
C2    C     C_3   0.931190 0.512191 0.388638 -0.246607
C3    C     C_3   0.608519 0.087642 0.544751 -0.077623
C4    C     C_3   0.604470 0.926170 0.562953 -0.078009
C5    C     C_3   0.410952 0.085272 0.593175 -0.176744
C6    C     C_3   0.399374 0.918999 0.577319 -0.186136
C7    C     C_3   0.462722 0.060210 0.380099 0.230927
C8    C     C_3   0.498193 0.906243 0.373890 0.210591
C9    C     C_R   0.490798 0.497490 0.259866 0.672880
C10   C     C_R   0.741247 0.501997 0.514201 0.631145
C11   C     C_R   0.499321 0.502718 0.739005 0.569847
C12   C     C_3   0.485403 0.494447 0.119838 0.058385
C13   C     C_3   0.453102 0.620536 0.047014 -0.127674
C14   C     C_3   0.414146 0.400051 0.026246 -0.064769
C15   C     C_3   0.382659 0.526022 0.953079 -0.163050
C16   C     C_3   0.495427 0.507283 0.875170 -0.020978
C17   C     C_3   0.566183 0.602874 0.965538 -0.058740
C18   C     C_3   0.527098 0.381617 0.946318 -0.088508
C19   C     C_3   0.596052 0.477092 0.037991 0.261698
C20   C     C_3   0.083326 0.606393 0.613818 -0.201897
C21   C     C_3   0.084256 0.370904 0.561902 -0.235099
C22   C     C_3   0.948391 0.639504 0.599977 0.357815
C23   C     C_3   0.946375 0.364408 0.581937 0.322778
C24   C     C_3   0.067500 0.513634 0.367452 0.375899
C25   C     C_3   0.127476 0.502956 0.505278 -0.087994
C26   C     C_3   0.885955 0.504807 0.525589 -0.098373
Cu1   Cu    Cu3+1 0.499860 0.642410 0.500060 1.064224
Cu2   Cu    Cu3+1 0.499860 0.357590 0.500060 1.105711
H1    H     H_    0.294335 0.546967 0.915114 0.167333
H2    H     H_    0.363894 0.052703 0.382131 0.113897
H3    H     H_    0.426313 0.848455 0.323494 0.169175
H4    H     H_    0.322829 0.129574 0.579079 0.161317
H5    H     H_    0.314551 0.889919 0.531435 0.179687
H6    H     H_    0.417658 0.717084 0.088406 0.211556
H7    H     H_    0.347614 0.316262 0.029694 0.215564
H8    H     H_    0.628328 0.686168 0.939068 0.207798
H9    H     H_    0.558712 0.282825 0.905367 0.172674
H10   H     H_    0.145740 0.694801 0.627545 0.197992
H11   H     H_    0.122965 0.285667 0.510213 0.242362
H12   H     H_    0.890847 0.600196 0.347843 0.189797
H13   H     H_    0.098437 0.568389 0.707397 0.137599
H14   H     H_    0.131994 0.358502 0.650984 0.140105
H15   H     H_    0.289290 0.165863 0.176815 0.377102
H16   H     H_    0.768244 0.730019 0.240339 0.387421
H17   H     H_    0.891316 0.577514 0.116580 0.394764
H18   H     H_    0.766451 0.850717 0.822021 0.366646
H19   H     H_    0.777562 0.220677 0.825383 0.370113
H20   H     H_    0.106721 0.919927 0.431323 0.415693
H21   H     H_    0.868057 0.083160 0.675414 0.427347
H22   H     H_    0.150925 0.688880 0.069833 0.368271
H23   H     H_    0.895395 0.424399 0.335899 0.239043
H24   H     H_    0.083145 0.151099 0.244971 0.400111
H25   H     H_    0.629924 0.143112 0.634906 0.191454
H26   H     H_    0.602504 0.908976 0.664618 0.149370
H27   H     H_    0.671712 0.110983 0.472195 0.280376
H28   H     H_    0.686084 0.880278 0.527837 0.271684
H29   H     H_    0.433926 0.115740 0.691538 0.137353
H30   H     H_    0.394063 0.875301 0.671054 0.152708
N1    N     N_3   0.500250 0.143650 0.502780 -0.317045
N2    N     N_3   0.500250 0.856350 0.502780 -0.329513
O1    O     O_R   0.317570 0.620260 0.500070 -0.491229
O2    O     O_2   0.435423 0.005860 0.130505 -0.318742
O3    O     O_3   0.351530 0.220929 0.221723 -0.496340
O4    O     O_2   0.604653 0.856894 0.141659 -0.265751
O5    O     O_2   0.721005 0.994217 0.288918 -0.165088
O6    O     O_3   0.707745 0.736815 0.307313 -0.463530
O7    O     O_2   0.728230 0.445861 0.231735 -0.326752
O8    O     O_2   0.777788 0.304936 0.046720 -0.149488
O9    O     O_3   0.834186 0.564954 0.047778 -0.412404
O10   O     O_2   0.779979 0.571480 0.780035 -0.226533
O11   O     O_2   0.953342 0.710488 0.850740 -0.204258
O12   O     O_R   0.317570 0.379740 0.500070 -0.509823
O13   O     O_3   0.786259 0.821007 0.734973 -0.522570
O14   O     O_2   0.996437 0.214740 0.783356 -0.278191
O15   O     O_2   0.974036 0.448458 0.837541 -0.153361
O16   O     O_3   0.782348 0.307874 0.782496 -0.466401
O17   O     O_2   0.875868 0.847653 0.450902 -0.177167
O18   O     O_2   0.981463 0.907634 0.645825 -0.203645
O19   O     O_3   0.105256 0.831666 0.471550 -0.505696
O20   O     O_2   0.835862 0.214624 0.387806 -0.197751
O21   O     O_2   0.002177 0.110148 0.477754 -0.228596
O22   O     O_3   0.821153 0.108527 0.605319 -0.540043
O23   O     O_R   0.499850 0.620240 0.316900 -0.478353
O24   O     O_2   0.018828 0.767157 0.264233 -0.247166
O25   O     O_2   0.228203 0.718765 0.298902 -0.286366
O26   O     O_3   0.119302 0.607825 0.112202 -0.431479
O27   O     O_2   0.018039 0.361266 0.154204 -0.179118
O28   O     O_2   0.222992 0.411145 0.204548 -0.232877
O29   O     O_3   0.118425 0.213985 0.310296 -0.521312
O30   O     O_R   0.499850 0.379760 0.316900 -0.374755
O31   O     O_R   0.682190 0.620260 0.500030 -0.428407
O32   O     O_R   0.682190 0.379740 0.500030 -0.439694
O33   O     O_R   0.499910 0.620280 0.683200 -0.522003
O34   O     O_R   0.499910 0.379720 0.683200 -0.534523
O35   O     O_2   0.580747 0.185756 0.188238 -0.150798
S1    S     S_3+6 0.465365 0.119342 0.225043 0.054153
S2    S     S_3+6 0.634696 0.876038 0.277075 0.097168
S3    S     S_3+6 0.738133 0.443280 0.093072 0.112911
S4    S     S_3+6 0.867294 0.681168 0.746207 0.113889
S5    S     S_3+6 0.926838 0.336870 0.750738 0.090488
S6    S     S_3+6 0.971187 0.808083 0.536357 0.102728
S7    S     S_3+6 0.901012 0.200363 0.507127 0.090508
S8    S     S_3+6 0.109228 0.657697 0.264597 0.083762
S9    S     S_3+6 0.105850 0.371187 0.258893 0.074582

loop_
_geom_bond_atom_site_label_1
_geom_bond_atom_site_label_2
_ccdc_geom_bond_type
O2    S1    D    
C6    H30   S    
H16   O6    S    
O35   S1    D    
C20   H13   S    
H15   O3    S    
C7    C8    S    
C7    S1    S    
C22   S6    S    
H20   O19   S    
C18   H9    S    
H19   O16   S    
Cu1   N2    S    
C5    C6    S    
C23   S7    S    
C20   C25   S    
C15   C16   S    
Cu2   O34   S    
C18   C19   S    
C23   C26   S    
C14   C18   S    
Cu1   O1    S    
O7    S3    D    
C3    H27   S    
C16   C17   S    
Cu1   O31   S    
C17   H8    S    
O25   S8    D    
C5    H4    S    
O9    S3    S    
C11   O33   A    
C23   S5    S    
C10   O32   A    
C7    H2    S    
C4    H28   S    
O18   S6    D    
C1    C25   S    
H24   O29   S    
Cu2   O12   S    
O26   S8    S    
C7    N1    S    
O28   S9    D    
C19   S3    S    
C15   H1    S    
O21   S7    D    
C1    O12   A    
C5    N1    S    
H17   O9    S    
C6    N2    S    
C24   C25   S    
Cu2   O32   S    
C14   H7    S    
O14   S5    D    
O11   S4    D    
O3    S1    S    
C21   H14   S    
O20   S7    D    
C24   S9    S    
H21   O22   S    
C8    S2    S    
C20   H10   S    
C11   C16   S    
C21   H11   S    
C4    N2    S    
O22   S7    S    
C2    C26   S    
C9    O23   A    
C11   O34   A    
O4    S2    D    
C12   C14   S    
C10   O31   A    
C21   C23   S    
O29   S9    S    
C2    C24   S    
Cu1   O33   S    
C3    C4    S    
O10   S4    D    
O6    S2    S    
Cu2   N1    S    
O13   S4    S    
C21   C25   S    
C22   S4    S    
C4    H26   S    
C8    H3    S    
C20   C22   S    
C1    O1    A    
C9    O30   A    
C5    H29   S    
O16   S5    S    
C6    H5    S    
C13   C17   S    
C24   S8    S    
C13   C15   S    
O5    S2    D    
C13   H6    S    
C8    N2    S    
C3    H25   S    
C10   C26   S    
C12   C19   S    
Cu1   O23   S    
O15   S5    D    
C17   C19   S    
O17   S6    D    
C9    C12   S    
O8    S3    D    
C2    H23   S    
H22   O26   S    
O27   S9    D    
C2    H12   S    
C12   C13   S    
C16   C18   S    
C22   C26   S    
Cu1   Cu2   S    
O24   S8    D    
C14   C15   S    
O19   S6    S    
Cu2   O30   S    
H18   O13   S    
C3    N1    S    
