data_mof_unit_43704.cif
_audit_creation_date              2012-12-10T20:03:11-0500
_audit_creation_method            fapswitch 2.2
_symmetry_space_group_name_H-M    P1
_symmetry_Int_Tables_number       1
_space_group_crystal_system       triclinic
_cell_length_a                    8.586086
_cell_length_b                    18.841174
_cell_length_c                    18.477533
_cell_angle_alpha                 89.195545
_cell_angle_beta                  97.730849
_cell_angle_gamma                 90.082833
_cell_volume                      2961.68551993

loop_
_atom_site_label
_atom_site_type_symbol
_atom_type_description
_atom_site_fract_x
_atom_site_fract_y
_atom_site_fract_z
_atom_type_partial_charge
C1    C     C_R   0.494436 0.364905 0.500093 0.966880
C2    C     C_R   0.498633 0.634922 0.499372 0.966492
C3    C     C_R   0.341120 0.962826 0.562554 -0.404130
C4    C     C_R   0.279994 0.036595 0.429582 -0.402124
C5    C     C_R   0.342460 0.036764 0.562044 0.601245
C6    C     C_R   0.291777 0.962809 0.429739 0.606119
C7    C     C_R   0.312510 0.073895 0.494908 -0.012418
C8    C     C_R   0.323588 0.925785 0.496827 -0.015959
C9    C     C_R   0.587823 0.548506 0.730636 -0.129325
C10   C     C_R   0.378759 0.467587 0.268723 -0.129872
C11   C     C_R   0.594839 0.548920 0.807464 -0.108425
C12   C     C_R   0.371655 0.463852 0.192007 -0.128094
C13   C     C_R   0.507605 0.497589 0.842412 -0.128759
C14   C     C_R   0.497652 0.492913 0.158294 -0.145702
C15   C     C_R   0.418471 0.446797 0.798269 -0.207828
C16   C     C_R   0.624835 0.524847 0.203047 -0.204719
C17   C     C_R   0.413699 0.450369 0.721114 0.618953
C18   C     C_R   0.620487 0.530130 0.279238 0.604281
C19   C     C_R   0.566488 0.437944 0.966942 -0.087131
C20   C     C_R   0.439153 0.552099 0.034317 -0.137789
C21   C     C_R   0.559668 0.435823 0.042513 -0.043798
C22   C     C_R   0.443419 0.553704 0.958524 -0.093620
C23   C     C_R   0.201662 0.499837 0.481552 0.928705
C24   C     C_R   0.798261 0.502522 0.518306 0.956679
C25   C     C_R   0.496645 0.493051 0.077020 0.194396
C26   C     C_R   0.507613 0.496750 0.923901 0.216060
C27   C     C_2   0.039787 0.487825 0.474633 -0.264100
C28   C     C_2   0.959418 0.518105 0.524203 -0.338855
C29   C     C_R   0.315217 0.730302 0.458459 -0.353146
C30   C     C_R   0.334515 0.267625 0.540081 -0.368898
C31   C     C_R   0.262406 0.800021 0.462456 0.606831
C32   C     C_R   0.276157 0.198396 0.534552 0.618815
C33   C     C_R   0.364387 0.850334 0.498749 -0.014872
C34   C     C_R   0.345154 0.150051 0.491270 -0.020533
C35   C     C_R   0.511762 0.829478 0.535292 -0.383927
C36   C     C_R   0.458135 0.173194 0.447976 -0.390476
C37   C     C_R   0.558122 0.758354 0.536801 0.484772
C38   C     C_R   0.506017 0.244005 0.448618 0.534397
C39   C     C_R   0.460814 0.709608 0.496168 -0.196051
C40   C     C_R   0.450157 0.290308 0.498081 -0.216338
H1    H     H_    0.616749 0.393398 0.941786 0.137271
H2    H     H_    0.390818 0.596952 0.059790 0.140732
H3    H     H_    0.605806 0.390019 0.074397 0.138984
H4    H     H_    0.396518 0.599430 0.926731 0.134104
H5    H     H_    0.240317 0.691544 0.428082 0.202940
H6    H     H_    0.286406 0.304184 0.575838 0.227847
H7    H     H_    0.591539 0.868778 0.561665 0.174939
H8    H     H_    0.512573 0.135757 0.415098 0.177277
H9    H     H_    0.366096 0.934377 0.614206 0.188647
H10   H     H_    0.258108 0.065084 0.377842 0.187998
H11   H     H_    0.656047 0.586238 0.703334 0.203170
H12   H     H_    0.286561 0.444352 0.295808 0.232067
N1    N     N_R   0.500020 0.499980 0.689440 -0.142052
N2    N     N_R   0.499980 0.500020 0.310560 -0.148085
O1    O     O_R   0.500010 0.398180 0.560840 -0.580551
O2    O     O_R   0.499990 0.601820 0.439160 -0.644233
O3    O     O_R   0.499930 0.398180 0.439210 -0.591700
O4    O     O_R   0.500070 0.601820 0.560790 -0.594698
O5    O     O_R   0.271780 0.500000 0.546590 -0.601224
O6    O     O_R   0.728220 0.500000 0.453410 -0.560449
O7    O     O_R   0.271710 0.499990 0.424960 -0.609796
O8    O     O_R   0.728290 0.500010 0.575040 -0.598869
Zn1   Zn    Zn3+2 0.500050 0.500000 0.581210 1.016888
Zn2   Zn    Zn3+2 0.499950 0.500000 0.418790 1.008180
C41   C     C_2   0.982048 0.427147 0.427048 0.938930
O9    O     O_2   0.008464 0.425758 0.363665 -0.574163
O10   O     O_R   0.903273 0.370681 0.455849 -0.833407
H13   H     H_    0.879854 0.331052 0.419549 0.370986
C42   C     C_2   0.016296 0.579559 0.571578 0.919860
O11   O     O_2   0.962669 0.589434 0.628687 -0.629374
O12   O     O_R   0.125556 0.627560 0.549530 -0.824783
H14   H     H_    0.152931 0.666856 0.585987 0.337080
C43   C     C_2   0.331248 0.389348 0.831346 0.907780
O13   O     O_2   0.250605 0.402781 0.879175 -0.594000
O14   O     O_R   0.339354 0.319838 0.806571 -0.755196
H15   H     H_    0.274088 0.285490 0.832644 0.350352
C44   C     C_2   0.764539 0.550729 0.170879 0.998491
O15   O     O_2   0.815634 0.610382 0.183884 -0.631943
O16   O     O_R   0.837476 0.506730 0.125250 -0.783437
H16   H     H_    0.930500 0.530348 0.106326 0.362585
O17   O     O_3   0.326676 0.402131 0.676632 -0.583084
C45   C     C_3   0.164796 0.418063 0.672390 -0.239505
H17   H     H_    0.140287 0.475862 0.675618 0.165453
H18   H     H_    0.111701 0.389014 0.715572 0.184734
H19   H     H_    0.104489 0.399344 0.619224 0.177255
O18   O     O_3   0.746712 0.559183 0.323317 -0.579244
C46   C     C_3   0.718928 0.631960 0.334455 -0.180199
H20   H     H_    0.756498 0.643844 0.392832 0.168959
H21   H     H_    0.594090 0.649226 0.320216 0.132123
H22   H     H_    0.793464 0.664959 0.302826 0.203458
O19   O     O_3   0.115986 0.820519 0.427665 -0.574542
C47   C     C_3   0.997884 0.787589 0.462565 -0.248589
H23   H     H_    0.017786 0.795060 0.522831 0.172878
H24   H     H_    0.988144 0.730244 0.449505 0.179616
H25   H     H_    0.883319 0.812520 0.441721 0.192820
O20   O     O_3   0.160509 0.176073 0.575214 -0.563599
C48   C     C_3   0.017431 0.209757 0.548086 -0.254899
H26   H     H_    0.987741 0.203382 0.487935 0.162932
H27   H     H_    0.019954 0.266868 0.562434 0.182593
H28   H     H_    0.921790 0.184503 0.574114 0.194690
O21   O     O_3   0.704081 0.736972 0.571352 -0.641236
C49   C     C_3   0.710648 0.746043 0.647344 -0.210028
H29   H     H_    0.720399 0.803086 0.661721 0.149684
H30   H     H_    0.817598 0.719058 0.674971 0.231531
H31   H     H_    0.607637 0.721478 0.668820 0.173133
O22   O     O_3   0.618918 0.266465 0.406660 -0.615807
C50   C     C_3   0.553060 0.268024 0.332459 -0.261320
H32   H     H_    0.638051 0.293939 0.300326 0.197394
H33   H     H_    0.442555 0.299773 0.323492 0.174488
H34   H     H_    0.531652 0.213471 0.311211 0.153624
O23   O     O_3   0.378349 0.072499 0.627034 -0.556136
C51   C     C_3   0.543119 0.073625 0.645726 -0.273157
H35   H     H_    0.601797 0.099767 0.602199 0.150351
H36   H     H_    0.590912 0.019196 0.657486 0.149217
H37   H     H_    0.571904 0.105001 0.696106 0.214257
O24   O     O_3   0.277066 0.927307 0.364182 -0.558694
C52   C     C_3   0.422556 0.930000 0.336756 -0.296378
H38   H     H_    0.518117 0.905413 0.375785 0.154122
H39   H     H_    0.454160 0.985449 0.323147 0.153589
H40   H     H_    0.412347 0.899181 0.285630 0.207408
C53   C     C_2   0.700014 0.601317 0.849169 0.932616
O25   O     O_2   0.729231 0.657745 0.820326 -0.656999
O26   O     O_R   0.769779 0.585771 0.920439 -0.781151
H41   H     H_    0.839271 0.625632 0.942482 0.352524
C54   C     C_2   0.231671 0.429024 0.150204 0.930638
O27   O     O_2   0.214328 0.427675 0.083487 -0.591739
O28   O     O_R   0.117644 0.397631 0.187742 -0.778571
H42   H     H_    0.028141 0.375902 0.153795 0.365906

loop_
_geom_bond_atom_site_label_1
_geom_bond_atom_site_label_2
_ccdc_geom_bond_type
C30   C32   A    
C46   H20   S    
O21   C49   S    
C43   O14   S    
C43   O13   D    
O23   C51   S    
C9    H11   S    
C35   H7    S    
C51   H36   S    
C48   H26   S    
C3    H9    S    
O26   H41   S    
C44   O15   D    
C23   O5    A    
C18   O18   S    
C35   C37   A    
C52   H39   S    
O22   C50   S    
O24   C52   S    
C49   H31   S    
C16   C44   S    
C42   O12   S    
C19   C26   A    
N1    Zn1   S    
C1    C40   S    
C49   H29   S    
C21   H3    S    
C2    C39   S    
C22   H4    S    
C28   C42   S    
C41   O10   S    
O1    Zn1   S    
C50   H32   S    
O2    Zn2   S    
C23   C27   S    
C17   O17   S    
C10   H12   S    
C38   C40   A    
C50   H33   S    
C11   C53   S    
C4    C7    A    
C51   H35   S    
C48   H27   S    
O17   C45   S    
C44   O16   S    
C37   C39   A    
C31   C33   A    
O10   H13   S    
C4    C6    A    
C3    C8    A    
C52   H40   S    
O19   C47   S    
C5    C7    A    
O18   C46   S    
C6    C8    A    
C12   C54   S    
C5    O23   S    
C47   H25   S    
C4    H10   S    
C32   C34   A    
C38   O22   S    
O7    Zn2   S    
O14   H15   S    
O8    Zn1   S    
C27   C41   S    
C1    O3    A    
C24   O6    A    
O20   C48   S    
C29   C39   A    
C47   H24   S    
C30   C40   A    
C49   H30   S    
C9    C11   A    
C6    O24   S    
C53   O25   D    
C10   C12   A    
C15   C43   S    
C12   C14   A    
C41   O9    D    
C45   H18   S    
C13   C15   A    
C22   C26   A    
C54   O27   D    
C50   H34   S    
C14   C16   A    
C13   C26   S    
C9    N1    A    
O28   H42   S    
C17   N1    A    
C48   H28   S    
C7    C34   S    
O3    Zn2   S    
O4    Zn1   S    
C15   C17   A    
C21   C25   A    
C24   O8    A    
C32   O20   S    
O5    Zn1   S    
C30   H6    S    
C24   C28   S    
C20   C22   A    
C3    C5    A    
C20   H2    S    
C2    O4    A    
C45   H19   S    
C31   O19   S    
O6    Zn2   S    
C36   C38   A    
C1    O1    A    
O12   H14   S    
C29   C31   A    
C2    O2    A    
C52   H38   S    
C37   O21   S    
C11   C13   A    
N2    Zn2   S    
C47   H23   S    
C33   C35   A    
C36   H8    S    
C34   C36   A    
C8    C33   S    
C14   C25   S    
C42   O11   D    
C10   N2    A    
C53   O26   S    
C18   N2    A    
O16   H16   S    
C23   O7    A    
C16   C18   A    
C45   H17   S    
C20   C25   A    
C46   H22   S    
C29   H5    S    
C27   C28   D    
C54   O28   S    
C46   H21   S    
C51   H37   S    
C19   H1    S    
C19   C21   A    
