data_mof_unit_62668.cif
_audit_creation_date              2012-12-10T17:07:09-0500
_audit_creation_method            fapswitch 2.2
_symmetry_space_group_name_H-M    P1
_symmetry_Int_Tables_number       1
_space_group_crystal_system       triclinic
_cell_length_a                    10.035407
_cell_length_b                    10.752306
_cell_length_c                    13.631471
_cell_angle_alpha                 90.079537
_cell_angle_beta                  82.948327
_cell_angle_gamma                 90.030229
_cell_volume                      1459.75954078

loop_
_atom_site_label
_atom_site_type_symbol
_atom_type_description
_atom_site_fract_x
_atom_site_fract_y
_atom_site_fract_z
_atom_type_partial_charge
C1    C     C_R   0.499861 0.737302 0.501956 0.931126
C2    C     C_R   0.500429 0.262713 0.497634 0.928514
C3    C     C_R   0.524068 0.500078 0.314354 0.891685
C4    C     C_1   0.542104 0.500182 0.210628 -0.140992
C5    C     C_2   0.552996 0.500293 0.019293 -0.227738
C6    C     C_2   0.437093 0.497549 0.981243 0.206519
C7    C     C_1   0.443578 0.498309 0.877220 -0.013984
C8    C     C_1   0.552137 0.500260 0.122907 0.069940
C9    C     C_1   0.457019 0.499102 0.789427 -0.170155
C10   C     C_2   0.612475 0.066960 0.500050 -0.154637
C11   C     C_2   0.501996 0.131246 0.487783 -0.323745
C12   C     C_2   0.613122 0.933082 0.494286 -0.152351
C13   C     C_2   0.498673 0.868882 0.510482 -0.321877
C14   C     C_2   0.084488 0.429335 0.442525 -0.097721
C15   C     C_2   0.933860 0.424559 0.446467 -0.119321
C16   C     C_R   0.475876 0.499899 0.685667 0.902438
H1    H     H_    0.891437 0.568282 0.538234 0.165810
H2    H     H_    0.648911 0.502913 0.972530 0.152704
H3    H     H_    0.705040 0.112613 0.513817 0.175681
H4    H     H_    0.411225 0.088598 0.467762 0.153382
H5    H     H_    0.709806 0.887272 0.477833 0.176369
H6    H     H_    0.401883 0.911638 0.532739 0.152788
H7    H     H_    0.142766 0.368969 0.389752 0.170514
H8    H     H_    0.093434 0.551281 0.552436 0.163545
H9    H     H_    0.891880 0.355474 0.400956 0.163298
I1    I     I_    0.244802 0.492282 0.066364 -0.352658
N1    N     N_2   0.147970 0.498670 0.498970 -0.190148
N2    N     N_2   0.852310 0.498640 0.498940 -0.190691
O1    O     O_R   0.386960 0.680940 0.500020 -0.612904
O2    O     O_R   0.613100 0.680900 0.499980 -0.615252
O3    O     O_R   0.370650 0.500000 0.640370 -0.603659
O4    O     O_R   0.596800 0.499960 0.640330 -0.607007
O5    O     O_R   0.386900 0.319100 0.500020 -0.615575
O6    O     O_R   0.613040 0.319060 0.499980 -0.614467
O7    O     O_R   0.403200 0.500040 0.359670 -0.592100
O8    O     O_R   0.629350 0.500000 0.359630 -0.606548
Zn1   Zn    Zn3+2 0.349000 0.500030 0.500020 0.965460
Zn2   Zn    Zn3+2 0.651000 0.499970 0.499980 0.953755

loop_
_geom_bond_atom_site_label_1
_geom_bond_atom_site_label_2
_ccdc_geom_bond_type
C14   H7    S    
C5    C8    S    
C6    C7    S    
O4    Zn2   S    
C14   N1    D    
C16   O4    A    
H8    N1    S    
C3    O7    A    
C10   H3    S    
C4    C8    T    
C2    O6    A    
C1    O1    A    
C16   O3    A    
C15   N2    D    
C6    I1    S    
C10   C12   S    
C3    O8    A    
N1    Zn1   S    
C2    C11   S    
C2    O5    A    
O8    Zn2   S    
C1    O2    A    
O7    Zn1   S    
C9    C16   S    
C13   H6    S    
C5    C6    D    
C11   H4    S    
C15   H9    S    
C1    C13   S    
C10   C11   D    
C3    C4    S    
C12   C13   D    
O2    Zn2   S    
O1    Zn1   S    
C7    C9    T    
C14   C15   S    
C5    H2    S    
N2    Zn2   S    
O6    Zn2   S    
H1    N2    S    
C12   H5    S    
O5    Zn1   S    
O3    Zn1   S    
