data_mof_unit_26744.cif
_audit_creation_date              2012-12-10T21:36:34-0500
_audit_creation_method            fapswitch 2.2
_symmetry_space_group_name_H-M    P1
_symmetry_Int_Tables_number       1
_space_group_crystal_system       triclinic
_cell_length_a                    10.522653
_cell_length_b                    16.142217
_cell_length_c                    16.680178
_cell_angle_alpha                 87.497207
_cell_angle_beta                  90.984918
_cell_angle_gamma                 89.962882
_cell_volume                      2830.15383157

loop_
_atom_site_label
_atom_site_type_symbol
_atom_type_description
_atom_site_fract_x
_atom_site_fract_y
_atom_site_fract_z
_atom_type_partial_charge
C1    C     C_R   0.501279 0.488672 0.653003 0.937023
C2    C     C_R   0.503611 0.510959 0.347039 0.929675
C3    C     C_R   0.583253 0.454067 0.900463 0.113040
C4    C     C_R   0.567288 0.516598 0.097295 0.121018
C5    C     C_R   0.484272 0.408407 0.865483 0.413342
C6    C     C_R   0.497044 0.580884 0.130621 0.321806
C7    C     C_R   0.456823 0.420621 0.783980 -0.279769
C8    C     C_R   0.478253 0.580422 0.213006 -0.274512
C9    C     C_R   0.431146 0.750800 0.454909 -0.080705
C10   C     C_R   0.565284 0.248696 0.546993 -0.080265
C11   C     C_R   0.413847 0.836334 0.444886 0.416392
C12   C     C_R   0.583231 0.163032 0.555993 0.422455
C13   C     C_R   0.489435 0.889676 0.489521 0.158610
C14   C     C_R   0.511950 0.110063 0.508127 0.143421
C15   C     C_R   0.578662 0.853774 0.545697 -0.449444
C16   C     C_R   0.427287 0.146602 0.449513 -0.416683
C17   C     C_R   0.590082 0.765301 0.556234 0.642785
C18   C     C_R   0.416572 0.234383 0.440346 0.624738
C19   C     C_R   0.742486 0.498067 0.501107 1.041133
C20   C     C_R   0.257597 0.501983 0.498170 1.050876
C21   C     C_3   0.966642 0.418674 0.503719 0.265523
C22   C     C_3   0.033604 0.581251 0.494261 0.268950
C23   C     C_3   0.047860 0.462977 0.566040 0.271676
C24   C     C_3   0.952335 0.536892 0.431935 0.277364
C25   C     C_3   0.123193 0.505233 0.497357 -0.390280
C26   C     C_3   0.876955 0.494784 0.500837 -0.394356
C27   C     C_3   0.041274 0.461095 0.434929 0.291657
C28   C     C_3   0.959248 0.538825 0.563099 0.306228
C29   C     C_R   0.524351 0.479428 0.738405 -0.164204
C30   C     C_R   0.527706 0.516050 0.262014 -0.127892
C31   C     C_R   0.624459 0.523291 0.772418 -0.269375
C32   C     C_R   0.603968 0.455213 0.230611 -0.317662
C33   C     C_R   0.656807 0.510307 0.853182 0.379551
C34   C     C_R   0.627797 0.454793 0.149081 0.323570
H1    H     H_    0.639587 0.894477 0.578710 0.188194
H2    H     H_    0.368682 0.108081 0.412398 0.203585
H3    H     H_    0.645715 0.407696 0.270738 0.209443
H4    H     H_    0.680662 0.565304 0.734983 0.234230
H5    H     H_    0.381842 0.385433 0.755987 0.217214
H6    H     H_    0.421068 0.628044 0.238686 0.208417
H7    H     H_    0.617826 0.288708 0.585798 0.224978
H8    H     H_    0.375724 0.710339 0.418131 0.223342
N1    N     N_2   0.597062 0.449429 0.984034 0.000916
N2    N     N_2   0.565962 0.515976 0.012555 -0.060970
N3    N     N_R   0.515540 0.716920 0.509720 -0.165134
N4    N     N_R   0.484460 0.283080 0.490280 -0.172004
N5    N     N_2   0.475892 0.977420 0.473013 -0.126933
N6    N     N_2   0.525411 0.022274 0.523969 -0.124348
O1    O     O_R   0.494440 0.422540 0.612660 -0.639502
O2    O     O_R   0.505560 0.577460 0.387340 -0.639648
O3    O     O_R   0.504420 0.561850 0.618900 -0.581686
O4    O     O_R   0.495580 0.438150 0.381100 -0.605409
O5    O     O_R   0.681060 0.430360 0.496900 -0.608422
O6    O     O_R   0.318940 0.569640 0.503100 -0.609210
O7    O     O_R   0.691040 0.569670 0.503140 -0.554981
O8    O     O_R   0.308960 0.430330 0.496860 -0.552416
Zn1   Zn    Zn3+2 0.493340 0.406980 0.495830 1.034085
Zn2   Zn    Zn3+2 0.506660 0.593020 0.504170 1.045789
O9    O     O_3   0.112567 0.424538 0.632662 -0.629293
C35   C     C_3   0.029818 0.410180 0.697450 -0.053444
H9    H     H_    0.926725 0.413619 0.681277 0.180687
H10   H     H_    0.050904 0.455356 0.744021 0.192691
H11   H     H_    0.048925 0.347281 0.724411 0.209996
O10   O     O_3   0.887597 0.575204 0.365241 -0.615513
C36   C     C_3   0.969961 0.588223 0.300033 -0.089220
H12   H     H_    0.951119 0.540874 0.255108 0.168012
H13   H     H_    0.072987 0.587312 0.316548 0.185822
H14   H     H_    0.948531 0.649789 0.270781 0.197990
O11   O     O_3   0.677779 0.724547 0.607694 -0.563850
C37   C     C_3   0.724300 0.774029 0.669220 -0.201189
H15   H     H_    0.645963 0.804682 0.700817 0.168384
H16   H     H_    0.794532 0.819734 0.645303 0.170567
H17   H     H_    0.775240 0.733346 0.714243 0.229887
O12   O     O_3   0.331444 0.271257 0.385861 -0.553665
C38   C     C_3   0.376598 0.262053 0.307665 -0.214171
H18   H     H_    0.369884 0.196491 0.290225 0.159831
H19   H     H_    0.475908 0.285047 0.301345 0.157695
H20   H     H_    0.315933 0.299822 0.265026 0.199991
S1    S     S_3+6 0.924115 0.311535 0.512755 0.016584
O13   O     O_2   0.868260 0.292018 0.593599 -0.330874
O14   O     O_2   0.827960 0.292122 0.448670 -0.319811
O15   O     O_3   0.054222 0.252796 0.502050 -0.511199
H21   H     H_    0.117786 0.274163 0.540431 0.382697
S2    S     S_3+6 0.074620 0.688678 0.485233 0.014322
O16   O     O_2   0.172545 0.708230 0.548191 -0.321993
O17   O     O_2   0.127469 0.709148 0.403734 -0.325557
O18   O     O_3   0.944275 0.746586 0.498080 -0.526276
H22   H     H_    0.879388 0.724696 0.460875 0.383794
O19   O     O_3   0.100103 0.425782 0.369010 -0.606338
C39   C     C_3   0.011323 0.380467 0.324505 -0.035497
H23   H     H_    0.912026 0.404173 0.327151 0.163512
H24   H     H_    0.015033 0.314199 0.344868 0.241203
H25   H     H_    0.039294 0.384136 0.260643 0.181954
O20   O     O_3   0.903558 0.574821 0.629705 -0.601361
C40   C     C_3   0.995793 0.618280 0.673469 -0.096587
H26   H     H_    0.992621 0.684955 0.654628 0.226837
H27   H     H_    0.094407 0.593990 0.668529 0.162315
H28   H     H_    0.971601 0.613401 0.737766 0.215007
S3    S     S_3+6 0.732632 0.375673 0.118444 0.073092
O21   O     O_2   0.828347 0.411303 0.060798 -0.154146
O22   O     O_2   0.802893 0.336124 0.189415 -0.338781
O23   O     O_3   0.648610 0.301734 0.073482 -0.448638
H29   H     H_    0.581603 0.285537 0.112092 0.351146
S4    S     S_3+6 0.795968 0.560106 0.889026 0.082609
O24   O     O_2   0.908959 0.510163 0.865830 -0.255367
O25   O     O_2   0.805288 0.644995 0.848829 -0.344326
O26   O     O_3   0.802609 0.569604 0.988967 -0.470918
H30   H     H_    0.775896 0.627262 0.997847 0.372992
S5    S     S_3+6 0.391961 0.337173 0.923288 0.089584
O27   O     O_2   0.273370 0.314514 0.877744 -0.264058
O28   O     O_2   0.469696 0.260308 0.941498 -0.233139
O29   O     O_3   0.351254 0.378983 0.009869 -0.523674
H31   H     H_    0.319171 0.331988 0.043905 0.382307
S6    S     S_3+6 0.423940 0.659553 0.068476 0.086901
O30   O     O_2   0.318118 0.621750 0.020788 -0.185190
O31   O     O_2   0.370252 0.726753 0.117624 -0.260709
O32   O     O_3   0.530640 0.700891 0.004450 -0.501221
H32   H     H_    0.596134 0.726025 0.039116 0.352979
O33   O     O_3   0.664251 0.132366 0.616479 -0.580629
C41   C     C_3   0.775019 0.100240 0.582495 -0.102016
H33   H     H_    0.808418 0.138143 0.529569 0.208736
H34   H     H_    0.759957 0.035198 0.565672 0.136070
H35   H     H_    0.852538 0.099777 0.628427 0.206201
O34   O     O_3   0.329073 0.866373 0.386222 -0.580749
C42   C     C_3   0.221593 0.900042 0.422698 -0.089459
H36   H     H_    0.239152 0.965302 0.437978 0.140951
H37   H     H_    0.191199 0.863290 0.477099 0.202636
H38   H     H_    0.140975 0.900338 0.378956 0.207656

loop_
_geom_bond_atom_site_label_1
_geom_bond_atom_site_label_2
_ccdc_geom_bond_type
O18   H22   S    
C9    N3    A    
C7    C29   A    
C33   S4    S    
C11   O34   S    
C24   C27   S    
C20   O8    A    
S4    O25   D    
S6    O30   D    
C40   H28   S    
C23   O9    S    
C3    N1    S    
C9    H8    S    
C35   H11   S    
C28   O20   S    
C24   C26   S    
S5    O28   D    
C20   C25   S    
C3    C33   A    
O1    Zn1   S    
O8    Zn1   S    
C35   H10   S    
C38   H19   S    
C19   C26   S    
O29   H31   S    
C2    O2    A    
C6    S6    S    
S3    O21   D    
C36   H13   S    
C22   C25   S    
C10   N4    A    
C42   H38   S    
O26   H30   S    
S2    O18   S    
C37   H15   S    
C41   H35   S    
C19   O5    A    
C21   C27   S    
O9    C35   S    
C18   O12   S    
C22   C28   S    
C10   H7    S    
O11   C37   S    
C18   N4    A    
C15   H1    S    
S4    O24   D    
C21   C26   S    
C41   H34   S    
C10   C12   A    
C4    C34   A    
N3    Zn2   S    
O12   C38   S    
O23   H29   S    
O2    Zn2   S    
S2    O16   D    
C20   O6    A    
S5    O29   S    
S1    O14   D    
O5    Zn1   S    
C14   N6    S    
C4    N2    S    
C32   H3    S    
C35   H9    S    
C22   S2    S    
C38   H18   S    
C12   O33   S    
C1    O3    A    
C39   H24   S    
N5    N6    D    
C36   H14   S    
C21   S1    S    
C37   H17   S    
C1    C29   S    
C34   S3    S    
O3    Zn2   S    
C23   C28   S    
C9    C11   A    
C2    O4    A    
C4    C6    A    
S3    O22   D    
C12   C14   A    
O15   H21   S    
C13   C15   A    
N4    Zn1   S    
C42   H36   S    
C22   C24   S    
C41   H33   S    
C39   H25   S    
C13   N5    S    
O6    Zn2   S    
C19   O7    A    
C15   C17   A    
S6    O31   D    
C17   O11   S    
C31   C33   A    
C16   C18   A    
C17   N3    A    
C3    C5    A    
S1    O15   S    
C6    C8    A    
O33   C41   S    
C40   H27   S    
C25   C27   S    
C26   C28   S    
C31   H4    S    
C2    C30   S    
C8    C30   A    
O10   C36   S    
C21   C23   S    
C5    C7    A    
C29   C31   A    
O32   H32   S    
C16   H2    S    
C30   C32   A    
C11   C13   A    
C39   H23   S    
C5    S5    S    
N1    N2    D    
C27   O19   S    
C14   C16   A    
C23   C25   S    
O20   C40   S    
C38   H20   S    
S6    O32   S    
O4    Zn1   S    
S1    O13   D    
S3    O23   S    
C24   O10   S    
C36   H12   S    
O7    Zn2   S    
C40   H26   S    
C42   H37   S    
C7    H5    S    
S2    O17   D    
C37   H16   S    
C8    H6    S    
O19   C39   S    
S5    O27   D    
C1    O1    A    
S4    O26   S    
C32   C34   A    
O34   C42   S    
