data_mof_unit_9899.cif
_audit_creation_date              2012-10-26T19:30:36-0400
_audit_creation_method            fapswitch 2.2
_symmetry_space_group_name_H-M    P1
_symmetry_Int_Tables_number       1
_space_group_crystal_system       triclinic
_cell_length_a                    19.333181
_cell_length_b                    10.710138
_cell_length_c                    9.517017
_cell_angle_alpha                 88.421492
_cell_angle_beta                  91.416644
_cell_angle_gamma                 89.592882
_cell_volume                      1969.19372994

loop_
_atom_site_label
_atom_site_type_symbol
_atom_type_description
_atom_site_fract_x
_atom_site_fract_y
_atom_site_fract_z
_atom_type_partial_charge
C1    C     C_R   0.501470 0.260093 0.501616 0.641258
C2    C     C_3   0.550265 0.042911 0.415179 -0.081233
C3    C     C_3   0.521603 0.604355 0.047430 0.311574
C4    C     C_3   0.478498 0.395702 0.952816 0.308812
C5    C     C_3   0.460596 0.586511 0.945538 0.247541
C6    C     C_3   0.539372 0.413605 0.054561 0.310116
C7    C     C_3   0.561798 0.518035 0.953671 0.042011
C8    C     C_3   0.438221 0.481846 0.046560 0.042758
C9    C     C_R   0.367710 0.500669 0.498644 0.638877
C10   C     C_R   0.632101 0.501352 0.501340 0.559017
C11   C     C_R   0.253569 0.420890 0.581710 -0.005857
C12   C     C_R   0.499217 0.739867 0.498264 0.596529
C13   C     C_R   0.741472 0.601701 0.424701 0.024764
C14   C     C_R   0.180582 0.428636 0.582368 0.207429
C15   C     C_R   0.814120 0.609437 0.428994 0.259853
C16   C     C_R   0.145667 0.522326 0.501929 0.068774
C17   C     C_R   0.853798 0.518864 0.507224 0.010311
C18   C     C_R   0.182393 0.607870 0.416820 -0.061336
C19   C     C_R   0.820929 0.423003 0.585535 -0.044475
C20   C     C_R   0.255370 0.599576 0.413426 -0.054320
C21   C     C_R   0.747912 0.417108 0.585098 -0.037252
C22   C     C_R   0.291132 0.505823 0.496076 0.024144
C23   C     C_3   0.514410 0.033947 0.631903 -0.018916
C24   C     C_R   0.708310 0.506497 0.503991 -0.030685
C25   C     C_R   0.929817 0.523461 0.505567 0.357468
C26   C     C_R   0.069570 0.524780 0.502875 0.438971
C27   C     C_2   0.289402 0.324895 0.673459 0.214939
C28   C     C_2   0.699830 0.698317 0.343057 0.326073
C29   C     C_2   0.634210 0.535517 0.905796 0.318195
C30   C     C_2   0.365939 0.463239 0.094682 0.296149
C31   C     C_2   0.144987 0.711249 0.338158 0.266361
C32   C     C_2   0.862896 0.323950 0.661508 0.281259
C33   C     C_2   0.293734 0.696207 0.331958 0.255295
C34   C     C_3   0.487267 0.965824 0.367061 -0.025772
C35   C     C_2   0.714051 0.312049 0.662835 0.269428
C36   C     C_2   0.630813 0.900170 0.591912 0.267072
C37   C     C_2   0.370670 0.096722 0.403882 0.347802
C38   C     C_2   0.531499 0.066672 0.780883 0.336631
C39   C     C_2   0.470985 0.934885 0.217124 0.334189
C40   C     C_2   0.395685 0.912343 0.680027 0.294592
C41   C     C_2   0.606143 0.087938 0.319953 0.291263
C42   C     C_3   0.562047 0.952905 0.543215 -0.031551
C43   C     C_3   0.439520 0.046684 0.455573 -0.016353
C44   C     C_3   0.499064 0.876199 0.495310 0.006817
C45   C     C_3   0.502397 0.123637 0.503777 0.020806
C46   C     C_3   0.451292 0.956984 0.583911 -0.065034
Cu1   Cu    Cu3+1 0.500020 0.499990 0.643150 1.131685
Cu2   Cu    Cu3+1 0.499980 0.500010 0.356850 1.161537
H1    H     H_    0.270486 0.303453 0.777744 0.156717
H2    H     H_    0.736706 0.273660 0.759991 0.102926
H3    H     H_    0.677302 0.925564 0.536842 0.155610
H4    H     H_    0.323586 0.064268 0.451997 0.167864
H5    H     H_    0.496640 0.041646 0.864267 0.110218
H6    H     H_    0.505853 0.962548 0.134794 0.093260
H7    H     H_    0.397578 0.935457 0.790138 0.123250
H8    H     H_    0.605807 0.062108 0.210705 0.128870
H9    H     H_    0.397225 0.723243 0.961913 0.332833
H10   H     H_    0.602343 0.276204 0.038290 0.336744
H11   H     H_    0.552929 0.771953 0.018516 0.346218
H12   H     H_    0.647175 0.719512 0.371400 0.086048
H13   H     H_    0.410888 0.299455 0.855379 0.367398
H14   H     H_    0.661778 0.457882 0.862598 0.096820
H15   H     H_    0.337569 0.540941 0.135520 0.095861
H16   H     H_    0.166484 0.263712 0.670325 0.340926
H17   H     H_    0.890955 0.725091 0.400312 0.351368
H18   H     H_    0.159967 0.739396 0.233097 0.115889
H19   H     H_    0.850737 0.294773 0.767935 0.114685
H20   H     H_    0.274493 0.730029 0.229938 0.099330
N1    N     N_R   0.032046 0.519165 0.380868 -0.176484
N2    N     N_R   0.967320 0.529437 0.627517 -0.176061
N3    N     N_R   0.963262 0.518557 0.382185 -0.155592
N4    N     N_R   0.036085 0.529903 0.626190 -0.117382
N5    N     N_3   0.500050 0.499970 0.858290 -0.284773
N6    N     N_3   0.499950 0.500030 0.141710 -0.252850
O1    O     O_R   0.500030 0.316850 0.620870 -0.451383
O2    O     O_2   0.723379 0.754527 0.241864 -0.366913
O3    O     O_2   0.663273 0.635312 0.919394 -0.404343
O4    O     O_2   0.337901 0.362172 0.084151 -0.445972
O5    O     O_3   0.141036 0.343783 0.657266 -0.645499
O6    O     O_3   0.844525 0.709148 0.358989 -0.592169
O7    O     O_2   0.097739 0.767831 0.391501 -0.437757
O8    O     O_2   0.910834 0.272481 0.604490 -0.409793
O9    O     O_2   0.346649 0.741462 0.379560 -0.420285
O10   O     O_2   0.660934 0.265228 0.618104 -0.410715
O11   O     O_2   0.634793 0.828725 0.693841 -0.446387
O12   O     O_R   0.499970 0.683150 0.379130 -0.459302
O13   O     O_2   0.367194 0.172366 0.305804 -0.420868
O14   O     O_2   0.585089 0.120660 0.809636 -0.442748
O15   O     O_2   0.417866 0.880464 0.186071 -0.457939
O16   O     O_2   0.347511 0.851083 0.635125 -0.426623
O17   O     O_2   0.653108 0.151991 0.364997 -0.407322
O18   O     O_3   0.418351 0.679692 0.882916 -0.653587
O19   O     O_3   0.581520 0.320296 0.117250 -0.633288
O20   O     O_3   0.545692 0.716183 0.101623 -0.650078
O21   O     O_3   0.456537 0.281766 0.900917 -0.648738
O22   O     O_R   0.500000 0.316860 0.379090 -0.439847
O23   O     O_R   0.500000 0.683140 0.620910 -0.449411
O24   O     O_R   0.400160 0.499980 0.620930 -0.454276
O25   O     O_R   0.599840 0.500020 0.379070 -0.467000
O26   O     O_R   0.400130 0.499990 0.379150 -0.501689
O27   O     O_R   0.599870 0.500010 0.620850 -0.505266
O28   O     O_2   0.338780 0.266106 0.632113 -0.548011

loop_
_geom_bond_atom_site_label_1
_geom_bond_atom_site_label_2
_ccdc_geom_bond_type
C31   H18   S    
C9    O24   A    
C23   C45   S    
H9    O18   S    
C26   N4    A    
C36   C42   S    
C4    C8    S    
C7    N5    S    
C40   C46   S    
Cu1   O24   S    
C7    C29   S    
C25   N2    A    
C19   C21   A    
H10   O19   S    
C3    C7    S    
C11   C14   A    
C9    C22   S    
C39   H6    S    
C2    C41   S    
N1    N3    A    
C3    N6    S    
C15   O6    S    
C13   C28   S    
C25   N3    A    
H11   O20   S    
C18   C20   A    
C40   H7    S    
C2    C34   S    
H17   O6    S    
C30   H15   S    
C42   C44   S    
C19   C32   S    
C44   C46   S    
C6    N6    S    
C28   H12   S    
C2    C45   S    
C16   C26   S    
Cu2   O26   S    
C34   C39   S    
C1    O1    A    
Cu2   N6    S    
C34   C44   S    
Cu1   N5    S    
C4    C6    S    
C37   H4    S    
C10   C24   S    
C13   C24   A    
C38   O14   D    
C37   C43   S    
C41   H8    S    
C4    O21   S    
C43   C45   S    
C23   C42   S    
Cu1   Cu2   S    
C11   C27   S    
C6    O19   S    
C35   H2    S    
C8    N6    S    
C12   O23   A    
C14   O5    S    
C33   O9    D    
C4    N5    S    
C36   H3    S    
C32   H19   S    
C20   C33   S    
C41   O17   D    
C20   C22   A    
C9    O26   A    
C13   C15   A    
H16   O5    S    
C14   C16   A    
C28   O2    D    
C15   C17   A    
Cu2   O25   S    
C29   H14   S    
Cu2   O22   S    
C37   O13   D    
C10   O27   A    
C34   C43   S    
C3    C5    S    
Cu1   O23   S    
C5    C8    S    
C35   O10   D    
H13   O21   S    
C6    C7    S    
C21   C35   S    
C36   O11   D    
C23   C38   S    
C32   O8    D    
C27   O28   D    
C31   O7    D    
C12   O12   A    
C17   C25   S    
C8    C30   S    
C12   C44   S    
C1    C45   S    
C38   H5    S    
C2    C42   S    
C1    O22   A    
C17   C19   A    
C3    O20   S    
Cu2   O12   S    
Cu1   O27   S    
C5    N5    S    
C10   O25   A    
C43   C46   S    
C5    O18   S    
Cu1   O1    S    
C30   O4    D    
C29   O3    D    
C11   C22   A    
C16   C18   A    
C21   C24   A    
C23   C46   S    
C26   N1    A    
N2    N4    A    
C18   C31   S    
C40   O16   D    
C39   O15   D    
C27   H1    S    
C33   H20   S    
