data_mof_unit_68113.cif
_audit_creation_date              2013-03-05T15:58:25-0500
_audit_creation_method            fapswitch 2.2
_symmetry_space_group_name_H-M    P1
_symmetry_Int_Tables_number       1
_space_group_crystal_system       triclinic
_cell_length_a                    7.351976
_cell_length_b                    15.59059
_cell_length_c                    15.509326
_cell_angle_alpha                 89.957839
_cell_angle_beta                  89.486029
_cell_angle_gamma                 89.561264
_cell_volume                      1777.58039899

loop_
_atom_site_label
_atom_site_type_symbol
_atom_site_description
_atom_site_fract_x
_atom_site_fract_y
_atom_site_fract_z
_atom_type_partial_charge
O1    O     O_R   0.388780 0.834790 0.412340 -0.631560
O2    O     O_R   0.111220 0.165210 0.912340 -0.630248
O3    O     O_R   0.888780 0.665210 0.587660 -0.630417
O4    O     O_R   0.611220 0.334790 0.087660 -0.616616
O5    O     O_R   0.059040 0.845930 0.587040 -0.553614
O6    O     O_R   0.440960 0.154070 0.087040 -0.537308
O7    O     O_R   0.559040 0.654070 0.412960 -0.539590
O8    O     O_R   0.940960 0.345930 0.912960 -0.548738
C1    C     C_R   0.227248 0.868637 0.614409 0.860561
C2    C     C_R   0.271160 0.130223 0.113656 0.855931
C3    C     C_R   0.727906 0.630851 0.386902 0.875042
C4    C     C_R   0.772104 0.368283 0.885441 0.864321
O9    O     O_R   0.059070 0.845930 0.412970 -0.542655
O10   O     O_R   0.440930 0.154070 0.912970 -0.541080
O11   O     O_R   0.559070 0.654070 0.587030 -0.544983
O12   O     O_R   0.940930 0.345930 0.087030 -0.567182
O13   O     O_R   0.888760 0.665210 0.412340 -0.579710
O14   O     O_R   0.611240 0.334790 0.912340 -0.586037
O15   O     O_R   0.388760 0.834790 0.587660 -0.579542
O16   O     O_R   0.111240 0.165210 0.087660 -0.585730
C5    C     C_R   0.227880 0.863044 0.380898 0.942011
C6    C     C_R   0.272710 0.135539 0.881569 0.941367
C7    C     C_R   0.728288 0.633566 0.616572 0.929426
C8    C     C_R   0.771418 0.367267 0.116349 0.978669
O17   O     O_3   0.222280 0.690700 0.500000 -0.275386
O18   O     O_3   0.277720 0.309300 0.000000 -0.290965
O19   O     O_3   0.722280 0.809300 0.500000 -0.284248
O20   O     O_3   0.777720 0.190700 0.000000 -0.274583
V1    V     V_3+5 0.947430 0.761000 0.500000 1.233982
V2    V     V_3+5 0.552570 0.239000 0.000000 1.242253
V3    V     V_3+5 0.447430 0.739000 0.500000 1.230781
V4    V     V_3+5 0.052570 0.261000 0.000000 1.214587
C9    C     C_3   0.786750 0.612468 0.786338 0.321582
C10   C     C_3   0.679141 0.393383 0.283833 0.373731
C11   C     C_3   0.292471 0.883714 0.210518 0.322694
C12   C     C_3   0.208779 0.114572 0.711146 0.325337
C13   C     C_3   0.806966 0.535100 0.860590 0.329253
C14   C     C_3   0.693988 0.463012 0.364174 0.300168
C15   C     C_3   0.313315 0.963115 0.138608 0.327220
C16   C     C_3   0.185015 0.036286 0.638298 0.330190
H1    H     H_    0.025037 0.526269 0.661022 0.190439
H2    H     H_    0.518438 0.493621 0.133171 0.173819
H3    H     H_    0.520416 0.968519 0.330988 0.196567
H4    H     H_    0.980342 0.030398 0.838075 0.196588
H5    H     H_    0.042209 0.416036 0.764469 0.223640
H6    H     H_    0.452385 0.552337 0.267578 0.209633
H7    H     H_    0.524848 0.088400 0.240372 0.229510
H8    H     H_    0.962496 0.916527 0.738381 0.223201
C17   C     C_3   0.888733 0.499078 0.673756 -0.417618
C18   C     C_3   0.641203 0.512784 0.167921 -0.508109
C19   C     C_3   0.381782 0.995363 0.323203 -0.431728
C20   C     C_3   0.116844 0.002732 0.824717 -0.435458
C21   C     C_3   0.558409 0.519100 0.705270 -0.357752
C22   C     C_3   0.946483 0.476140 0.210871 -0.414016
C23   C     C_3   0.052754 0.973413 0.290885 -0.348679
C24   C     C_3   0.444535 0.022227 0.790035 -0.357434
C25   C     C_3   0.740777 0.568699 0.694614 -0.085351
C26   C     C_3   0.760260 0.433605 0.193976 -0.066450
C27   C     C_3   0.239195 0.926153 0.302005 -0.083506
C28   C     C_3   0.260917 0.071644 0.802583 -0.086299
H9    H     H_    0.518164 0.492034 0.641855 0.202659
H10   H     H_    0.004237 0.501438 0.149397 0.217806
H11   H     H_    0.007289 0.999484 0.354433 0.208453
H12   H     H_    0.489529 0.995447 0.852931 0.209417
H13   H     H_    0.446112 0.563046 0.724961 0.207017
H14   H     H_    0.047072 0.429014 0.231287 0.165605
H15   H     H_    0.944435 0.928636 0.270975 0.211103
H16   H     H_    0.553799 0.066338 0.768658 0.211690
C29   C     C_3   0.761864 0.443851 0.818657 -0.058529
C30   C     C_3   0.735313 0.554686 0.321668 -0.053336
C31   C     C_3   0.257518 0.053925 0.180959 -0.046615
C32   C     C_3   0.237147 0.945330 0.680145 -0.054380
C33   C     C_3   0.901119 0.429062 0.744149 -0.324804
C34   C     C_3   0.592721 0.567668 0.248119 -0.364629
C35   C     C_3   0.384660 0.070256 0.258841 -0.336682
C36   C     C_3   0.103813 0.931190 0.756526 -0.341429
C37   C     C_3   0.574389 0.444498 0.771154 -0.414464
C38   C     C_3   0.926826 0.552295 0.275455 -0.374445
C39   C     C_3   0.064487 0.048263 0.225637 -0.423831
C40   C     C_3   0.427757 0.947235 0.724863 -0.408173
H17   H     H_    0.455429 0.442629 0.814775 0.209891
H18   H     H_    0.041628 0.553155 0.320901 0.196063
H19   H     H_    0.950114 0.049499 0.180769 0.219903
H20   H     H_    0.543522 0.946191 0.679398 0.214029
H21   H     H_    0.560113 0.383516 0.734952 0.226864
H22   H     H_    0.944056 0.612614 0.238367 0.223214
H23   H     H_    0.031567 0.105494 0.264303 0.214606
H24   H     H_    0.447745 0.886272 0.761006 0.224407
H25   H     H_    0.851476 0.466549 0.613553 0.166721
H26   H     H_    0.715820 0.554761 0.122246 0.215575
H27   H     H_    0.343685 0.022747 0.385583 0.176932
H28   H     H_    0.161193 0.971583 0.884370 0.181890
H29   H     H_    0.869698 0.369729 0.713271 0.150542
H30   H     H_    0.579423 0.634704 0.231121 0.166833
H31   H     H_    0.336451 0.125222 0.296763 0.155980
H32   H     H_    0.141098 0.873521 0.789291 0.157756
C41   C     C_3   0.960390 0.668807 0.772991 -0.344851
C42   C     C_3   0.022900 0.718195 0.852461 -0.288683
C43   C     C_3   0.224686 0.734746 0.846086 -0.825173
H33   H     H_    0.295953 0.674622 0.852785 0.318172
H34   H     H_    0.261514 0.756107 0.780370 0.268324
H35   H     H_    0.269350 0.780913 0.895951 0.260405
H36   H     H_    0.949938 0.780460 0.853518 0.223606
H37   H     H_    0.992234 0.685125 0.913931 0.239668
H38   H     H_    0.074219 0.633641 0.742101 0.215689
H39   H     H_    0.929307 0.720344 0.725929 0.181103
C44   C     C_3   0.471121 0.373418 0.264302 -0.402157
C45   C     C_3   0.407196 0.282435 0.275578 -0.270801
C46   C     C_3   0.209714 0.279349 0.248929 -0.911399
H40   H     H_    0.123219 0.305894 0.299631 0.288110
H41   H     H_    0.188459 0.310487 0.185739 0.290803
H42   H     H_    0.162974 0.215482 0.241500 0.255778
H43   H     H_    0.487572 0.240108 0.232271 0.244588
H44   H     H_    0.420287 0.261237 0.343447 0.249858
H45   H     H_    0.371315 0.416072 0.295749 0.211399
H46   H     H_    0.436241 0.387293 0.197627 0.187974
C47   C     C_3   0.468872 0.827087 0.221723 -0.369800
C48   C     C_3   0.530987 0.779129 0.139959 -0.284775
C49   C     C_3   0.731228 0.755939 0.143137 -0.809963
H47   H     H_    0.808566 0.814587 0.138584 0.313563
H48   H     H_    0.768978 0.728307 0.205780 0.266563
H49   H     H_    0.769966 0.712213 0.089610 0.254209
H50   H     H_    0.452836 0.719343 0.136044 0.230073
H51   H     H_    0.504777 0.815624 0.080172 0.237613
H52   H     H_    0.583394 0.861469 0.250795 0.219574
H53   H     H_    0.439505 0.775829 0.269451 0.177702
C50   C     C_3   0.034543 0.171690 0.724828 -0.346952
C51   C     C_3   0.970377 0.218865 0.643752 -0.314161
C52   C     C_3   0.767987 0.236241 0.648156 -0.786126
H54   H     H_    0.697744 0.176641 0.638176 0.311001
H55   H     H_    0.727588 0.256721 0.713683 0.264514
H56   H     H_    0.725805 0.283995 0.598967 0.270733
H57   H     H_    0.042614 0.280489 0.640350 0.219455
H58   H     H_    0.001812 0.183877 0.583487 0.240141
H59   H     H_    0.921664 0.137558 0.756732 0.217172
H60   H     H_    0.065656 0.223648 0.771220 0.177629
N1    N     N_R   0.643026 0.676405 0.808446 0.203093
O21   O     O_R   0.563485 0.717825 0.746478 -0.481533
O22   O     O_R   0.648260 0.716477 0.881801 -0.478038
N2    N     N_R   0.771935 0.311817 0.306697 0.212239
O23   O     O_R   0.820579 0.258160 0.246485 -0.481820
O24   O     O_R   0.745407 0.279272 0.382905 -0.439538
N3    N     N_R   0.150480 0.820495 0.187453 0.203577
O25   O     O_R   0.067034 0.779075 0.248707 -0.485443
O26   O     O_R   0.155829 0.782533 0.112890 -0.478439
N4    N     N_R   0.351121 0.177500 0.687195 0.202461
O27   O     O_R   0.424919 0.222002 0.748268 -0.488642
O28   O     O_R   0.349285 0.213757 0.611681 -0.451328
C53   C     C_3   0.687308 0.549377 0.945336 -0.509621
C54   C     C_3   0.479658 0.550244 0.940181 -0.186867
C55   C     C_3   0.388479 0.614805 0.001774 -0.760393
H61   H     H_    0.393090 0.594128 0.069126 0.226661
H62   H     H_    0.450082 0.678774 0.996140 0.279137
H63   H     H_    0.243046 0.622533 0.987268 0.295921
H64   H     H_    0.443652 0.566067 0.874372 0.235945
H65   H     H_    0.425092 0.485527 0.955010 0.234494
H66   H     H_    0.716669 0.496349 0.990664 0.171663
H67   H     H_    0.736673 0.607338 0.978829 0.236314
C56   C     C_3   0.832278 0.445981 0.440545 -0.407440
C57   C     C_3   0.034638 0.426729 0.428779 -0.278421
C58   C     C_3   0.098749 0.347274 0.478417 -0.690913
H68   H     H_    0.149386 0.367481 0.542323 0.256510
H69   H     H_    0.990900 0.298986 0.486144 0.255062
H70   H     H_    0.209590 0.313761 0.443546 0.278455
H71   H     H_    0.072021 0.419899 0.362149 0.204749
H72   H     H_    0.108984 0.482468 0.454260 0.257926
H73   H     H_    0.824129 0.504245 0.481237 0.109218
H74   H     H_    0.778759 0.396852 0.485254 0.256790
C59   C     C_3   0.200693 0.949546 0.052888 -0.498711
C60   C     C_3   0.991480 0.947671 0.055938 -0.186193
C61   C     C_3   0.907712 0.886610 0.990385 -0.782585
H75   H     H_    0.903062 0.914596 0.925397 0.232969
H76   H     H_    0.981249 0.824794 0.989359 0.277481
H77   H     H_    0.764939 0.872890 0.007228 0.294196
H78   H     H_    0.947976 0.927587 0.120032 0.238712
H79   H     H_    0.935289 0.012841 0.043373 0.235775
H80   H     H_    0.232062 0.004350 0.010350 0.165604
H81   H     H_    0.255944 0.892919 0.017830 0.237495
C62   C     C_3   0.297422 0.048921 0.551579 -0.497091
C63   C     C_3   0.506367 0.050538 0.551806 -0.237882
C64   C     C_3   0.589187 0.111376 0.483844 -0.645124
H82   H     H_    0.610864 0.078606 0.421601 0.220193
H83   H     H_    0.504911 0.169727 0.473663 0.274940
H84   H     H_    0.726123 0.132182 0.503197 0.278243
H85   H     H_    0.549730 0.069276 0.615781 0.240704
H86   H     H_    0.561839 0.985126 0.539445 0.232453
H87   H     H_    0.264628 0.993606 0.510406 0.168129
H88   H     H_    0.241992 0.105269 0.516445 0.237171
N5    N     N_R   0.997899 0.528646 0.892867 0.221452
O29   O     O_R   0.136751 0.528745 0.840733 -0.506706
O30   O     O_R   0.030390 0.507616 0.972667 -0.459298
N6    N     N_R   0.518999 0.462194 0.413780 0.201728
O31   O     O_R   0.397173 0.522435 0.409308 -0.462621
O32   O     O_R   0.477291 0.394891 0.459254 -0.434383
N7    N     N_R   0.506746 0.971510 0.108939 0.223212
O33   O     O_R   0.639777 0.975889 0.163128 -0.500588
O34   O     O_R   0.546089 0.988076 0.028548 -0.456998
N8    N     N_R   0.990959 0.029672 0.609617 0.224862
O35   O     O_R   0.855792 0.029063 0.663989 -0.504361
O36   O     O_R   0.951386 0.014379 0.529341 -0.458683

loop_
_geom_bond_atom_site_label_1
_geom_bond_atom_site_label_2
_geom_bond_distance
_ccdc_geom_bond_type
O17   V3    1.823773 S    
C13   N5    1.497184 S    
C61   H75   1.098725 S    
C14   C30   1.603542 S    
O1    C5    1.353961 A    
C13   C29   1.602881 S    
O19   V1    1.813275 S    
O13   V1    2.070777 S    
C59   C60   1.538937 S    
H8    C36   1.104474 S    
C29   C37   1.568631 S    
C1    C32   1.574446 S    
C33   H29   1.069717 S    
C32   C36   1.547564 S    
O15   V3    2.060907 S    
C51   C52   1.511329 S    
C31   C39   1.576754 S    
C41   C42   1.529762 S    
C3    C30   1.560898 S    
C35   H31   1.094636 S    
C60   H79   1.111624 S    
C64   H82   1.102290 S    
C45   C46   1.514250 S    
O7    C3    1.349083 A    
C61   H76   1.101480 S    
C10   C44   1.594783 S    
H5    C33   1.104114 S    
N2    O24   1.299607 A    
C14   C56   1.588752 S    
C5    C27   1.571549 S    
C23   C27   1.562077 S    
C18   C34   1.547653 S    
C6    C28   1.582893 S    
O4    C8    1.363954 A    
C64   H84   1.104277 S    
C30   C38   1.574382 S    
C60   C61   1.529976 S    
C45   H44   1.107829 S    
N3    O25   1.300238 A    
N3    O26   1.299607 A    
O1    V3    2.064529 S    
C32   C40   1.569653 S    
C17   C25   1.562743 S    
C56   H74   1.105095 S    
O2    V4    2.060880 S    
C1    O15   1.357367 A    
C55   H63   1.100301 S    
C59   H80   1.103600 S    
O3    V1    2.064212 S    
C34   H30   1.081596 S    
C48   C49   1.514445 S    
C20   C28   1.550637 S    
C19   H27   1.091171 S    
C21   H9    1.113854 S    
H1    C17   1.107135 S    
C56   C57   1.524848 S    
C53   H67   1.107811 S    
C9    N1    1.485123 S    
C39   H19   1.096310 S    
C23   H11   1.113960 S    
O2    C6    1.353920 A    
C55   H61   1.093711 S    
C24   H12   1.112830 S    
C29   C33   1.553137 S    
N8    O35   1.297617 A    
O14   V2    2.064242 S    
C2    O16   1.356757 A    
C57   H72   1.105330 S    
C21   H13   1.109699 S    
C47   H53   1.109997 S    
N4    O28   1.300209 A    
C40   H20   1.100403 S    
C52   H56   1.110108 S    
C41   H38   1.103002 S    
C2    C31   1.585152 S    
C38   H22   1.109504 S    
O11   C7    1.365202 A    
C37   H21   1.110657 S    
O12   C8    1.361716 A    
C54   H65   1.111773 S    
C40   H24   1.112530 S    
O10   V2    2.070746 S    
C39   H23   1.099632 S    
C58   H69   1.103232 S    
C18   H26   1.108562 S    
C58   H68   1.108645 S    
O5    V1    2.070755 S    
C60   H78   1.088044 S    
C49   H48   1.099505 S    
C61   H77   1.101915 S    
O7    V3    2.053049 S    
O8    V4    2.061430 S    
C12   C16   1.674981 S    
N2    O23   1.300130 A    
C63   H85   1.085810 S    
C46   H42   1.062531 S    
C13   C53   1.589866 S    
C21   C25   1.560334 S    
O18   V4    1.823772 S    
C62   H88   1.110191 S    
C22   H10   1.113370 S    
C20   C36   1.541738 S    
O3    C7    1.354914 A    
C24   H16   1.109741 S    
C15   N7    1.497415 S    
C9    C13   1.673762 S    
C24   C28   1.559936 S    
N6    O32   1.300927 A    
C45   H43   1.106045 S    
C11   C15   1.672587 S    
O5    C1    1.360577 A    
C51   H58   1.104314 S    
C16   C62   1.585191 S    
C23   C39   1.546459 S    
C38   H18   1.104628 S    
C43   H33   1.075780 S    
C37   H17   1.101454 S    
O8    C4    1.359196 A    
C22   C26   1.550314 S    
C18   C26   1.562808 S    
O9    C5    1.361144 A    
C48   H51   1.105180 S    
C57   H71   1.072099 S    
C50   H60   1.110343 S    
N1    O22   1.299368 A    
C44   H45   1.097772 S    
C63   H86   1.111578 S    
H2    C18   1.098834 S    
C41   H39   1.109015 S    
C12   N4    1.484538 S    
C43   H34   1.104046 S    
C4    C29   1.569966 S    
C14   N6    1.493208 S    
C54   H64   1.084505 S    
C21   C37   1.552098 S    
C17   C33   1.546058 S    
C11   C47   1.574114 S    
C12   C50   1.567431 S    
C19   C27   1.547686 S    
C44   C45   1.507277 S    
C4    O14   1.358563 A    
C50   C51   1.532517 S    
C59   H81   1.109645 S    
H6    C34   1.100364 S    
C58   H70   1.102512 S    
C63   C64   1.541837 S    
C19   C35   1.535748 S    
C47   H52   1.101639 S    
N4    O27   1.299579 A    
O16   V4    2.064560 S    
C49   H49   1.108448 S    
O9    V1    2.059847 S    
C7    C25   1.579559 S    
C3    O13   1.363644 A    
C9    C25   1.617771 S    
C16   C32   1.604294 S    
O6    V2    2.059860 S    
C10   C14   1.658062 S    
C17   H25   1.100669 S    
C12   C28   1.615661 S    
O6    C2    1.365531 A    
C23   H15   1.109115 S    
C49   H47   1.082345 S    
O11   V3    2.061416 S    
C22   H14   1.087434 S    
C62   C63   1.536600 S    
O12   V4    2.053032 S    
N1    O21   1.298479 A    
C47   C48   1.536713 S    
C24   C40   1.552425 S    
N6    O31   1.295086 A    
O10   C6    1.366264 A    
C46   H41   1.105191 S    
C52   H54   1.078462 S    
H7    C35   1.106067 S    
C15   C59   1.587646 S    
C53   C54   1.529400 S    
C57   C58   1.531494 S    
C31   C35   1.556262 S    
H4    C20   1.107186 S    
C16   N8    1.502552 S    
H3    C19   1.106423 S    
C42   H37   1.105783 S    
O20   V2    1.813275 S    
C56   H73   1.107417 S    
C9    C41   1.567232 S    
C48   H50   1.100687 S    
C55   H62   1.101575 S    
N5    O29   1.296573 A    
C50   H59   1.102599 S    
C30   C34   1.568127 S    
O4    V2    2.070743 S    
C44   H46   1.088791 S    
C20   H28   1.095632 S    
C11   C27   1.609954 S    
N7    O33   1.297467 A    
C52   H55   1.102997 S    
C64   H83   1.108753 S    
C43   H35   1.110401 S    
C62   H87   1.102899 S    
C8    C26   1.588911 S    
C42   C43   1.510104 S    
C46   H40   1.086961 S    
C10   C26   1.637267 S    
C15   C31   1.609909 S    
C54   C55   1.534481 S    
N8    O36   1.303678 A    
C22   C38   1.558978 S    
C51   H57   1.102326 S    
C53   H66   1.106096 S    
C36   H32   1.067615 S    
C42   H36   1.105561 S    
C11   N3    1.487319 S    
N5    O30   1.303779 A    
N7    O34   1.303490 A    
C10   N2    1.482795 S    
