data_mof_unit_14683.cif
_audit_creation_date              2013-03-05T15:43:09-0500
_audit_creation_method            fapswitch 2.2
_symmetry_space_group_name_H-M    P1
_symmetry_Int_Tables_number       1
_space_group_crystal_system       triclinic
_cell_length_a                    6.979766
_cell_length_b                    14.164712
_cell_length_c                    17.540524
_cell_angle_alpha                 112.293299
_cell_angle_beta                  96.161519
_cell_angle_gamma                 89.460446
_cell_volume                      1594.35338838

loop_
_atom_site_label
_atom_site_type_symbol
_atom_site_description
_atom_site_fract_x
_atom_site_fract_y
_atom_site_fract_z
_atom_type_partial_charge
O1    O     O_R   0.484560 0.544530 0.414330 -0.557896
O2    O     O_R   0.197040 0.638810 0.585080 -0.498344
O3    O     O_R   0.026800 0.455470 0.585670 -0.540605
C1    C     C_R   0.373701 0.680767 0.609754 0.900861
O4    O     O_R   0.155000 0.556150 0.414940 -0.545191
O5    O     O_R   0.984450 0.372220 0.414320 -0.543619
C2    C     C_R   0.316857 0.565090 0.386435 0.871744
O6    O     O_R   0.526900 0.627780 0.585680 -0.496838
O7    O     O_3   0.339170 0.439750 0.499990 -0.258617
V1    V     V_3+5 0.064350 0.511180 0.500000 1.291462
O8    O     O_R   0.654880 0.361190 0.414920 -0.526266
C3    C     C_R   0.819661 0.323660 0.388163 0.858488
O9    O     O_R   0.696930 0.443850 0.585060 -0.544619
C4    C     C_R   0.874456 0.430686 0.612220 0.928337
V2    V     V_3+5 0.564340 0.488820 0.500000 1.284363
O10   O     O_3   0.839390 0.560250 0.500010 -0.212327
C5    C     C_R   0.034855 0.855138 0.813460 -0.218673
C6    C     C_R   0.907516 0.389461 0.680385 -0.152433
C7    C     C_R   0.916113 0.824844 0.668076 0.278113
C8    C     C_R   0.967073 0.787637 0.732282 0.250280
C9    C     C_R   0.051620 0.958281 0.826753 -0.128981
C10   C     C_R   0.975199 0.998947 0.767496 0.006168
C11   C     C_R   0.915334 0.929706 0.686573 -0.045734
C12   C     C_R   0.963067 0.105707 0.784341 -0.053647
C13   C     C_R   0.919298 0.139034 0.715664 0.009586
C14   C     C_R   0.867814 0.066334 0.636505 -0.087841
C15   C     C_R   0.861103 0.965071 0.622857 -0.033020
C16   C     C_R   0.985961 0.181148 0.866178 0.271711
C17   C     C_R   0.985651 0.281951 0.876006 -0.038307
C18   C     C_R   0.974479 0.313661 0.809283 -0.046978
C19   C     C_R   0.927374 0.244265 0.727924 0.010358
C20   C     C_R   0.008123 0.415599 0.824776 0.232925
C21   C     C_R   0.969894 0.454116 0.762523 -0.079101
C22   C     C_R   0.892831 0.283759 0.663167 -0.110826
H1    H     H_    0.815564 0.915148 0.559664 0.166682
H2    H     H_    0.856446 0.235379 0.599031 0.117964
H3    H     H_    0.988070 0.534584 0.780451 0.192846
H4    H     H_    0.990174 0.336506 0.938972 0.206763
H5    H     H_    0.131446 0.004819 0.883467 0.180066
H6    H     H_    0.826463 0.084861 0.583097 0.116897
H7    H     H_    0.861696 0.018915 0.216658 0.074692
C23   C     C_2   0.128864 0.039630 0.176859 0.185341
C24   C     C_2   0.983457 0.070837 0.225913 -0.088641
H8    H     H_    0.686714 0.187935 0.284281 0.133477
C25   C     C_2   0.822863 0.220881 0.320157 -0.176994
C26   C     C_2   0.987883 0.169973 0.297896 0.299479
C27   C     C_R   0.408650 0.788877 0.678892 -0.088972
C28   C     C_R   0.538531 0.469566 0.829401 -0.110190
C29   C     C_R   0.520124 0.889927 0.824150 -0.022541
C30   C     C_R   0.478842 0.795683 0.758444 -0.078211
C31   C     C_R   0.394223 0.884350 0.667237 -0.072900
C32   C     C_R   0.437444 0.984183 0.735366 0.012691
C33   C     C_R   0.487113 0.984316 0.815678 -0.092052
C34   C     C_R   0.432495 0.083166 0.727305 -0.057799
C35   C     C_R   0.476803 0.179514 0.797967 -0.118179
C36   C     C_R   0.501770 0.173709 0.878009 0.272842
C37   C     C_R   0.498735 0.077683 0.886967 0.292203
C38   C     C_R   0.387247 0.087672 0.649234 -0.100275
C39   C     C_R   0.384337 0.178995 0.636807 0.307035
C40   C     C_R   0.428010 0.273378 0.703310 -0.042151
C41   C     C_R   0.484299 0.276971 0.784808 0.044505
C42   C     C_R   0.414598 0.364565 0.688171 -0.040474
C43   C     C_R   0.466084 0.459851 0.749742 -0.075923
C44   C     C_R   0.548193 0.377959 0.846473 -0.025961
H9    H     H_    0.613522 0.389411 0.907357 0.144038
H10   H     H_    0.450120 0.527050 0.734565 0.117481
H11   H     H_    0.579374 0.887849 0.882826 0.168496
H12   H     H_    0.500001 0.726782 0.770726 0.122337
H13   H     H_    0.349542 0.878070 0.604802 0.102804
H14   H     H_    0.356949 0.019396 0.594531 0.118130
H15   H     H_    0.360664 0.363352 0.627689 0.155134
H16   H     H_    0.335697 0.667029 0.192921 0.120041
H17   H     H_    0.613159 0.590026 0.309096 0.124441
C45   C     C_2   0.312796 0.602439 0.318153 -0.175120
C46   C     C_2   0.475488 0.610511 0.285345 -0.048836
H18   H     H_    0.773645 0.635099 0.208360 0.078345
C47   C     C_2   0.636202 0.655220 0.184138 -0.175420
C48   C     C_2   0.473443 0.646696 0.216733 -0.050884
H19   H     H_    0.175440 0.622706 0.293978 0.074039
O11   O     O_R   0.421600 0.630430 0.917010 -0.520883
O12   O     O_R   0.793840 0.702190 0.087630 -0.557122
O13   O     O_R   0.964010 0.886170 0.088190 -0.578492
C49   C     C_R   0.632037 0.692972 0.116075 0.847267
O14   O     O_R   0.751460 0.619510 0.917500 -0.546255
O15   O     O_R   0.921330 0.802900 0.916840 -0.558502
C50   C     C_R   0.575157 0.577762 0.894860 0.850227
O16   O     O_R   0.464290 0.713700 0.088350 -0.558602
O17   O     O_3   0.609200 0.818520 0.002630 -0.263886
V3    V     V_3+5 0.884140 0.747190 0.002530 1.211280
O18   O     O_R   0.251150 0.814630 0.917340 -0.536494
C51   C     C_R   0.072895 0.820501 0.885932 0.949601
O19   O     O_R   0.293530 0.897310 0.087470 -0.513368
C52   C     C_R   0.129604 0.934179 0.114298 0.833990
V4    V     V_3+5 0.384070 0.769710 0.002370 1.241804
O20   O     O_3   0.109180 0.698190 0.002460 -0.235730
Br1   Br    Br    0.133428 0.496383 0.930265 -0.507062
Br2   Br    Br    0.230909 0.208327 0.367393 -0.391439
Br3   Br    Br    0.324957 0.132966 0.174866 -0.370071
N1    N     N_R   0.496664 0.075224 0.969249 0.132079
O21   O     O_R   0.585678 0.144982 0.035156 -0.176271
O22   O     O_R   0.393385 0.006727 0.980268 -0.360188
N2    N     N_R   0.349046 0.173108 0.553214 0.079681
O23   O     O_R   0.482947 0.205306 0.521863 -0.356116
O24   O     O_R   0.207424 0.115051 0.503912 -0.352201
N3    N     N_R   0.516741 0.264800 0.951845 0.110172
O25   O     O_R   0.681638 0.294963 0.997061 -0.298430
O26   O     O_R   0.370426 0.323181 0.970429 -0.316800
N4    N     N_R   0.876914 0.759139 0.582328 0.105626
O27   O     O_R   0.699971 0.751946 0.548580 -0.405140
O28   O     O_R   0.008638 0.756690 0.534465 -0.398892
N5    N     N_R   0.963414 0.681528 0.714630 0.069389
O29   O     O_R   0.123524 0.640455 0.729053 -0.465436
O30   O     O_R   0.800081 0.637010 0.712261 -0.441231
N6    N     N_R   0.998758 0.160921 0.941351 0.095941
O31   O     O_R   0.880441 0.096213 0.949374 -0.359944
O32   O     O_R   0.109356 0.218083 0.007013 -0.220287

loop_
_geom_bond_atom_site_label_1
_geom_bond_atom_site_label_2
_geom_bond_distance
_ccdc_geom_bond_type
C13   C19   1.423728 A    
C49   O16   1.293517 A    
C35   C36   1.429366 A    
C23   C52   1.480805 S    
H7    C24   1.086777 S    
C4    C6    1.513854 S    
O2    C1    1.328543 A    
C7    C8    1.425982 A    
C5    C51   1.524925 S    
C1    O6    1.313917 A    
N6    O31   1.295738 A    
O15   C51   1.306074 A    
C47   C48   1.351435 D    
C36   C37   1.427809 A    
N3    O26   1.297716 A    
C14   C15   1.362065 A    
C17   C18   1.398630 A    
O13   V3    2.010102 S    
C16   C17   1.371767 A    
O14   C50   1.323741 A    
C23   Br3   1.924017 S    
O5    C3    1.291798 A    
C18   C19   1.397138 A    
C28   C44   1.437628 A    
C47   C49   1.479429 S    
V2    O10   2.178453 S    
C37   N1    1.458458 S    
O16   V4    1.983823 S    
C5    C8    1.412982 A    
N4    O27   1.298360 A    
C40   C42   1.414293 A    
H16   C48   1.087018 S    
O12   C49   1.309420 A    
O8    V2    2.007181 S    
N5    O29   1.300034 A    
C17   H4    1.078616 S    
O11   C50   1.307926 A    
O1    V2    1.975510 S    
C11   C15   1.404853 A    
C2    C45   1.479291 S    
O7    V1    2.160211 S    
C22   H2    1.075515 S    
O12   V3    1.990749 S    
C7    N4    1.434459 S    
C43   H10   1.083147 S    
C39   C40   1.410364 A    
O13   C52   1.293428 A    
O9    C4    1.316589 A    
H17   C46   1.087025 S    
V4    O20   2.178545 S    
C6    C21   1.405640 A    
C32   C34   1.461302 A    
O18   V4    1.975323 S    
C27   C30   1.395881 A    
O17   V4    1.721543 S    
C45   C46   1.351430 D    
C31   C32   1.472182 A    
C12   C13   1.455002 A    
O4    C2    1.309311 A    
C33   C37   1.429967 A    
C38   H14   1.075611 S    
C28   C43   1.389516 A    
C27   C31   1.443460 A    
C15   H1    1.078734 S    
C13   C14   1.390158 A    
C25   C26   1.366155 D    
C21   H3    1.066001 S    
C40   C41   1.423056 A    
V3    O20   1.711185 S    
C41   C44   1.466159 A    
C7    C11   1.395042 A    
C42   C43   1.391798 A    
C8    N5    1.414735 S    
N1    O21   1.299816 A    
C9    H5    1.060664 S    
O19   V4    2.007072 S    
C19   C22   1.442928 A    
N5    O30   1.297117 A    
C32   C33   1.413442 A    
H18   C47   1.086856 S    
N2    O24   1.301343 A    
C6    C22   1.413007 A    
O3    C4    1.306962 A    
C16   N6    1.445528 S    
C20   Br1   1.887625 S    
C26   Br2   1.931181 S    
O6    V2    2.007862 S    
C45   H19   1.086861 S    
O9    V2    1.975300 S    
C28   C50   1.530276 S    
C23   C24   1.362436 D    
O11   V4    2.008965 S    
O2    V1    2.010242 S    
H8    C25   1.083516 S    
C34   C38   1.397209 A    
C34   C35   1.461752 A    
O15   V3    1.984115 S    
C29   H11   1.078215 S    
N1    O22   1.297581 A    
O1    C2    1.293488 A    
C39   N2    1.430948 S    
C12   C16   1.420638 A    
C3    C25   1.493460 S    
O5    V1    2.010070 S    
N6    O32   1.300537 A    
O8    C3    1.319373 A    
N3    O25   1.300938 A    
C20   C21   1.395677 A    
C38   C39   1.390580 A    
O4    V1    1.990834 S    
O3    V1    1.984337 S    
V1    O10   1.711126 S    
C44   H9    1.067772 S    
C18   C20   1.381614 A    
C14   H6    1.075564 S    
O18   C51   1.320637 A    
C24   C26   1.488050 S    
C29   C33   1.414324 A    
C35   C41   1.485712 A    
O19   C52   1.311931 A    
N4    O28   1.301671 A    
C42   H15   1.080767 S    
C10   C12   1.430116 A    
O7    V2    1.724403 S    
N2    O23   1.300975 A    
C46   C48   1.474949 S    
C5    C9    1.393375 A    
C36   N3    1.434833 S    
O17   V3    2.160171 S    
C29   C30   1.400736 A    
O14   V3    2.010347 S    
C10   C11   1.405527 A    
C31   H13   1.076008 S    
C9    C10   1.423410 A    
C30   H12   1.081987 S    
C1    C27   1.552346 S    
