data_mof_unit_61220.cif
_audit_creation_date              2012-12-10T18:47:37-0500
_audit_creation_method            fapswitch 2.2
_symmetry_space_group_name_H-M    P1
_symmetry_Int_Tables_number       1
_space_group_crystal_system       triclinic
_cell_length_a                    18.067205
_cell_length_b                    18.081227
_cell_length_c                    59.938965
_cell_angle_alpha                 89.966503
_cell_angle_beta                  90.032794
_cell_angle_gamma                 89.997275
_cell_volume                      19580.6887705

loop_
_atom_site_label
_atom_site_type_symbol
_atom_type_description
_atom_site_fract_x
_atom_site_fract_y
_atom_site_fract_z
_atom_type_partial_charge
C1    C     C_R   0.499999 0.999981 0.810320 0.794967
C2    C     C_R   0.500108 0.000041 0.381964 0.311245
C3    C     C_R   0.124054 0.447431 0.524505 -0.212402
C4    C     C_R   0.560433 0.879648 0.475589 -0.212374
C5    C     C_R   0.447583 0.124074 0.524442 -0.212408
C6    C     C_R   0.120302 0.439328 0.475588 -0.212372
C7    C     C_R   0.875952 0.552664 0.524441 -0.212406
C8    C     C_R   0.641599 0.858286 0.749554 0.779965
C9    C     C_R   0.358471 0.141783 0.250418 0.780024
C10   C     C_R   0.141726 0.641600 0.749558 0.780130
C11   C     C_R   0.858205 0.358471 0.250415 0.780918
C12   C     C_R   0.358383 0.141698 0.749548 0.779931
C13   C     C_R   0.000024 0.500111 0.618046 0.313030
C14   C     C_R   0.641617 0.858302 0.250452 0.779964
C15   C     C_R   0.858285 0.358410 0.749558 0.779638
C16   C     C_R   0.141785 0.641519 0.250414 0.779219
C17   C     C_R   0.141529 0.358217 0.249582 0.780053
C18   C     C_R   0.858400 0.641714 0.750446 0.779883
C19   C     C_R   0.641795 0.141529 0.249585 0.780898
C20   C     C_R   0.358273 0.858401 0.750443 0.780212
C21   C     C_R   0.858383 0.641698 0.249548 0.779842
C22   C     C_R   0.141617 0.358302 0.750452 0.779850
C23   C     C_R   0.358215 0.858481 0.249586 0.779197
C24   C     C_R   0.999959 0.499889 0.381962 0.311304
C25   C     C_R   0.641716 0.141590 0.750442 0.779720
C26   C     C_3   0.698257 0.268523 0.765090 -0.132194
C27   C     C_3   0.315485 0.719844 0.255499 -0.180549
C28   C     C_3   0.731419 0.698280 0.765099 -0.133326
C29   C     C_3   0.280241 0.315389 0.255492 -0.179954
C30   C     C_3   0.301771 0.731447 0.765103 -0.132252
C31   C     C_3   0.684526 0.280145 0.255483 -0.180117
C32   C     C_3   0.268682 0.301642 0.765102 -0.133464
C33   C     C_3   0.731322 0.698363 0.234896 -0.133371
C34   C     C_3   0.184515 0.780156 0.244502 -0.179972
C35   C     C_R   0.999893 0.500017 0.118036 0.311262
C36   C     C_3   0.801744 0.231476 0.734910 -0.133229
C37   C     C_3   0.219758 0.184611 0.244508 -0.180534
C38   C     C_3   0.768580 0.801719 0.734901 -0.132291
C39   C     C_3   0.815474 0.219855 0.244517 -0.179535
C40   C     C_3   0.198228 0.768554 0.734898 -0.133286
C41   C     C_3   0.768678 0.801637 0.265104 -0.131876
C42   C     C_3   0.231318 0.198359 0.734897 -0.132432
C43   C     C_3   0.719388 0.315144 0.744412 -0.180193
C44   C     C_3   0.245890 0.720386 0.270533 -0.178612
C45   C     C_3   0.684774 0.719489 0.744419 -0.179676
C46   C     C_R   0.000108 0.499976 0.881956 0.313037
C47   C     C_3   0.279633 0.245808 0.270534 -0.176883
C48   C     C_3   0.280604 0.684867 0.744429 -0.180195
C49   C     C_3   0.754151 0.279569 0.270530 -0.178573
C50   C     C_3   0.315210 0.280505 0.744415 -0.179567
C51   C     C_3   0.684788 0.719495 0.255582 -0.179330
C52   C     C_3   0.254110 0.779614 0.229466 -0.176702
C53   C     C_3   0.780613 0.184855 0.755588 -0.179723
C54   C     C_3   0.220366 0.254192 0.229466 -0.178799
C55   C     C_3   0.815224 0.780510 0.755580 -0.180147
C56   C     C_3   0.745849 0.220431 0.229470 -0.176651
C57   C     C_R   0.499984 0.000108 0.118038 0.311283
C58   C     C_3   0.219395 0.815133 0.755572 -0.179726
C59   C     C_3   0.815212 0.780505 0.244418 -0.179953
C60   C     C_3   0.184791 0.219496 0.755584 -0.180037
C61   C     C_3   0.801219 0.300860 0.749641 0.053595
C62   C     C_3   0.199102 0.698813 0.250223 0.054377
C63   C     C_3   0.699152 0.801230 0.749634 0.053845
C64   C     C_3   0.301174 0.199090 0.250229 0.053976
C65   C     C_3   0.198784 0.699143 0.749641 0.053453
C66   C     C_3   0.800895 0.301183 0.250223 0.054007
C67   C     C_3   0.300816 0.198741 0.749622 0.053806
C68   C     C_R   0.500024 0.999889 0.881953 0.313013
C69   C     C_3   0.699184 0.801260 0.250377 0.053617
C70   C     C_3   0.300897 0.801187 0.249777 0.053998
C71   C     C_3   0.698782 0.199139 0.750359 0.053905
C72   C     C_3   0.198826 0.300910 0.249771 0.054350
C73   C     C_3   0.800847 0.698769 0.750365 0.053534
C74   C     C_3   0.699105 0.198817 0.249777 0.053628
C75   C     C_3   0.301215 0.800858 0.750360 0.053764
C76   C     C_3   0.800816 0.698740 0.249622 0.053225
C77   C     C_3   0.199185 0.301260 0.750377 0.053493
C78   C     C_3   0.781012 0.255107 0.770308 -0.174398
C79   C     C_R   0.499920 0.999986 0.547406 -0.049226
C80   C     C_3   0.267847 0.697334 0.235169 -0.129779
C81   C     C_3   0.744926 0.780946 0.770303 -0.175720
C82   C     C_3   0.302721 0.267821 0.235168 -0.131571
C83   C     C_3   0.219026 0.744853 0.770303 -0.174394
C84   C     C_3   0.732122 0.302697 0.235158 -0.130263
C85   C     C_3   0.255161 0.218955 0.770299 -0.175601
C86   C     C_3   0.744846 0.781052 0.229702 -0.175511
C87   C     C_3   0.232153 0.802666 0.264831 -0.131234
C88   C     C_3   0.718988 0.244892 0.729693 -0.175753
C89   C     C_3   0.197279 0.232179 0.264832 -0.130108
C90   C     C_R   0.500081 0.000043 0.452622 -0.049324
C91   C     C_3   0.755073 0.719053 0.729697 -0.174365
C92   C     C_3   0.767878 0.197303 0.264842 -0.131727
C93   C     C_3   0.280973 0.755148 0.729697 -0.175750
C94   C     C_3   0.755154 0.718949 0.270298 -0.173594
C95   C     C_3   0.244840 0.281046 0.729701 -0.174246
C96   C     C_R   0.474518 0.060798 0.582778 0.504135
C97   C     C_R   0.529602 0.941110 0.417251 0.504020
C98   C     C_R   0.939214 0.525603 0.582778 0.504164
C99   C     C_R   0.058864 0.470277 0.417249 0.504008
C100  C     C_R   0.525237 0.939143 0.582809 0.504125
C101  C     C_R   0.000015 0.500081 0.547406 -0.049229
C102  C     C_R   0.470644 0.058999 0.417217 0.503942
C103  C     C_R   0.060847 0.474647 0.582809 0.504153
C104  C     C_R   0.941026 0.529473 0.417216 0.503928
C105  C     C_R   0.029491 0.558908 0.082763 0.504008
C106  C     C_R   0.974645 0.439191 0.917212 0.504147
C107  C     C_R   0.440988 0.970651 0.082764 0.504011
C108  C     C_R   0.560898 0.025236 0.917211 0.504130
C109  C     C_R   0.970270 0.441157 0.082770 0.503939
C110  C     C_R   0.025600 0.560742 0.917202 0.504159
C111  C     C_R   0.558948 0.029592 0.082770 0.503943
C112  C     C_R   0.500002 0.000019 0.189680 0.794222
C113  C     C_R   0.999957 0.499917 0.452620 -0.049323
C114  C     C_R   0.439172 0.974513 0.917200 0.504142
C115  C     C_R   0.432882 0.000985 0.629813 -0.107225
C116  C     C_R   0.433095 0.998146 0.370177 -0.106662
C117  C     C_R   0.999135 0.567068 0.629815 -0.107254
C118  C     C_R   0.002027 0.566845 0.370174 -0.106824
C119  C     C_R   0.566925 0.998980 0.629823 -0.107311
C120  C     C_R   0.567097 0.001920 0.370185 -0.106641
C121  C     C_R   0.000902 0.433128 0.629825 -0.107341
C122  C     C_R   0.997908 0.432959 0.370183 -0.106813
C123  C     C_R   0.932909 0.502067 0.129814 -0.106604
C124  C     C_R   0.999922 0.500024 0.047379 -0.049319
C125  C     C_R   0.933073 0.499097 0.870177 -0.107295
C126  C     C_R   0.498091 0.067044 0.129816 -0.106769
C127  C     C_R   0.501010 0.066871 0.870175 -0.107356
C128  C     C_R   0.066901 0.497952 0.129824 -0.106705
C129  C     C_R   0.067119 0.500868 0.870187 -0.107208
C130  C     C_R   0.501892 0.933148 0.129827 -0.106859
C131  C     C_R   0.499026 0.932933 0.870184 -0.107268
C132  C     C_R   0.432839 0.000967 0.653115 -0.215983
C133  C     C_R   0.433001 0.998185 0.346875 -0.216391
C134  C     C_R   0.999152 0.567111 0.653118 -0.215982
C135  C     C_R   0.000081 0.499977 0.952595 -0.049236
C136  C     C_R   0.001988 0.566940 0.346872 -0.216738
C137  C     C_R   0.567021 0.999013 0.653125 -0.215923
C138  C     C_R   0.567138 0.001852 0.346883 -0.216007
C139  C     C_R   0.000868 0.433031 0.653127 -0.215926
C140  C     C_R   0.997975 0.432918 0.346880 -0.216344
C141  C     C_R   0.932867 0.502005 0.153116 -0.216001
C142  C     C_R   0.932977 0.499132 0.846876 -0.215963
C143  C     C_R   0.498153 0.067086 0.153119 -0.216336
C144  C     C_R   0.500975 0.066967 0.846873 -0.215884
C145  C     C_R   0.066994 0.497996 0.153126 -0.216400
C146  C     C_R   0.499976 0.000079 0.047379 -0.049326
C147  C     C_R   0.067162 0.500852 0.846884 -0.216026
C148  C     C_R   0.501847 0.933055 0.153129 -0.216749
C149  C     C_R   0.499042 0.932890 0.846881 -0.215943
C150  C     C_R   0.500024 0.999917 0.952593 -0.049220
C151  C     C_R   0.473903 0.061836 0.559315 -0.023177
C152  C     C_R   0.530264 0.940116 0.440714 -0.022953
C153  C     C_R   0.938178 0.526221 0.559315 -0.023170
C154  C     C_R   0.059857 0.469614 0.440712 -0.022946
C155  C     C_R   0.525902 0.938123 0.559347 -0.023189
C156  C     C_R   0.000019 0.500001 0.810325 0.795364
C157  C     C_R   0.469933 0.059981 0.440679 -0.022905
C158  C     C_R   0.061866 0.473978 0.559347 -0.023180
C159  C     C_R   0.940045 0.530184 0.440678 -0.022899
C160  C     C_R   0.030202 0.559891 0.059300 -0.022965
C161  C     C_R   0.973978 0.438169 0.940675 -0.023170
C162  C     C_R   0.440004 0.969941 0.059301 -0.022947
C163  C     C_R   0.561921 0.025901 0.940673 -0.023188
C164  C     C_R   0.969606 0.440166 0.059307 -0.022906
C165  C     C_R   0.026218 0.561775 0.940664 -0.023170
C166  C     C_R   0.559940 0.030253 0.059307 -0.022886
C167  C     C_R   0.999981 0.499998 0.189675 0.796230
C168  C     C_R   0.438137 0.973898 0.940663 -0.023186
C169  C     C_R   0.448333 0.123531 0.547622 -0.136901
C170  C     C_R   0.560530 0.880580 0.452409 -0.136894
C171  C     C_R   0.876493 0.551913 0.547622 -0.136895
C172  C     C_R   0.119368 0.439231 0.452408 -0.136897
C173  C     C_R   0.551500 0.876436 0.547685 -0.136882
C174  C     C_R   0.439640 0.119510 0.452340 -0.136891
C175  C     C_R   0.123541 0.448257 0.547685 -0.136875
C176  C     C_R   0.880542 0.560595 0.452339 -0.136893
C177  C     C_R   0.060627 0.619351 0.047619 -0.136880
C178  C     C_R   0.999997 0.499981 0.310320 0.794240
C179  C     C_R   0.948259 0.376534 0.952358 -0.136890
C180  C     C_R   0.380438 0.939657 0.047620 -0.136884
C181  C     C_R   0.623644 0.051502 0.952356 -0.136892
C182  C     C_R   0.939209 0.380701 0.047632 -0.136905
C183  C     C_R   0.051909 0.623417 0.952337 -0.136884
C184  C     C_R   0.619511 0.060509 0.047632 -0.136909
C185  C     C_R   0.376407 0.948325 0.952336 -0.136887
C186  C     C_R   0.499944 0.999994 0.665017 -0.016069
C187  C     C_R   0.500056 0.000012 0.334983 -0.016032
C188  C     C_R   0.000006 0.500057 0.665020 -0.015881
C189  C     C_R   0.000001 0.500019 0.689680 0.794930
C190  C     C_R   0.999988 0.499943 0.334979 -0.015982
C191  C     C_R   0.999944 0.499998 0.165017 -0.016009
C192  C     C_R   0.000056 0.499995 0.834983 -0.016035
C193  C     C_R   0.500002 0.000057 0.165021 -0.016002
C194  C     C_R   0.500004 0.999943 0.834979 -0.015916
C195  C     C_R   0.027861 0.562425 0.988102 0.044318
C196  C     C_R   0.970296 0.438433 0.011869 0.044411
C197  C     C_R   0.437480 0.972266 0.988102 0.044316
C198  C     C_R   0.561671 0.029567 0.011869 0.044410
C199  C     C_R   0.972184 0.437564 0.988112 0.044320
C200  C     C_R   0.500019 0.000002 0.310325 0.796210
C201  C     C_R   0.029663 0.561583 0.011861 0.044410
C202  C     C_R   0.562532 0.027686 0.988111 0.044317
C203  C     C_R   0.438314 0.970474 0.011862 0.044410
C204  C     C_R   0.470471 0.061665 0.488118 0.044408
C205  C     C_R   0.527690 0.937517 0.511910 0.044315
C206  C     C_R   0.938358 0.529651 0.488117 0.044406
C207  C     C_R   0.062467 0.472186 0.511909 0.044313
C208  C     C_R   0.529575 0.938381 0.488152 0.044416
C209  C     C_R   0.472268 0.062497 0.511876 0.044323
C210  C     C_R   0.061597 0.470302 0.488151 0.044413
C211  C     C_R   0.499981 0.999999 0.689675 0.795401
C212  C     C_R   0.937520 0.527856 0.511876 0.044322
C213  C     C_R   0.000042 0.499989 0.976373 0.072097
C214  C     C_R   0.999960 0.500014 0.023600 0.072029
C215  C     C_R   0.500012 0.999956 0.976372 0.072098
C216  C     C_R   0.499987 0.000041 0.023600 0.072028
C217  C     C_R   0.500043 0.000030 0.476400 0.072025
C218  C     C_R   0.499959 1.000000 0.523627 0.072093
C219  C     C_R   0.999970 0.499956 0.476400 0.072029
C220  C     C_R   0.000001 0.500042 0.523627 0.072099
C221  C     C_R   0.052663 0.623954 0.975517 -0.212403
C222  C     C_R   0.499892 0.999977 0.618045 0.313026
C223  C     C_R   0.939306 0.379770 0.024453 -0.212382
C224  C     C_R   0.375866 0.947576 0.975516 -0.212403
C225  C     C_R   0.620441 0.060413 0.024452 -0.212383
C226  C     C_R   0.947433 0.376018 0.975538 -0.212410
C227  C     C_R   0.060602 0.620262 0.024439 -0.212372
C228  C     C_R   0.624163 0.052325 0.975536 -0.212409
C229  C     C_R   0.379527 0.939679 0.024440 -0.212373
C230  C     C_R   0.439664 0.120418 0.475520 -0.212381
C231  C     C_R   0.552323 0.875920 0.524505 -0.212405
C232  C     C_R   0.879633 0.560573 0.475519 -0.212379
H1    H     H_    0.695442 0.369604 0.739810 0.134862
H2    H     H_    0.804559 0.130395 0.760190 0.134999
H3    H     H_    0.165848 0.414912 0.443663 0.190274
H4    H     H_    0.571117 0.827816 0.556455 0.190368
H5    H     H_    0.415444 0.166022 0.443568 0.190291
H6    H     H_    0.172153 0.428544 0.556455 0.190365
H7    H     H_    0.834051 0.584884 0.443568 0.190289
H8    H     H_    0.084929 0.665805 0.056375 0.190293
H9    H     H_    0.928549 0.327955 0.943604 0.190357
H10   H     H_    0.333898 0.915469 0.056376 0.190290
H11   H     H_    0.672291 0.071122 0.943602 0.190359
H12   H     H_    0.914878 0.334255 0.056393 0.190276
H13   H     H_    0.195031 0.258770 0.212644 0.137787
H14   H     H_    0.071649 0.671987 0.943574 0.190359
H15   H     H_    0.666042 0.084727 0.056392 0.190273
H16   H     H_    0.327769 0.928674 0.943574 0.190361
H17   H     H_    0.869752 0.804367 0.760177 0.134858
H18   H     H_    0.741309 0.195144 0.212653 0.140180
H19   H     H_    0.195460 0.869585 0.760160 0.134985
H20   H     H_    0.869729 0.804355 0.239816 0.134106
H21   H     H_    0.130276 0.195645 0.760188 0.134852
H22   H     H_    0.654919 0.282803 0.777483 0.148361
H23   H     H_    0.370248 0.696246 0.259972 0.133999
H24   H     H_    0.717097 0.654961 0.777498 0.147701
H25   H     H_    0.241385 0.695064 0.287355 0.137850
H26   H     H_    0.303907 0.370074 0.259959 0.134937
H27   H     H_    0.345133 0.717146 0.777506 0.148327
H28   H     H_    0.629772 0.303730 0.259945 0.134911
H29   H     H_    0.283086 0.344895 0.777504 0.147642
H30   H     H_    0.716922 0.655114 0.222492 0.147210
H31   H     H_    0.129752 0.803754 0.240028 0.134171
H32   H     H_    0.845081 0.217196 0.722517 0.147740
H33   H     H_    0.196093 0.129926 0.240041 0.134766
H34   H     H_    0.782902 0.845038 0.722501 0.148322
H35   H     H_    0.870228 0.196270 0.240056 0.135082
H36   H     H_    0.630247 0.695632 0.739822 0.134995
H37   H     H_    0.154866 0.782855 0.722495 0.147706
H38   H     H_    0.783078 0.844886 0.277508 0.148146
H39   H     H_    0.216915 0.155106 0.722495 0.148265
H40   H     H_    0.619001 0.998434 0.620891 0.145426
H41   H     H_    0.619181 0.003679 0.379116 0.146503
H42   H     H_    0.001354 0.381091 0.620894 0.145454
H43   H     H_    0.996014 0.380919 0.379114 0.146569
H44   H     H_    0.380787 0.001524 0.620873 0.145444
H45   H     H_    0.381030 0.996396 0.379101 0.146600
H46   H     H_    0.998688 0.619125 0.620876 0.145472
H47   H     H_    0.304969 0.241230 0.287356 0.140165
H48   H     H_    0.003911 0.618865 0.379098 0.146670
H49   H     H_    0.118961 0.496068 0.120901 0.146569
H50   H     H_    0.119215 0.501317 0.879126 0.145455
H51   H     H_    0.503654 0.881124 0.120904 0.146676
H52   H     H_    0.498495 0.880878 0.879124 0.145466
H53   H     H_    0.880830 0.503958 0.120882 0.146501
H54   H     H_    0.880996 0.498642 0.879109 0.145435
H55   H     H_    0.496321 0.119088 0.120884 0.146604
H56   H     H_    0.501548 0.118906 0.879107 0.145446
H57   H     H_    0.072357 0.674326 0.982987 0.142016
H58   H     H_    0.304539 0.630416 0.739841 0.134848
H59   H     H_    0.913582 0.332192 0.016980 0.141735
H60   H     H_    0.325426 0.927972 0.982987 0.142013
H61   H     H_    0.668110 0.086018 0.016979 0.141730
H62   H     H_    0.927723 0.325652 0.983018 0.142016
H63   H     H_    0.086342 0.667838 0.016962 0.141737
H64   H     H_    0.674599 0.071945 0.983016 0.142014
H65   H     H_    0.331861 0.914058 0.016964 0.141733
H66   H     H_    0.414033 0.168054 0.482980 0.141735
H67   H     H_    0.571938 0.825515 0.517042 0.142020
H68   H     H_    0.832021 0.586298 0.482980 0.141737
H69   H     H_    0.758692 0.304856 0.287347 0.137797
H70   H     H_    0.174454 0.427715 0.517042 0.142018
H71   H     H_    0.586049 0.832008 0.483078 0.141729
H72   H     H_    0.427985 0.174486 0.516954 0.142009
H73   H     H_    0.167918 0.413619 0.483077 0.141730
H74   H     H_    0.825547 0.572363 0.516954 0.142008
H75   H     H_    0.807570 0.260392 0.786937 0.139547
H76   H     H_    0.281656 0.653183 0.222999 0.149265
H77   H     H_    0.739670 0.807457 0.786928 0.137817
H78   H     H_    0.346920 0.281606 0.222996 0.148279
H79   H     H_    0.192496 0.739532 0.786928 0.139531
H80   H     H_    0.369725 0.304355 0.739811 0.134989
H81   H     H_    0.718292 0.346877 0.222979 0.148744
H82   H     H_    0.260481 0.192355 0.786920 0.137814
H83   H     H_    0.739530 0.807656 0.213081 0.137545
H84   H     H_    0.218344 0.846817 0.277001 0.148374
H85   H     H_    0.692431 0.239607 0.713064 0.137828
H86   H     H_    0.153080 0.218394 0.277004 0.149170
H87   H     H_    0.760329 0.692543 0.713072 0.139536
H88   H     H_    0.781708 0.153123 0.277021 0.147843
H89   H     H_    0.307503 0.760468 0.713072 0.137814
H90   H     H_    0.760470 0.692345 0.286919 0.139860
H91   H     H_    0.630271 0.695645 0.260183 0.134279
H92   H     H_    0.239519 0.307646 0.713079 0.139533
H93   H     H_    0.619588 0.998285 0.661810 0.166159
H94   H     H_    0.619666 0.003376 0.338203 0.165738
H95   H     H_    0.001504 0.380503 0.661812 0.166195
H96   H     H_    0.996313 0.380434 0.338201 0.166215
H97   H     H_    0.380294 0.001701 0.661794 0.166132
H98   H     H_    0.380453 0.996652 0.338189 0.166223
H99   H     H_    0.998511 0.619618 0.661796 0.166164
H100  H     H_    0.003658 0.619445 0.338187 0.166720
H101  H     H_    0.119539 0.496329 0.161812 0.166218
H102  H     H_    0.258614 0.804936 0.212645 0.140224
H103  H     H_    0.119708 0.501495 0.838205 0.166117
H104  H     H_    0.503390 0.880546 0.161815 0.166712
H105  H     H_    0.498315 0.880385 0.838203 0.166179
H106  H     H_    0.880344 0.503666 0.161795 0.165745
H107  H     H_    0.880410 0.498495 0.838190 0.166144
H108  H     H_    0.496616 0.119574 0.161797 0.166221
H109  H     H_    0.501695 0.119495 0.838188 0.166210
H110  H     H_    0.428686 0.172140 0.556368 0.190353
H111  H     H_    0.584756 0.834078 0.443664 0.190278
H112  H     H_    0.827892 0.571657 0.556368 0.190349
N1    N     N_R   0.499872 0.999969 0.594038 -0.353839
N2    N     N_R   0.500128 0.000055 0.405981 -0.353516
N3    N     N_R   0.000032 0.500131 0.594039 -0.353815
N4    N     N_R   0.999945 0.499869 0.405979 -0.353508
N5    N     N_R   0.999874 0.500032 0.094019 -0.353523
N6    N     N_R   0.000128 0.499966 0.905963 -0.353825
N7    N     N_R   0.499969 0.000127 0.094021 -0.353497
N8    N     N_R   0.500035 0.999869 0.905961 -0.353828
O1    O     O_3   0.500000 0.000000 0.750000 -0.470415
O2    O     O_R   0.500060 0.061320 0.200430 -0.643866
O3    O     O_R   0.061320 0.499940 0.799570 -0.643934
O4    O     O_R   0.938680 0.500060 0.200430 -0.643939
O5    O     O_R   0.000060 0.561320 0.299570 -0.643659
O6    O     O_R   0.999940 0.438680 0.700430 -0.643786
O7    O     O_R   0.438680 0.000060 0.299570 -0.643731
O8    O     O_R   0.561320 0.999940 0.700430 -0.643789
O9    O     O_R   0.999940 0.438680 0.299570 -0.643839
O10   O     O_R   0.000060 0.561320 0.700430 -0.643929
O11   O     O_R   0.561320 0.999940 0.299570 -0.643934
O12   O     O_3   0.500000 0.000000 0.250000 -0.470342
O13   O     O_R   0.438680 0.000060 0.700430 -0.643927
O14   O     O_R   0.586640 0.851790 0.762730 -0.642355
O15   O     O_R   0.413360 0.148210 0.237270 -0.648620
O16   O     O_R   0.148210 0.586640 0.762730 -0.642007
O17   O     O_R   0.851790 0.413360 0.237270 -0.648076
O18   O     O_R   0.413360 0.148210 0.762730 -0.642198
O19   O     O_R   0.586640 0.851790 0.237270 -0.642164
O20   O     O_R   0.851790 0.413360 0.762730 -0.641968
O21   O     O_R   0.148210 0.586640 0.237270 -0.647960
O22   O     O_R   0.086640 0.351790 0.262730 -0.647884
O23   O     O_3   0.000000 0.500000 0.750000 -0.470406
O24   O     O_R   0.913360 0.648210 0.737270 -0.641928
O25   O     O_R   0.648210 0.086640 0.262730 -0.648823
O26   O     O_R   0.351790 0.913360 0.737270 -0.642433
O27   O     O_R   0.913360 0.648210 0.262730 -0.641369
O28   O     O_R   0.086640 0.351790 0.737270 -0.641772
O29   O     O_R   0.351790 0.913360 0.262730 -0.648691
O30   O     O_R   0.648210 0.086640 0.737270 -0.642395
O31   O     O_R   0.352020 0.086360 0.736540 -0.645493
O32   O     O_R   0.647980 0.913640 0.263460 -0.645550
O33   O     O_R   0.913640 0.352020 0.736540 -0.645674
O34   O     O_3   1.000000 0.500000 0.250000 -0.470339
O35   O     O_R   0.086360 0.647980 0.263460 -0.639892
O36   O     O_R   0.647980 0.913640 0.736540 -0.645379
O37   O     O_R   0.352020 0.086360 0.263460 -0.639553
O38   O     O_R   0.086360 0.647980 0.736540 -0.645713
O39   O     O_R   0.913640 0.352020 0.263460 -0.640386
O40   O     O_R   0.852020 0.586360 0.236540 -0.646306
O41   O     O_R   0.147980 0.413640 0.763460 -0.645868
O42   O     O_R   0.413640 0.852020 0.236540 -0.639088
O43   O     O_R   0.586360 0.147980 0.763460 -0.645298
O44   O     O_R   0.147980 0.413640 0.236540 -0.640368
O45   O     O_R   0.500060 0.061320 0.799570 -0.643779
O46   O     O_R   0.852020 0.586360 0.763460 -0.645753
O47   O     O_R   0.586360 0.147980 0.236540 -0.639565
O48   O     O_R   0.413640 0.852020 0.763460 -0.645338
O49   O     O_2   0.450528 0.120363 0.594246 -0.560458
O50   O     O_2   0.557577 0.883281 0.405794 -0.560826
O51   O     O_2   0.879656 0.549710 0.594246 -0.560545
O52   O     O_2   0.116670 0.442184 0.405793 -0.560879
O53   O     O_2   0.549204 0.879569 0.594307 -0.560445
O54   O     O_2   0.442693 0.116835 0.405728 -0.561010
O55   O     O_2   0.120414 0.450565 0.594307 -0.560532
O56   O     O_R   0.499940 0.938680 0.200430 -0.643654
O57   O     O_2   0.883213 0.557542 0.405727 -0.561058
O58   O     O_2   0.057572 0.616677 0.094232 -0.560784
O59   O     O_2   0.950564 0.379666 0.905735 -0.560536
O60   O     O_2   0.383117 0.942709 0.094233 -0.560915
O61   O     O_2   0.620506 0.049204 0.905733 -0.560450
O62   O     O_2   0.942165 0.383393 0.094246 -0.560976
O63   O     O_2   0.049704 0.620260 0.905713 -0.560543
O64   O     O_2   0.616814 0.057559 0.094246 -0.561111
O65   O     O_2   0.379569 0.950521 0.905713 -0.560459
O66   O     O_R   0.938680 0.500060 0.799570 -0.643794
O67   O     O_R   0.061320 0.499940 0.200430 -0.643706
O68   O     O_R   0.499940 0.938680 0.799570 -0.643923
Zn1   Zn    Zn3+2 0.587970 0.999840 0.730920 0.964941
Zn2   Zn    Zn3+2 0.912030 0.500160 0.769080 0.964917
Zn3   Zn    Zn3+2 0.500160 0.087970 0.230920 0.964706
Zn4   Zn    Zn3+2 0.499840 0.912030 0.769080 0.964931
Zn5   Zn    Zn3+2 0.912030 0.500160 0.230920 0.963106
Zn6   Zn    Zn3+2 0.087970 0.499840 0.769080 0.964966
Zn7   Zn    Zn3+2 0.499840 0.912030 0.230920 0.966855
Zn8   Zn    Zn3+2 0.500160 0.087970 0.769080 0.964890
Zn9   Zn    Zn3+2 0.412030 0.000160 0.269080 0.964921
Zn10  Zn    Zn3+2 0.000160 0.587970 0.730920 0.964907
Zn11  Zn    Zn3+2 0.999840 0.412030 0.269080 0.964764
Zn12  Zn    Zn3+2 0.412030 0.000160 0.730920 0.964993
Zn13  Zn    Zn3+2 0.587970 0.999840 0.269080 0.963084
Zn14  Zn    Zn3+2 0.999840 0.412030 0.730920 0.964862
Zn15  Zn    Zn3+2 0.000160 0.587970 0.269080 0.966876
Zn16  Zn    Zn3+2 0.087970 0.499840 0.230920 0.964979

loop_
_geom_bond_atom_site_label_1
_geom_bond_atom_site_label_2
_ccdc_geom_bond_type
C200  O7    A    
C11   O39   A    
C9    C64   S    
C46   N6    S    
C54   C82   S    
C40   C93   S    
C25   O30   A    
C197  C224  A    
C198  C216  A    
C46   C129  A    
C7    C212  A    
C98   N3    A    
O18   Zn8   S    
C150  C163  A    
C21   C76   S    
C43   C61   S    
C167  O4    A    
O48   Zn4   S    
C39   H35   S    
C128  C145  A    
C176  C232  A    
C126  C143  A    
C74   C92   S    
C97   N2    A    
C90   C217  A    
C36   C53   S    
C173  C231  A    
C76   C94   S    
C2    C116  A    
C38   C55   S    
C7    H74   S    
C26   C43   S    
C207  C210  A    
C55   H17   S    
C48   C65   S    
O28   Zn14  S    
O2    Zn3   S    
C134  H99   S    
O1    Zn12  S    
C186  C211  S    
C26   C71   S    
C28   C73   S    
C47   H47   S    
C4    C208  A    
C28   C45   S    
C67   C85   S    
C1    O45   A    
C42   C95   S    
C165  C183  A    
C134  C188  A    
C166  C184  A    
C22   C77   S    
C90   C152  A    
C47   C64   S    
C195  C221  A    
O56   Zn7   S    
C116  C133  A    
C212  C220  A    
C33   H30   S    
C4    H71   S    
O39   Zn11  S    
C9    O15   A    
C68   C131  A    
C89   H86   S    
C152  C170  A    
C23   O42   A    
C41   C94   S    
C107  C162  A    
C150  C168  A    
C123  C141  A    
C182  C223  A    
O43   Zn8   S    
C41   C59   S    
C142  H107  S    
C100  C155  A    
O12   Zn3   S    
C102  O54   S    
C101  C158  A    
C40   C65   S    
C14   C69   S    
C131  C149  A    
C120  C138  A    
C104  C159  A    
C132  C186  A    
C14   O19   A    
C53   C71   S    
C133  H98   S    
C118  C136  A    
C75   C93   S    
C41   C69   S    
C137  C186  A    
C208  C217  A    
C201  C227  A    
O35   Zn15  S    
O4    Zn5   S    
O15   Zn3   S    
C8    O36   A    
C112  O56   A    
C195  C201  A    
C206  C219  A    
C175  H6    S    
C167  C191  S    
C187  C200  S    
C228  H64   S    
C3    C207  A    
C179  C226  A    
C53   C78   S    
C156  O66   A    
C29   C82   S    
C132  H97   S    
C109  O62   S    
C124  C160  A    
C156  O3    A    
C97   C152  A    
C77   C95   S    
C34   C87   S    
C35   N5    S    
C144  H109  S    
C124  C214  A    
C201  C214  A    
C129  C147  A    
C110  O63   S    
C79   C155  A    
C71   C88   S    
C110  N6    A    
C206  C212  A    
C148  C193  A    
C18   O46   A    
C176  H7    S    
O40   Zn5   S    
O12   Zn7   S    
C51   C69   S    
C53   H2    S    
C93   H89   S    
C143  H108  S    
C163  C181  A    
C115  C222  A    
C15   O33   A    
O29   Zn9   S    
O13   Zn12  S    
C86   H83   S    
C6    C172  A    
C36   C88   S    
C226  H62   S    
C4    C170  A    
C34   H31   S    
C29   C47   S    
C105  N5    A    
C62   C80   S    
C107  N7    A    
C105  C160  A    
C144  C194  A    
C78   H75   S    
C99   C154  A    
C18   O24   A    
O7    Zn9   S    
C196  C214  A    
C178  O5    A    
C54   H13   S    
C121  H42   S    
C19   O47   A    
C114  N8    A    
O14   Zn4   S    
C27   C44   S    
C92   H88   S    
C198  C202  A    
C31   H28   S    
C25   C71   S    
O23   Zn14  S    
C55   C81   S    
C50   C67   S    
C125  C142  A    
C162  C180  A    
O21   Zn16  S    
C157  C174  A    
C32   C77   S    
C135  C161  A    
C23   C70   S    
O20   Zn2   S    
C58   H19   S    
C196  C199  A    
C70   C87   S    
C17   O44   A    
C115  C132  A    
C139  H95   S    
C180  C229  A    
C49   C66   S    
C167  O67   A    
C96   N1    A    
C57   C130  A    
C136  H100  S    
C27   C80   S    
C174  H5    S    
C2    C120  A    
C15   O20   A    
C31   C74   S    
C202  C228  A    
C108  O61   S    
C94   H90   S    
O45   Zn8   S    
C31   C84   S    
C224  H60   S    
C20   C75   S    
C183  H14   S    
C178  O9    A    
C99   O52   S    
C117  H46   S    
O5    Zn15  S    
C13   C121  A    
C97   O50   S    
C221  H57   S    
C142  C192  A    
O12   Zn9   S    
C140  H96   S    
C12   O31   A    
C150  C215  A    
C113  C159  A    
C174  C230  A    
O23   Zn2   S    
C179  H9    S    
O22   Zn11  S    
C18   C73   S    
C159  C176  A    
C42   C67   S    
C100  O53   S    
C205  C231  A    
C139  C188  A    
C2    N2    S    
O38   Zn10  S    
C199  C213  A    
C95   H92   S    
C5    C209  A    
O33   Zn14  S    
C21   O40   A    
C107  O60   S    
C151  C169  A    
C23   O29   A    
C121  C139  A    
C90   C157  A    
C35   C123  A    
C105  O58   S    
C122  C140  A    
C52   C80   S    
C58   C83   S    
C147  H103  S    
C189  O10   A    
C27   H23   S    
O26   Zn12  S    
C138  H94   S    
O12   Zn13  S    
C129  H50   S    
C108  N8    A    
C199  C226  A    
C48   H58   S    
O34   Zn15  S    
C133  C187  A    
O23   Zn6   S    
C55   C73   S    
C158  C175  A    
C98   O51   S    
O67   Zn16  S    
C16   O21   A    
C59   C76   S    
C181  H11   S    
C111  O64   S    
C7    C171  A    
C46   C125  A    
C113  C154  A    
C146  C162  A    
C207  C220  A    
C17   O22   A    
C43   C88   S    
C223  H59   S    
C178  C190  S    
C110  C165  A    
C10   C65   S    
C117  C134  A    
C34   C62   S    
C30   C83   S    
C170  H111  S    
O8    Zn1   S    
C91   H87   S    
C115  H44   S    
C56   H18   S    
C204  C209  A    
C22   O28   A    
C202  C215  A    
C44   C87   S    
C3    H70   S    
C11   C66   S    
C81   H77   S    
C232  H68   S    
C83   H79   S    
O11   Zn13  S    
C169  H110  S    
C184  C225  A    
C31   C49   S    
C171  H112  S    
C80   H76   S    
C137  H93   S    
C56   C84   S    
C6    H73   S    
C11   O17   A    
C108  C163  A    
C56   C74   S    
C48   C93   S    
C206  C232  A    
C203  C216  A    
O68   Zn4   S    
C40   C58   S    
O27   Zn15  S    
C106  O59   S    
C43   H1    S    
C104  N4    A    
O25   Zn13  S    
C38   C91   S    
C65   C83   S    
C9    O37   A    
C147  C192  A    
C177  C227  A    
C20   O48   A    
C183  C221  A    
C24   C122  A    
C135  C165  A    
C37   H33   S    
C96   O49   S    
C68   C127  A    
O47   Zn3   S    
O41   Zn6   S    
C185  H16   S    
C3    C175  A    
C57   N7    S    
O34   Zn11  S    
C39   C66   S    
C112  O2    A    
C102  N2    A    
C49   C92   S    
C36   C61   S    
C39   C92   S    
C85   H82   S    
C37   C64   S    
C14   O32   A    
C99   N4    A    
C38   C63   S    
C172  H3    S    
C30   C48   S    
O31   Zn12  S    
C16   O35   A    
C125  H54   S    
O42   Zn7   S    
C20   O26   A    
C127  H56   S    
C19   C74   S    
C1    O68   A    
C109  C164  A    
C182  H12   S    
C13   C117  A    
C60   C85   S    
C103  C158  A    
C114  C168  A    
C180  H10   S    
C33   C51   S    
O1    Zn4   S    
C34   C52   S    
C29   H26   S    
C200  O11   A    
C37   C89   S    
C145  H101  S    
C1    C194  S    
C13   N3    S    
C30   C75   S    
C101  C220  A    
C225  H61   S    
C32   C85   S    
C24   N4    S    
C49   H69   S    
C60   H21   S    
O44   Zn16  S    
C149  H105  S    
C32   C50   S    
C127  C144  A    
C35   C128  A    
C45   C91   S    
C160  C177  A    
C195  C213  A    
C196  C223  A    
C164  C182  A    
C109  N5    A    
O9    Zn11  S    
C5    C169  A    
C114  O65   S    
C122  H43   S    
O37   Zn9   S    
C50   H80   S    
C124  C164  A    
C21   O27   A    
C231  H67   S    
C87   H84   S    
C8    O14   A    
C140  C190  A    
C141  C191  A    
O30   Zn1   S    
C189  O6    A    
C120  H41   S    
O3    Zn6   S    
C51   H91   S    
C40   H37   S    
C119  H40   S    
C106  N6    A    
O1    Zn8   S    
C63   C81   S    
C209  C218  A    
C36   H32   S    
C116  H45   S    
O23   Zn10  S    
O1    Zn1   S    
C50   C95   S    
C106  C161  A    
O46   Zn2   S    
O34   Zn5   S    
C143  C193  A    
C42   H39   S    
C19   O25   A    
C123  H53   S    
C44   H25   S    
O66   Zn2   S    
C45   H36   S    
O16   Zn6   S    
C39   C56   S    
C185  C224  A    
C100  N1    A    
C229  H65   S    
C12   O18   A    
C197  C215  A    
C198  C225  A    
C29   C72   S    
C155  C173  A    
C146  C166  A    
C98   C153  A    
C111  N7    A    
C126  H55   S    
C145  C191  A    
C47   C89   S    
C32   H29   S    
C16   C62   S    
C128  H49   S    
C102  C157  A    
C131  H52   S    
C58   C75   S    
C181  C228  A    
C15   C61   S    
C12   C67   S    
C205  C218  A    
C130  C148  A    
C30   H27   S    
C119  C137  A    
C10   O38   A    
C52   C70   S    
O36   Zn1   S    
C73   C91   S    
O19   Zn7   S    
C26   H22   S    
C42   C60   S    
C57   C126  A    
C203  C229  A    
C79   C218  A    
O17   Zn5   S    
C8    C63   S    
C44   C62   S    
C96   C151  A    
C45   C63   S    
C119  C222  A    
C136  C190  A    
C188  C189  S    
C230  H66   S    
C33   C86   S    
C211  O13   A    
C149  C194  A    
C130  H51   S    
C82   H78   S    
C33   C76   S    
C101  C153  A    
C61   C78   S    
C153  C171  A    
O10   Zn10  S    
C154  C172  A    
C41   H38   S    
C111  C166  A    
C22   O41   A    
C64   C82   S    
C68   N8    S    
C27   C70   S    
O34   Zn16  S    
C177  H8    S    
C37   C54   S    
C156  C192  S    
O24   Zn10  S    
C25   O43   A    
C88   H85   S    
O6    Zn14  S    
C161  C179  A    
C211  O8    A    
C148  H104  S    
C79   C151  A    
C205  C208  A    
C168  C185  A    
C28   C81   S    
C141  H106  S    
C28   H24   S    
C103  N3    A    
C173  H4    S    
C10   O16   A    
C6    C210  A    
C104  O57   S    
C24   C118  A    
C103  O55   S    
C204  C217  A    
C60   C77   S    
C138  C187  A    
C38   H34   S    
C59   C86   S    
C118  H48   S    
C72   C89   S    
C135  C213  A    
C210  C219  A    
C52   H102  S    
C184  H15   S    
C197  C203  A    
C227  H63   S    
C204  C230  A    
C5    H72   S    
C112  C193  S    
C84   H81   S    
C26   C78   S    
C51   C94   S    
C66   C84   S    
C54   C72   S    
C17   C72   S    
C59   H20   S    
O32   Zn13  S    
C113  C219  A    
C222  N1    S    
C146  C216  A    
C69   C86   S    
