data_mof_unit_18156.cif
_audit_creation_date              2013-03-05T16:33:12-0500
_audit_creation_method            fapswitch 2.2
_symmetry_space_group_name_H-M    P1
_symmetry_Int_Tables_number       1
_space_group_crystal_system       triclinic
_cell_length_a                    27.833486
_cell_length_b                    10.872569
_cell_length_c                    9.534406
_cell_angle_alpha                 89.174432
_cell_angle_beta                  89.664863
_cell_angle_gamma                 90.370096
_cell_volume                      2884.90556898

loop_
_atom_site_label
_atom_site_type_symbol
_atom_site_description
_atom_site_fract_x
_atom_site_fract_y
_atom_site_fract_z
_atom_type_partial_charge
O1    O     O_R   0.500000 0.319640 0.618810 -0.582722
O2    O     O_R   0.500010 0.319680 0.381230 -0.590987
C1    C     C_R   0.499749 0.262664 0.500776 0.816635
O3    O     O_R   0.430260 0.500000 0.618780 -0.575727
O4    O     O_R   0.430270 0.500040 0.381190 -0.580013
C2    C     C_R   0.407323 0.500968 0.500511 0.804425
Cu1   Cu    Cu3+1 0.500000 0.499980 0.640670 0.967105
Cu2   Cu    Cu3+1 0.500000 0.500020 0.359330 0.965759
O5    O     O_R   0.499990 0.680320 0.618770 -0.578855
O6    O     O_R   0.500000 0.680360 0.381190 -0.568540
O7    O     O_R   0.569730 0.499960 0.618810 -0.586336
O8    O     O_R   0.569740 0.500000 0.381220 -0.586874
C3    C     C_R   0.500350 0.737855 0.498594 0.801005
C4    C     C_R   0.592489 0.499652 0.499720 0.801462
C5    C     C_R   0.177350 0.386699 0.489553 0.545648
O9    O     O_2   0.202049 0.281143 0.506311 -0.526529
N1    N     N_R   0.201542 0.496048 0.476054 -0.467682
C6    C     C_R   0.177745 0.604618 0.457774 0.554104
C7    C     C_R   0.275439 0.526010 0.613271 -0.030690
C8    C     C_R   0.326042 0.528481 0.621210 -0.103885
C9    C     C_R   0.330377 0.472665 0.374694 -0.207999
C10   C     C_R   0.280513 0.470952 0.367779 -0.099259
C11   C     C_R   0.252951 0.497492 0.486015 0.305638
C12   C     C_R   0.101506 0.495043 0.472104 -0.042239
C13   C     C_R   0.126914 0.384099 0.487541 -0.020535
C14   C     C_R   0.101586 0.273498 0.502988 -0.138904
C15   C     C_R   0.127337 0.606233 0.456043 -0.021551
C16   C     C_R   0.353987 0.500998 0.500361 -0.097225
H1    H     H_    0.350521 0.450939 0.280809 0.169760
H2    H     H_    0.263113 0.448977 0.269887 0.154240
C17   C     C_R   0.645323 0.498635 0.499060 -0.038426
C18   C     C_R   0.973829 0.381462 0.484660 0.043817
C19   C     C_R   0.974474 0.608701 0.473207 0.044148
C20   C     C_R   0.948930 0.495188 0.481325 0.068042
C21   C     C_R   0.946479 0.271166 0.485756 -0.202682
C22   C     C_R   0.896591 0.272645 0.488813 -0.142370
C23   C     C_R   0.871855 0.383884 0.490432 -0.020928
C24   C     C_R   0.897846 0.495433 0.486393 -0.044071
C25   C     C_R   0.872617 0.607251 0.487494 -0.020009
C26   C     C_R   0.822206 0.605502 0.492792 0.534812
N2    N     N_R   0.797697 0.496002 0.495502 -0.468784
C27   C     C_R   0.821420 0.386199 0.494435 0.536648
C28   C     C_R   0.720695 0.451262 0.614205 -0.093172
C29   C     C_R   0.670568 0.452252 0.615281 -0.207169
C30   C     C_R   0.671024 0.543802 0.381960 -0.219004
C31   C     C_R   0.721073 0.542670 0.380883 -0.093162
C32   C     C_R   0.746134 0.496531 0.496967 0.345923
O10   O     O_2   0.796266 0.279633 0.495801 -0.529367
C33   C     C_R   0.024920 0.381569 0.486601 0.043590
C34   C     C_R   0.050409 0.494917 0.473663 0.069569
C35   C     C_R   0.025443 0.608255 0.463112 0.043584
C36   C     C_R   0.051685 0.271971 0.502681 -0.201820
H3    H     H_    0.739803 0.415390 0.704379 0.148460
H4    H     H_    0.877440 0.185548 0.489839 0.188280
H5    H     H_    0.035286 0.182907 0.518497 0.137129
O11   O     O_2   0.202844 0.710651 0.442548 -0.521281
C37   C     C_R   0.102459 0.716430 0.439262 -0.135707
H6    H     H_    0.121486 0.802927 0.424257 0.189047
C38   C     C_R   0.947928 0.719256 0.477349 -0.202828
C39   C     C_R   0.898087 0.718256 0.484114 -0.143025
O12   O     O_2   0.797840 0.712380 0.495927 -0.531655
C40   C     C_R   0.052586 0.717669 0.442314 -0.201647
H7    H     H_    0.964512 0.808934 0.478434 0.136276
H8    H     H_    0.652554 0.581638 0.292123 0.150153
H9    H     H_    0.879558 0.805542 0.486804 0.187779
H10   H     H_    0.740459 0.577788 0.289842 0.146460
C41   C     C_R   0.485002 0.060809 0.618662 0.050952
C42   C     C_R   0.497228 0.130099 0.499485 -0.098592
C43   C     C_R   0.504421 0.069275 0.372629 -0.239343
H11   H     H_    0.512041 0.121208 0.276904 0.169522
C44   C     C_R   0.505497 0.941425 0.368773 -0.026491
C45   C     C_R   0.497770 0.871532 0.494252 -0.149437
C46   C     C_R   0.484458 0.934257 0.615419 0.056687
C47   C     C_3   0.500915 0.922587 0.764182 -0.250207
C48   C     C_3   0.501445 0.063328 0.768067 -0.262431
H12   H     H_    0.536517 0.877366 0.774659 0.158533
H13   H     H_    0.474491 0.105087 0.839353 0.145873
C49   C     C_R   0.529283 0.578565 0.071799 0.324628
N3    N     N_R   0.500300 0.500930 0.147930 -0.196801
C50   C     C_R   0.468471 0.429241 0.076151 -0.063376
C51   C     C_R   0.468571 0.428953 0.927190 -0.043617
H14   H     H_    0.443862 0.369495 0.872581 0.138063
N4    N     N_R   0.500310 0.500890 0.852020 -0.192375
C52   C     C_R   0.529072 0.579306 0.924318 0.272892
C53   C     C_3   0.582554 0.584116 0.917160 -0.500413
C54   C     C_3   0.582782 0.582191 0.075800 -0.515992
H15   H     H_    0.598366 0.499639 0.872739 0.220577
H16   H     H_    0.598339 0.496171 0.119991 0.216954
H17   H     H_    0.596843 0.668747 0.121004 0.212143
C55   C     C_1   0.246116 0.552334 0.735177 0.280163
N5    N     N_1   0.222655 0.573334 0.832438 -0.255015
H18   H     H_    0.036470 0.806391 0.425823 0.137277
C56   C     C_1   0.518610 0.889001 0.235976 0.292216
N6    N     N_1   0.529364 0.849703 0.128361 -0.321469
C57   C     C_1   0.463418 0.866744 0.854339 0.323467
N7    N     N_1   0.433950 0.822741 0.925345 -0.246416
C58   C     C_1   0.550171 0.114847 0.783857 0.307232
N8    N     N_1   0.588406 0.155559 0.796237 -0.285339
H19   H     H_    0.443639 0.370072 0.133476 0.139263
H20   H     H_    0.596041 0.672102 0.870423 0.204897
H21   H     H_    0.120278 0.187040 0.516349 0.188935
H22   H     H_    0.651629 0.415102 0.705937 0.159328
H23   H     H_    0.962387 0.181316 0.481946 0.136182
C59   C     C_1   0.348302 0.561685 0.752599 0.287366
N9    N     N_1   0.365836 0.588209 0.857797 -0.251675

loop_
_geom_bond_atom_site_label_1
_geom_bond_atom_site_label_2
_geom_bond_distance
_ccdc_geom_bond_type
Cu1   N4    2.015333 S    
C56   N6    1.155689 T    
N2    C27   1.368142 A    
C57   N7    1.157162 T    
C12   C15   1.408540 A    
C4    C17   1.470631 S    
C58   N8    1.157284 T    
C37   H6    1.083593 S    
C37   C40   1.388419 A    
C53   C54   1.512433 S    
Cu1   O7    1.950777 S    
N1    C11   1.434583 S    
C47   H12   1.113400 S    
C22   C23   1.395786 A    
C1    C42   1.442806 S    
C31   H10   1.082920 S    
C21   H23   1.076165 S    
C14   H21   1.083596 S    
C24   C25   1.408029 A    
O7    C4    1.297023 A    
C54   H16   1.111636 S    
C5    C13   1.404161 A    
C5    O9    1.349623 S    
C48   C58   1.473355 S    
C5    N1    1.366632 A    
C46   C47   1.496941 S    
C23   C27   1.404473 A    
C43   C44   1.391584 A    
O5    C3    1.297462 A    
C28   H3    1.082826 S    
C2    C16   1.484521 S    
C7    C8    1.411019 A    
C42   C43   1.400794 A    
C40   H18   1.076338 S    
Cu2   N3    2.015424 S    
C41   C46   1.376726 A    
C36   H5    1.076127 S    
C6    O11   1.349730 S    
C49   C54   1.490068 S    
C38   C39   1.388333 A    
C19   C38   1.415925 A    
O1    Cu1   1.974789 S    
C9    C10   1.389862 A    
C35   C40   1.416013 A    
O3    Cu1   1.953512 S    
C59   N9    1.157409 T    
C51   N4    1.368689 A    
N1    C6    1.366768 A    
C53   H15   1.109475 S    
C12   C34   1.422201 A    
C17   C29   1.404821 A    
C41   C42   1.393548 A    
C18   C21   1.416129 A    
Cu1   Cu2   2.682403 S    
C12   C13   1.408518 A    
O3    C2    1.298995 A    
C47   C48   1.531184 S    
C25   C26   1.403749 A    
C29   H22   1.081654 S    
C49   N3    1.362652 A    
C50   C51   1.420283 A    
C8    C16   1.422794 A    
C34   C35   1.421191 A    
C13   C14   1.395515 A    
C30   C31   1.393134 A    
C9    H1    1.083216 S    
C54   H17   1.110615 S    
C51   H14   1.081723 S    
C26   O12   1.349849 S    
O1    C1    1.292445 A    
C21   C22   1.388897 A    
C18   C20   1.421423 A    
C7    C11   1.406150 A    
C28   C29   1.395313 A    
C23   C24   1.408107 A    
C14   C36   1.388920 A    
N4    C52   1.362909 A    
Cu2   O8    1.953507 S    
C33   C36   1.416309 A    
C19   C20   1.421258 A    
N2    C32   1.435211 S    
C27   O10   1.349725 S    
C52   C53   1.490284 S    
C48   H13   1.112764 S    
C44   C56   1.441971 S    
C26   N2    1.368149 A    
C9    C16   1.406972 A    
O8    C4    1.298358 A    
C39   H9    1.083585 S    
C50   H19   1.081660 S    
C15   C37   1.395372 A    
C41   C48   1.499323 S    
Cu1   O5    1.968853 S    
C31   C32   1.400269 A    
C10   H2    1.083037 S    
C20   C24   1.422402 A    
C47   C57   1.470757 S    
O2    Cu2   1.968855 S    
C6    C15   1.403442 A    
C45   C46   1.399265 A    
O6    C3    1.289998 A    
O4    Cu2   1.950780 S    
C8    C59   1.450084 S    
C3    C45   1.455660 S    
C19   C35   1.421381 A    
C30   H8    1.079320 S    
C38   H7    1.076298 S    
O2    C1    1.289565 A    
C44   C45   1.422571 A    
C7    C55   1.449311 S    
C55   N5    1.157332 T    
O4    C2    1.301623 A    
C25   C39   1.395616 A    
C43   H11   1.085418 S    
C18   C33   1.422265 A    
C22   H4    1.083576 S    
N3    C50   1.369053 A    
C49   C52   1.406099 A    
Cu2   O6    1.974788 S    
C33   C34   1.421476 A    
C17   C30   1.403476 A    
C53   H20   1.111654 S    
C10   C11   1.394543 A    
C28   C32   1.401231 A    
