data_mof_unit_16472.cif
_audit_creation_date              2012-10-26T21:02:36-0400
_audit_creation_method            fapswitch 2.2
_symmetry_space_group_name_H-M    P1
_symmetry_Int_Tables_number       1
_space_group_crystal_system       triclinic
_cell_length_a                    12.385767
_cell_length_b                    13.119637
_cell_length_c                    15.061628
_cell_angle_alpha                 75.870815
_cell_angle_beta                  101.711693
_cell_angle_gamma                 117.068352
_cell_volume                      2101.44603246

loop_
_atom_site_label
_atom_site_type_symbol
_atom_type_description
_atom_site_fract_x
_atom_site_fract_y
_atom_site_fract_z
_atom_type_partial_charge
C1    C     C_R   0.854943 0.286088 0.507247 0.556518
C2    C     C_R   0.085830 0.474034 0.834415 -0.113517
C3    C     C_R   0.004638 0.505807 0.767635 -0.002603
C4    C     C_R   0.002295 0.502912 0.670896 0.586880
C5    C     C_R   0.924095 0.538847 0.793364 -0.096314
C6    C     C_R   0.271944 0.030301 0.381511 0.096691
C7    C     C_R   0.227136 0.838327 0.471663 -0.001808
C8    C     C_R   0.811919 0.077503 0.558844 -0.088406
C9    C     C_R   0.730984 0.960414 0.569957 -0.092877
C10   C     C_R   0.607831 0.927274 0.538849 -0.067984
C11   C     C_R   0.563314 0.011138 0.495561 0.048212
C12   C     C_R   0.916699 0.529529 0.072889 -0.008910
C13   C     C_R   0.649076 0.126136 0.469615 0.006223
C14   C     C_R   0.437145 0.982461 0.471363 -0.003509
C15   C     C_R   0.399249 0.061989 0.404623 0.038280
C16   C     C_R   0.145007 0.714237 0.488130 0.562469
C17   C     C_R   0.490163 0.168667 0.364724 0.145195
C18   C     C_R   0.612122 0.199824 0.399465 -0.073681
C19   C     C_R   0.347092 0.877498 0.512992 0.067056
C20   C     C_R   0.188975 0.916389 0.409496 -0.112320
C21   C     C_R   0.771929 0.161839 0.509593 0.016617
C22   C     C_R   0.297059 0.277080 0.583975 0.069710
C23   C     C_R   0.165957 0.439841 0.086577 -0.111429
C24   C     C_R   0.768762 0.666234 0.391565 0.306365
C25   C     C_R   0.695983 0.720099 0.397280 0.099436
C26   C     C_R   0.592830 0.658301 0.442916 -0.153194
C27   C     C_R   0.559528 0.541484 0.483341 -0.058176
C28   C     C_R   0.999431 0.499238 0.328880 0.536533
C29   C     C_R   0.647735 0.495664 0.491959 0.142565
C30   C     C_R   0.442652 0.469788 0.517188 -0.031020
C31   C     C_R   0.409102 0.349396 0.547495 0.022763
C32   C     C_R   0.490670 0.304259 0.545895 -0.118255
C33   C     C_R   0.612887 0.377840 0.537617 0.113134
C34   C     C_R   0.166802 0.441357 0.993909 -0.113743
C35   C     C_R   0.354204 0.510750 0.517636 0.041192
C36   C     C_R   0.219759 0.325146 0.589042 0.076866
C37   C     C_R   0.915268 0.525998 0.165678 -0.134371
C38   C     C_R   0.998819 0.497695 0.232124 -0.004393
C39   C     C_R   0.082346 0.468731 0.205752 -0.113649
C40   C     C_R   0.083308 0.469346 0.113258 0.024834
C41   C     C_R   0.000565 0.500634 0.046359 0.055534
C42   C     C_3   0.490546 0.356091 0.287813 -0.284335
C43   C     C_3   0.787985 0.706427 0.229199 -0.300720
C44   C     C_3   0.639786 0.503939 0.823774 -0.292591
C45   C     C_R   0.085424 0.472908 0.926982 0.018622
C46   C     C_R   0.001825 0.503062 0.953051 0.034846
C47   C     C_R   0.919950 0.535853 0.885972 0.045703
C48   C     C_R   0.836432 0.565319 0.913098 0.142325
C49   C     C_R   0.835853 0.562042 0.006534 -0.114491
Cu1   Cu    Cu3+1 0.098270 0.475420 0.521130 0.972690
Cu2   Cu    Cu3+1 0.901730 0.524580 0.478870 0.965933
H1    H     H_    0.849311 0.545780 0.185972 0.122384
H2    H     H_    0.537984 0.702959 0.441783 0.119974
H3    H     H_    0.229764 0.415542 0.137336 0.127488
H4    H     H_    0.231180 0.418028 0.974535 0.117124
H5    H     H_    0.148856 0.449295 0.814608 0.139434
H6    H     H_    0.863622 0.565698 0.740923 0.182656
H7    H     H_    0.771665 0.584606 0.027227 0.104591
H8    H     H_    0.093462 0.889540 0.384150 0.177609
H9    H     H_    0.393114 0.197629 0.236143 0.284321
H10   H     H_    0.467001 0.400823 0.219281 0.138404
H11   H     H_    0.588755 0.406287 0.308955 0.149106
H12   H     H_    0.905728 0.101924 0.588538 0.144241
H13   H     H_    0.435777 0.355218 0.338130 0.181135
H14   H     H_    0.924895 0.703387 0.331965 0.295248
H15   H     H_    0.729826 0.613341 0.224958 0.117794
H16   H     H_    0.856556 0.743767 0.178980 0.146123
H17   H     H_    0.729218 0.753360 0.209529 0.189468
H18   H     H_    0.740108 0.664721 0.862896 0.260860
H19   H     H_    0.586931 0.461576 0.884419 0.148268
H20   H     H_    0.656459 0.438623 0.800814 0.190501
H21   H     H_    0.585070 0.536937 0.766732 0.162112
H22   H     H_    0.548862 0.835379 0.545999 0.134186
H23   H     H_    0.763209 0.895132 0.604400 0.144116
H24   H     H_    0.679660 0.278651 0.364734 0.155575
H25   H     H_    0.133557 0.269376 0.616345 0.146117
H26   H     H_    0.465990 0.212531 0.569854 0.186626
H27   H     H_    0.146636 0.445655 0.256976 0.148321
H28   H     H_    0.366832 0.597967 0.487047 0.129484
I1    I     I_    0.187045 0.143892 0.318397 -0.391810
I2    I     I_    0.372697 0.799336 0.654417 -0.341457
I3    I     I_    0.234708 0.094782 0.632222 -0.351810
I4    I     I_    0.738808 0.896733 0.337250 -0.364742
I5    I     I_    0.696742 0.315523 0.663785 -0.364745
N1    N     N_R   0.246280 0.438190 0.553160 -0.252401
N2    N     N_R   0.754320 0.561190 0.447410 -0.250827
N3    N     N_2   0.465284 0.238505 0.282065 -0.510770
N4    N     N_2   0.849150 0.718516 0.321468 -0.482706
N5    N     N_2   0.753833 0.599632 0.846931 -0.529654
O1    O     O_R   0.972510 0.318130 0.526570 -0.509192
O2    O     O_R   0.806530 0.359650 0.490890 -0.492102
O3    O     O_R   0.082980 0.479210 0.647590 -0.490747
O4    O     O_R   0.917000 0.520730 0.611900 -0.474764
O5    O     O_R   0.193470 0.640350 0.509110 -0.488162
O6    O     O_R   0.027490 0.681870 0.473430 -0.514085
O7    O     O_R   0.083000 0.479270 0.388100 -0.497486
O8    O     O_R   0.917020 0.520790 0.352410 -0.536705

loop_
_geom_bond_atom_site_label_1
_geom_bond_atom_site_label_2
_ccdc_geom_bond_type
C28   O8    A    
Cu2   O8    S    
C1    C21   S    
C18   H24   S    
C27   C29   A    
C11   C13   A    
C12   C49   A    
C45   C46   A    
C5    C47   A    
C26   C27   A    
C37   C38   A    
C13   C18   A    
H14   N4    S    
C43   N4    S    
C22   I3    S    
C30   C31   A    
C10   H22   S    
C23   C40   A    
C29   C33   A    
C44   H20   S    
C12   C37   A    
C36   H25   S    
Cu1   N1    S    
Cu2   O2    S    
C32   H26   S    
Cu1   O1    S    
C47   C48   A    
C8    C9    A    
C41   C46   A    
C44   H19   S    
C9    C10   A    
C42   H11   S    
C6    C15   A    
C34   H4    S    
C1    O2    A    
C27   C30   A    
H18   N5    S    
Cu2   N2    S    
H9    N3    S    
Cu1   Cu2   S    
C2    C45   A    
C22   C31   A    
C39   H27   S    
C24   C25   A    
C1    O1    A    
C39   C40   A    
C37   H1    S    
Cu1   O5    S    
C25   C26   A    
C49   H7    S    
C12   C41   A    
C6    I1    S    
C31   C32   A    
C28   C38   S    
C23   C34   A    
C17   C18   A    
C13   C21   A    
C34   C45   A    
C20   H8    S    
C24   N4    S    
C42   H10   S    
C29   N2    A    
Cu2   O4    S    
C30   C35   A    
Cu1   O3    S    
C48   C49   A    
C7    C19   A    
C48   N5    S    
C9    H23   S    
C3    C4    S    
C26   H2    S    
C42   H13   S    
C22   C36   A    
C23   H3    S    
C15   C17   A    
C46   C47   A    
C7    C16   S    
C16   O6    A    
C17   N3    S    
C14   C19   A    
C3    C5    A    
C8    C21   A    
C36   N1    A    
C6    C20   A    
C43   H17   S    
C16   O5    A    
C5    H6    S    
C28   O7    A    
C32   C33   A    
C2    C3    A    
C2    H5    S    
C35   N1    A    
Cu1   O7    S    
C38   C39   A    
C43   H15   S    
C35   H28   S    
C11   C14   A    
C44   H21   S    
C33   I5    S    
C10   C11   A    
C8    H12   S    
C4    O4    A    
C43   H16   S    
C7    C20   A    
C25   I4    S    
C14   C15   A    
C40   C41   A    
C42   N3    S    
C19   I2    S    
C24   N2    A    
C44   N5    S    
Cu2   O6    S    
C4    O3    A    
