data_mof_unit_54621.cif
_audit_creation_date              2012-12-10T20:28:00-0500
_audit_creation_method            fapswitch 2.2
_symmetry_space_group_name_H-M    P1
_symmetry_Int_Tables_number       1
_space_group_crystal_system       triclinic
_cell_length_a                    12.863328
_cell_length_b                    10.676479
_cell_length_c                    9.865956
_cell_angle_alpha                 90.122746
_cell_angle_beta                  96.99257
_cell_angle_gamma                 90.171858
_cell_volume                      1344.85310454

loop_
_atom_site_label
_atom_site_type_symbol
_atom_type_description
_atom_site_fract_x
_atom_site_fract_y
_atom_site_fract_z
_atom_type_partial_charge
C1    C     C_R   0.498014 0.259992 0.499776 0.870188
C2    C     C_R   0.028685 0.522327 0.560898 0.188739
C3    C     C_R   0.971435 0.478553 0.438520 0.189402
C4    C     C_R   0.864354 0.467597 0.430721 -0.287066
C5    C     C_R   0.870452 0.541700 0.665263 -0.208465
C6    C     C_R   0.978272 0.552549 0.674276 -0.228946
C7    C     C_R   0.504635 0.063936 0.622786 0.122056
C8    C     C_R   0.484948 0.128282 0.499919 -0.101272
C9    C     C_R   0.447176 0.064270 0.379732 -0.227681
C10   C     C_R   0.447072 0.934647 0.379618 -0.222756
C11   C     C_R   0.484036 0.871355 0.500099 -0.101753
C12   C     C_R   0.298237 0.500892 0.473304 0.869571
C13   C     C_R   0.503876 0.936282 0.622904 0.140388
C14   C     C_3   0.596322 0.928855 0.730140 -0.488730
C15   C     C_3   0.597495 0.070800 0.729693 -0.479605
C16   C     C_R   0.418976 0.447410 0.058456 0.185878
C17   C     C_R   0.575279 0.561753 0.083999 -0.128877
C18   C     C_R   0.575444 0.561510 0.940061 -0.142045
C19   C     C_R   0.417662 0.448560 0.915708 0.169817
C20   C     C_3   0.379697 0.314977 0.904485 -0.069129
C21   C     C_3   0.385125 0.314451 0.059988 -0.580825
C22   C     C_R   0.497501 0.739897 0.499849 0.879167
C23   C     C_R   0.701798 0.499508 0.526635 0.882927
C24   C     C_R   0.813917 0.501146 0.542690 -0.051131
C25   C     C_R   0.186186 0.499439 0.456958 -0.040570
C26   C     C_R   0.021969 0.447452 0.325484 -0.227798
C27   C     C_R   0.129831 0.457630 0.334814 -0.209655
C28   C     C_R   0.135631 0.534476 0.568213 -0.285543
H1    H     H_    0.820218 0.434436 0.336651 0.158072
H2    H     H_    0.666116 0.886541 0.691807 0.197719
H3    H     H_    0.578062 0.112153 0.826859 0.196738
H4    H     H_    0.667824 0.111391 0.690696 0.202709
H5    H     H_    0.637153 0.609747 0.148122 0.149958
H6    H     H_    0.637456 0.609145 0.895674 0.142283
H7    H     H_    0.437686 0.250685 0.866785 0.185623
H8    H     H_    0.309106 0.304744 0.101853 0.191142
H9    H     H_    0.448303 0.252996 0.108988 0.201462
H10   H     H_    0.831268 0.567930 0.752232 0.153771
H11   H     H_    0.978432 0.414160 0.231241 0.137862
H12   H     H_    0.021902 0.585390 0.768660 0.135771
H13   H     H_    0.169138 0.430328 0.248308 0.153778
H14   H     H_    0.179626 0.569810 0.661324 0.150504
H15   H     H_    0.423146 0.113371 0.285476 0.162759
H16   H     H_    0.423725 0.884861 0.284939 0.170089
H17   H     H_    0.575385 0.888467 0.827042 0.204943
N1    N     N_R   0.499290 0.499140 0.142710 -0.101471
N2    N     N_R   0.499290 0.499180 0.857070 -0.115060
O1    O     O_R   0.500010 0.316790 0.614690 -0.621304
O2    O     O_R   0.500000 0.316760 0.385350 -0.618231
O3    O     O_R   0.346360 0.499990 0.595720 -0.621826
O4    O     O_R   0.346350 0.499960 0.366370 -0.622638
O5    O     O_R   0.500000 0.683240 0.614650 -0.616416
O6    O     O_R   0.499990 0.683210 0.385310 -0.621282
O7    O     O_R   0.653650 0.500040 0.633630 -0.627153
O8    O     O_R   0.653640 0.500010 0.404280 -0.624365
Zn1   Zn    Zn3+2 0.500010 0.500020 0.653130 0.939061
Zn2   Zn    Zn3+2 0.499990 0.499980 0.346870 0.941448
C29   C     C_3   0.266385 0.300391 0.832356 -0.340373
C30   C     C_3   0.261622 0.221058 0.702915 -0.839739
H18   H     H_    0.306100 0.265850 0.627062 0.274161
H19   H     H_    0.294061 0.126340 0.727353 0.248729
H20   H     H_    0.178887 0.210979 0.656666 0.244124
H21   H     H_    0.216024 0.252815 0.900516 0.203035
H22   H     H_    0.230728 0.393224 0.806702 0.207833

loop_
_geom_bond_atom_site_label_1
_geom_bond_atom_site_label_2
_ccdc_geom_bond_type
C12   O3    A    
C23   C24   S    
C1    O1    A    
C23   O8    A    
C16   C21   S    
O4    Zn2   S    
C22   O6    A    
C1    C8    S    
C11   C13   A    
C9    C10   A    
C27   H13   S    
C11   C22   S    
C4    H1    S    
C12   C25   S    
C18   N2    A    
C30   H18   S    
C7    C15   S    
C17   C18   A    
C21   H9    S    
C7    C8    A    
C21   H8    S    
C5    H10   S    
C17   N1    A    
C25   C28   A    
C15   H3    S    
C18   H6    S    
C26   C27   A    
C2    C6    A    
C5    C24   A    
C17   H5    S    
C14   H2    S    
C16   C19   A    
C15   H4    S    
C28   H14   S    
C2    C3    A    
C14   H17   S    
O7    Zn1   S    
O8    Zn2   S    
N1    Zn2   S    
C29   H22   S    
C5    C6    A    
C4    C24   A    
C6    H12   S    
C26   H11   S    
C9    H15   S    
C30   H19   S    
C10   C11   A    
C10   H16   S    
C3    C4    A    
O5    Zn1   S    
C7    C13   A    
C12   O4    A    
O2    Zn2   S    
C20   C21   S    
C23   O7    A    
C22   O5    A    
C19   N2    A    
C16   N1    A    
C29   H21   S    
O1    Zn1   S    
O6    Zn2   S    
C14   C15   S    
N2    Zn1   S    
C30   H20   S    
C2    C28   A    
C29   C30   S    
C13   C14   S    
C20   H7    S    
C20   C29   S    
C3    C26   A    
O3    Zn1   S    
C19   C20   S    
C8    C9    A    
C25   C27   A    
C1    O2    A    
