data_mof_unit_6793.cif
_audit_creation_date              2012-12-10T21:00:50-0500
_audit_creation_method            fapswitch 2.2
_symmetry_space_group_name_H-M    P1
_symmetry_Int_Tables_number       1
_space_group_crystal_system       triclinic
_cell_length_a                    18.147322
_cell_length_b                    18.178552
_cell_length_c                    18.325169
_cell_angle_alpha                 120.255878
_cell_angle_beta                  89.853768
_cell_angle_gamma                 119.85631
_cell_volume                      4272.83235877

loop_
_atom_site_label
_atom_site_type_symbol
_atom_type_description
_atom_site_fract_x
_atom_site_fract_y
_atom_site_fract_z
_atom_type_partial_charge
C1    C     C_R   0.111880 0.220136 0.609323 0.499969
C2    C     C_3   0.449384 0.896995 0.947153 0.040010
C3    C     C_1   0.526448 0.924384 0.089979 0.196699
C4    C     C_3   0.477007 0.033115 0.074607 -0.148242
C5    C     C_3   0.522992 0.966885 0.925393 -0.148248
C6    C     C_3   0.413388 0.435587 0.447668 -0.107921
C7    C     C_3   0.586612 0.564412 0.552332 -0.107923
C8    C     C_3   0.478396 0.403137 0.443416 -0.118460
C9    C     C_3   0.521604 0.596862 0.556584 -0.118459
C10   C     C_3   0.551160 0.500370 0.449753 0.064595
C11   C     C_3   0.448840 0.499629 0.550247 0.064594
C12   C     C_3   0.487097 0.532872 0.453199 -0.122283
C13   C     C_R   0.888126 0.779865 0.390678 0.500017
C14   C     C_3   0.512903 0.467127 0.546801 -0.122289
C15   C     C_R   0.305617 0.218610 0.740128 -0.098761
C16   C     C_R   0.694487 0.781529 0.259854 -0.098819
C17   C     C_R   0.392552 0.780950 0.888193 0.510790
C18   C     C_R   0.607448 0.219050 0.111807 0.510785
C19   C     C_R   0.234920 0.169754 0.665628 -0.073274
C20   C     C_R   0.765151 0.830422 0.334398 -0.073419
C21   C     C_R   0.145426 0.102569 0.656424 0.037220
C22   C     C_R   0.854667 0.897433 0.343539 0.037180
C23   C     C_R   0.128126 0.083537 0.722092 -0.077434
C24   C     C_3   0.981760 0.428298 0.413161 -0.122100
C25   C     C_R   0.872036 0.916238 0.277755 -0.077299
C26   C     C_R   0.199248 0.132174 0.796490 0.006471
C27   C     C_R   0.800950 0.867542 0.203300 0.006490
C28   C     C_R   0.288009 0.199797 0.805378 -0.091048
C29   C     C_R   0.712159 0.800114 0.194484 -0.091064
C30   C     C_R   0.011190 0.943775 0.524349 -0.135122
C31   C     C_R   0.988852 0.056226 0.475641 -0.135142
C32   C     C_R   0.942641 0.892252 0.446709 0.033754
C33   C     C_R   0.057391 0.107751 0.553288 0.033751
C34   C     C_R   0.930150 0.948392 0.422044 -0.019957
C35   C     C_3   0.018241 0.571703 0.586839 -0.122093
C36   C     C_R   0.069903 0.051614 0.577946 -0.019879
C37   C     C_R   0.643744 0.562072 0.775675 -0.111029
C38   C     C_R   0.356282 0.437965 0.224330 -0.111046
C39   C     C_R   0.600759 0.520706 0.822351 0.011825
C40   C     C_R   0.399265 0.479312 0.177644 0.011844
C41   C     C_R   0.111414 0.501122 0.890132 0.554263
C42   C     C_R   0.888586 0.498878 0.109868 0.554261
C43   C     C_R   0.587103 0.581272 0.900217 0.032367
C44   C     C_R   0.412899 0.418723 0.099772 0.032372
C45   C     C_R   0.619911 0.683815 0.931553 -0.050168
C46   C     C_3   0.412624 0.964587 0.977202 -0.126557
C47   C     C_R   0.380070 0.316178 0.068442 -0.050172
C48   C     C_R   0.662004 0.723908 0.884108 -0.063811
C49   C     C_R   0.337977 0.276105 0.115897 -0.063887
C50   C     C_R   0.673599 0.663006 0.806122 -0.093946
C51   C     C_R   0.326405 0.337029 0.193888 -0.094033
C52   C     C_R   0.589678 0.537621 0.006175 -0.136012
C53   C     C_R   0.410316 0.462344 0.993797 -0.135975
C54   C     C_R   0.550057 0.498753 0.055207 0.024317
C55   C     C_R   0.449941 0.501225 0.944774 0.024308
C56   C     C_R   0.459165 0.460099 0.049000 -0.042186
C57   C     C_3   0.587375 0.035412 0.022798 -0.126571
C58   C     C_R   0.540832 0.539875 0.950976 -0.042206
C59   C     C_R   0.283396 0.853245 0.095738 -0.167652
C60   C     C_R   0.716602 0.146755 0.904262 -0.167644
C61   C     C_R   0.223606 0.752079 0.072304 0.012838
C62   C     C_R   0.776392 0.247920 0.927695 0.012838
C63   C     C_R   0.130805 0.696907 0.028784 0.030521
C64   C     C_R   0.869194 0.303093 0.971215 0.030527
C65   C     C_R   0.392212 0.499909 0.607561 0.508133
C66   C     C_R   0.607788 0.500090 0.392439 0.508140
C67   C     C_R   0.100166 0.743618 0.007919 0.004555
C68   C     C_3   0.487307 0.035408 0.956948 -0.009442
C69   C     C_R   0.899832 0.256383 0.992082 0.004561
C70   C     C_R   0.160400 0.844315 0.031351 0.405376
C71   C     C_R   0.839598 0.155688 0.968653 0.405355
C72   C     C_R   0.251616 0.899484 0.076230 -0.092352
C73   C     C_R   0.748381 0.100518 0.923773 -0.092345
C74   C     C_R   0.007499 0.591241 0.063685 0.344502
C75   C     C_R   0.992500 0.408759 0.936314 0.344503
C76   C     C_R   0.944329 0.497644 0.052693 -0.016907
C77   C     C_R   0.055670 0.502356 0.947307 -0.016908
C78   C     C_R   0.936574 0.405430 0.988417 -0.069352
C79   C     C_3   0.512692 0.964592 0.043052 -0.009448
C80   C     C_R   0.063425 0.594570 0.011582 -0.069349
C81   C     C_R   0.393986 0.499535 0.888094 0.509518
C82   C     C_R   0.606014 0.500460 0.111901 0.509549
C83   C     C_R   0.108950 0.500227 0.607771 0.518604
C84   C     C_R   0.891050 0.499774 0.392229 0.518598
C85   C     C_3   0.076048 0.523585 0.481852 -0.009389
C86   C     C_3   0.923952 0.476415 0.518149 -0.009390
C87   C     C_3   0.043411 0.595103 0.516307 -0.138406
C88   C     C_3   0.956589 0.404897 0.483693 -0.138411
C89   C     C_3   0.948678 0.499473 0.448737 0.035312
C90   C     C_3   0.550616 0.103005 0.052847 0.040014
C91   C     C_3   0.051322 0.500527 0.551263 0.035311
C92   C     C_1   0.180952 0.112690 0.863676 0.200076
C93   C     C_1   0.819315 0.886733 0.135963 0.200133
C94   C     C_1   0.572353 0.416935 0.790050 0.181862
C95   C     C_1   0.427686 0.583082 0.209934 0.181882
C96   C     C_1   0.160558 0.549515 0.462189 0.218893
C97   C     C_1   0.839443 0.450485 0.537811 0.218899
C98   C     C_1   0.258235 0.707822 0.095892 0.209017
C99   C     C_1   0.741764 0.292177 0.904105 0.209015
C100  C     C_1   0.473550 0.075615 0.910021 0.196731
F1    F     F_    0.130007 0.889256 0.012022 -0.610005
F2    F     F_    0.869991 0.110748 0.987984 -0.610087
F3    F     F_    0.017635 0.681047 0.128168 -0.602799
F4    F     F_    0.982364 0.318952 0.871831 -0.602779
H1    H     H_    0.078666 0.672667 0.528483 0.129912
H2    H     H_    0.940807 0.967840 0.284146 0.129230
H3    H     H_    0.021106 0.899445 0.541383 0.134259
H4    H     H_    0.978936 0.100547 0.458592 0.134324
H5    H     H_    0.706335 0.694298 0.769550 0.125979
H6    H     H_    0.293668 0.305752 0.230468 0.125980
H7    H     H_    0.654383 0.516284 0.715736 0.128865
H8    H     H_    0.345659 0.483771 0.284272 0.128864
H9    H     H_    0.611048 0.731859 0.991717 0.126885
H10   H     H_    0.388913 0.268117 0.008272 0.126925
H11   H     H_    0.685686 0.802326 0.907884 0.147213
H12   H     H_    0.921335 0.327333 0.471517 0.129911
H13   H     H_    0.314279 0.197685 0.092127 0.147311
H14   H     H_    0.659277 0.566258 0.010361 0.162726
H15   H     H_    0.340718 0.433707 0.989611 0.162740
H16   H     H_    0.297617 0.978393 0.096154 0.128244
H17   H     H_    0.702380 0.021610 0.903849 0.128232
H18   H     H_    0.354427 0.896967 0.130448 0.132281
H19   H     H_    0.645571 0.103034 0.869552 0.132278
H20   H     H_    0.029163 0.702460 0.974920 0.156888
H21   H     H_    0.970835 0.297542 0.025082 0.156873
H22   H     H_    0.967032 0.370175 0.341566 0.150444
H23   H     H_    0.343531 0.237843 0.862525 0.121434
H24   H     H_    0.032968 0.629825 0.658434 0.150464
H25   H     H_    0.340790 0.934909 0.956304 0.148494
H26   H     H_    0.659209 0.065091 0.043697 0.148467
H27   H     H_    0.460396 0.062238 0.137172 0.109709
H28   H     H_    0.539603 0.937762 0.862828 0.109708
H29   H     H_    0.461761 0.323766 0.395966 0.124460
H30   H     H_    0.538239 0.676233 0.604034 0.124460
H31   H     H_    0.341448 0.382792 0.405554 0.134201
H32   H     H_    0.658552 0.617206 0.594446 0.134205
H33   H     H_    0.477998 0.560247 0.414062 0.118624
H34   H     H_    0.656664 0.762031 0.137298 0.121344
H35   H     H_    0.522001 0.439752 0.585938 0.118624
H36   H     H_    0.374117 0.271286 0.747336 0.135103
H37   H     H_    0.625964 0.728993 0.252697 0.135221
H38   H     H_    0.249861 0.184608 0.615318 0.101795
H39   H     H_    0.750171 0.815728 0.384791 0.101889
H40   H     H_    0.059380 0.031786 0.715649 0.129157
N1    N     N_1   0.166050 0.096843 0.917565 -0.241889
N2    N     N_1   0.537196 0.892473 0.126835 -0.282361
N3    N     N_1   0.834276 0.902341 0.081946 -0.241795
N4    N     N_1   0.549989 0.333900 0.764308 -0.268165
N5    N     N_1   0.450059 0.666116 0.235666 -0.268220
N6    N     N_1   0.227210 0.569882 0.446702 -0.291053
N7    N     N_1   0.772790 0.430118 0.553298 -0.291045
N8    N     N_1   0.285994 0.672254 0.114660 -0.257117
N9    N     N_1   0.714005 0.327745 0.885337 -0.257117
N10   N     N_1   0.462800 0.107526 0.873166 -0.282371
O1    O     O_3   0.251620 0.500000 0.748430 -0.456182
O2    O     O_R   0.570330 0.268390 0.136490 -0.537691
O3    O     O_R   0.134680 0.268390 0.572240 -0.553816
O4    O     O_R   0.865320 0.731610 0.427760 -0.553795
O5    O     O_R   0.306670 0.731630 0.863510 -0.543249
O6    O     O_R   0.693330 0.268370 0.136490 -0.543255
O7    O     O_R   0.135450 0.439270 0.865360 -0.460647
O8    O     O_R   0.864550 0.560730 0.134640 -0.460659
O9    O     O_R   0.429670 0.560710 0.692610 -0.544984
O10   O     O_R   0.570330 0.439290 0.307390 -0.544976
O11   O     O_R   0.308540 0.439240 0.865360 -0.546574
O12   O     O_3   0.748380 0.500000 0.251570 -0.456182
O13   O     O_R   0.691460 0.560760 0.134640 -0.546570
O14   O     O_R   0.133580 0.439310 0.571150 -0.533730
O15   O     O_R   0.866420 0.560690 0.428850 -0.533734
O16   O     O_R   0.430770 0.560690 0.864590 -0.542232
O17   O     O_R   0.569230 0.439310 0.135410 -0.542221
O18   O     O_R   0.133580 0.560760 0.692610 -0.539771
O19   O     O_R   0.866420 0.439240 0.307390 -0.539778
O20   O     O_R   0.134680 0.560740 0.864590 -0.561241
O21   O     O_R   0.865320 0.439260 0.135410 -0.561244
O22   O     O_R   0.306670 0.439270 0.571150 -0.541125
O23   O     O_R   0.693330 0.560730 0.428850 -0.541119
O24   O     O_R   0.135450 0.268370 0.694460 -0.513939
O25   O     O_R   0.864550 0.731630 0.305540 -0.513953
O26   O     O_R   0.429670 0.731610 0.863510 -0.537696
Zn1   Zn    Zn3+2 0.207400 0.586780 0.791530 0.952638
Zn2   Zn    Zn3+2 0.792600 0.413220 0.208470 0.952620
Zn3   Zn    Zn3+2 0.208510 0.413230 0.792630 0.996920
Zn4   Zn    Zn3+2 0.791490 0.586770 0.207370 0.996909
Zn5   Zn    Zn3+2 0.383150 0.586740 0.791530 0.937440
Zn6   Zn    Zn3+2 0.616850 0.413260 0.208470 0.937470
Zn7   Zn    Zn3+2 0.207400 0.413250 0.618010 0.945051
Zn8   Zn    Zn3+2 0.792600 0.586750 0.381990 0.945074

loop_
_geom_bond_atom_site_label_1
_geom_bond_atom_site_label_2
_ccdc_geom_bond_type
C47   H10   S    
C38   C40   A    
C41   O20   A    
C88   H12   S    
C41   O7    A    
C30   H3    S    
C27   C29   A    
C31   H4    S    
C57   C79   S    
C13   C32   S    
C61   C98   S    
O12   Zn2   S    
C3    C79   S    
C24   C89   S    
C46   H25   S    
C85   C91   S    
C70   F1    S    
C1    C33   S    
C5    C57   S    
C47   C49   A    
C21   C36   S    
C98   N8    T    
C2    C46   S    
C15   C19   A    
C29   H34   S    
O23   Zn8   S    
C74   C76   A    
O12   Zn8   S    
C19   C21   A    
C76   C78   A    
O25   Zn4   S    
O10   Zn6   S    
C42   O21   A    
C41   C77   S    
C11   C14   S    
C86   C88   S    
C45   C48   A    
C26   C92   S    
C99   N9    T    
C60   C73   A    
C33   C36   A    
C60   C62   A    
C23   C26   A    
C61   C63   A    
C86   C97   S    
C62   C64   A    
C2    C79   S    
C43   C58   S    
C46   C68   S    
C35   C87   S    
O18   Zn1   S    
C5    H28   S    
C49   H13   S    
C49   C51   A    
C22   C25   A    
C68   C90   S    
C31   C33   A    
C95   N5    T    
C55   C81   S    
C24   C85   S    
O24   Zn3   S    
C44   C47   A    
C59   C72   A    
C82   O13   A    
C9    H30   S    
C59   H18   S    
C48   C50   A    
C8    H29   S    
C69   H21   S    
O14   Zn7   S    
C74   C80   A    
C67   H20   S    
C2    C17   S    
C24   H22   S    
C20   H39   S    
C65   O9    A    
C5    C68   S    
C10   C12   S    
O20   Zn1   S    
O6    Zn2   S    
C75   C78   A    
C52   C54   A    
C25   H2    S    
C4    H27   S    
C4    C90   S    
C63   C80   S    
C53   C55   A    
C21   C23   A    
C94   N4    T    
C22   C34   S    
C66   O23   A    
C63   C67   A    
C59   C61   A    
C69   C71   A    
C57   C90   S    
C85   C87   S    
O11   Zn3   S    
C57   H26   S    
O12   Zn4   S    
C4    C79   S    
C84   O15   A    
O1    Zn5   S    
C6    C11   S    
C71   C73   A    
C4    C46   S    
C38   C51   A    
C16   C29   A    
C13   O25   A    
C50   H5    S    
C7    C14   S    
C18   C90   S    
O7    Zn3   S    
C60   H19   S    
C68   C100  S    
C39   C94   S    
O8    Zn4   S    
C6    H31   S    
C43   C45   A    
C1    O24   A    
C44   C56   S    
O13   Zn4   S    
C87   H1    S    
C88   C91   S    
C16   C20   A    
C96   N6    T    
C83   O18   A    
C72   H16   S    
C42   O8    A    
C97   N7    T    
C31   C34   A    
C66   O10   A    
C81   O16   A    
O5    Zn1   S    
C9    C11   S    
C52   C58   A    
C48   H11   S    
C17   O26   A    
C71   F2    S    
C20   C22   A    
O19   Zn2   S    
C51   H6    S    
C73   H17   S    
O21   Zn2   S    
C65   O22   A    
C75   F4    S    
C23   H40   S    
C27   C93   S    
C2    C5    S    
C25   C27   A    
C84   C89   S    
C40   C95   S    
C38   H8    S    
C84   O19   A    
C6    C12   S    
C13   O4    A    
C54   C82   S    
C18   O2    A    
O22   Zn7   S    
C15   H36   S    
C53   C56   A    
C100  N10   T    
C7    C9    S    
C53   H15   S    
C82   O17   A    
C8    C14   S    
O17   Zn6   S    
C92   N1    T    
O12   Zn6   S    
C64   C78   S    
C24   C88   S    
O1    Zn1   S    
O3    Zn7   S    
O15   Zn8   S    
C86   C89   S    
O4    Zn8   S    
C6    C8    S    
C28   H23   S    
C54   C56   A    
O2    Zn6   S    
C19   H38   S    
C64   C69   A    
C83   O14   A    
C26   C28   A    
C30   C36   A    
O9    Zn5   S    
C67   C70   A    
C7    C10   S    
C87   C89   S    
C16   H37   S    
C10   C66   S    
C7    H32   S    
C37   C39   A    
O1    Zn7   S    
C30   C32   A    
C37   C50   A    
C77   C80   A    
C15   C28   A    
C55   C58   A    
C83   C91   S    
O16   Zn5   S    
C1    O3    A    
C85   C96   S    
C42   C76   S    
C93   N3    T    
O1    Zn3   S    
C35   H24   S    
C17   O5    A    
C9    C12   S    
C37   H7    S    
C18   O6    A    
O26   Zn5   S    
C62   C99   S    
C45   H9    S    
C40   C44   A    
C14   H35   S    
C39   C43   A    
C3    N2    T    
C8    C10   S    
C75   C77   A    
C81   O11   A    
C12   H33   S    
C70   C72   A    
C35   C86   S    
C11   C65   S    
C35   C91   S    
C32   C34   A    
C74   F3    S    
C52   H14   S    
