data_mof_unit_57201.cif
_audit_creation_date              2012-10-26T19:23:08-0400
_audit_creation_method            fapswitch 2.2
_symmetry_space_group_name_H-M    P1
_symmetry_Int_Tables_number       1
_space_group_crystal_system       triclinic
_cell_length_a                    17.312767
_cell_length_b                    13.027198
_cell_length_c                    11.808453
_cell_angle_alpha                 100.850211
_cell_angle_beta                  91.77736
_cell_angle_gamma                 93.136289
_cell_volume                      2609.39308286

loop_
_atom_site_label
_atom_site_type_symbol
_atom_type_description
_atom_site_fract_x
_atom_site_fract_y
_atom_site_fract_z
_atom_type_partial_charge
C1    C     C_R   0.500135 0.299080 0.477859 0.552818
C2    C     C_R   0.502370 0.859505 0.436672 -0.121658
C3    C     C_R   0.499619 0.032455 0.555374 0.022080
C4    C     C_R   0.500172 0.967539 0.444626 0.022114
C5    C     C_R   0.408702 0.430854 0.028624 -0.072046
C6    C     C_R   0.591311 0.569100 0.971360 -0.072059
C7    C     C_R   0.420804 0.429522 0.148484 0.051306
C8    C     C_R   0.579195 0.570474 0.851514 0.051340
C9    C     C_R   0.538953 0.531302 0.155111 0.510398
C10   C     C_R   0.461066 0.468655 0.844875 0.510355
C11   C     C_R   0.533124 0.525112 0.032015 -0.060249
C12   C     C_R   0.499830 0.700919 0.522142 0.552864
C13   C     C_R   0.466890 0.474846 0.967972 -0.060271
C14   C     C_R   0.351239 0.502291 0.513623 0.585866
C15   C     C_R   0.648764 0.497708 0.486376 0.585839
C16   C     C_R   0.267504 0.501450 0.516821 0.026693
C17   C     C_R   0.732505 0.498602 0.483183 0.026662
C18   C     C_R   0.226509 0.557404 0.446857 0.335855
C19   C     C_R   0.773538 0.442792 0.553267 0.335821
C20   C     C_R   0.145786 0.543078 0.433644 0.008260
C21   C     C_R   0.854257 0.457221 0.566493 0.008270
C22   C     C_R   0.106603 0.475388 0.496912 -0.032685
C23   C     C_R   0.498154 0.814718 0.534973 -0.007438
C24   C     C_R   0.893399 0.524828 0.503085 -0.032696
C25   C     C_R   0.148116 0.422747 0.569450 -0.159724
C26   C     C_R   0.851857 0.577313 0.430421 -0.159663
C27   C     C_R   0.228250 0.435906 0.579727 -0.185960
C28   C     C_R   0.771725 0.564075 0.420152 -0.185881
C29   C     C_2   0.022310 0.459410 0.492182 -0.131280
C30   C     C_2   0.977688 0.540836 0.507783 -0.131316
C31   C     C_R   0.637485 0.632304 0.798431 0.082810
C32   C     C_R   0.622360 0.733926 0.785838 -0.080158
C33   C     C_R   0.679078 0.798941 0.748584 -0.127189
C34   C     C_R   0.501723 0.185278 0.465027 -0.007489
C35   C     C_R   0.753124 0.764160 0.728437 -0.115279
C36   C     C_R   0.770442 0.665106 0.747104 -0.117386
C37   C     C_R   0.713085 0.599336 0.782235 -0.057659
C38   C     C_R   0.362478 0.367773 0.201595 0.082825
C39   C     C_R   0.286899 0.400834 0.217773 -0.057672
C40   C     C_R   0.229498 0.335148 0.252935 -0.117376
C41   C     C_R   0.246753 0.236084 0.271652 -0.115272
C42   C     C_R   0.320776 0.201208 0.251516 -0.127198
C43   C     C_R   0.377536 0.266139 0.214225 -0.080179
C44   C     C_R   0.332458 0.392828 0.969625 0.087335
C45   C     C_R   0.500916 0.012443 0.344469 -0.018662
C46   C     C_R   0.312666 0.285302 0.935651 -0.038539
C47   C     C_R   0.241476 0.250669 0.878369 -0.101331
C48   C     C_R   0.189651 0.323162 0.854614 -0.115011
C49   C     C_R   0.208746 0.430431 0.888616 -0.105313
C50   C     C_R   0.279948 0.465339 0.945902 -0.052966
C51   C     C_R   0.667564 0.607080 0.030331 0.087332
C52   C     C_R   0.720154 0.534543 0.053698 -0.053267
C53   C     C_R   0.791384 0.569417 0.110902 -0.105331
C54   C     C_R   0.810414 0.676677 0.145207 -0.115066
C55   C     C_R   0.758499 0.749193 0.121835 -0.101328
C56   C     C_R   0.498898 0.987557 0.655538 -0.018643
C57   C     C_R   0.687292 0.714593 0.064604 -0.038338
C58   C     C_R   0.895025 0.408553 0.653777 0.062545
C59   C     C_R   0.941727 0.470790 0.743250 -0.095597
C60   C     C_R   0.978682 0.425101 0.826514 -0.125113
C61   C     C_R   0.969011 0.317204 0.821790 -0.119823
C62   C     C_R   0.923004 0.254628 0.733076 -0.123104
C63   C     C_R   0.886130 0.299922 0.649330 -0.054639
C64   C     C_R   0.105059 0.591988 0.346539 0.062599
C65   C     C_R   0.113987 0.700652 0.351318 -0.054633
C66   C     C_R   0.077150 0.746190 0.267755 -0.123032
C67   C     C_R   0.506550 0.121246 0.356629 -0.140590
C68   C     C_R   0.031149 0.683828 0.178891 -0.119814
C69   C     C_R   0.021448 0.575897 0.173834 -0.125178
C70   C     C_R   0.058367 0.529962 0.256918 -0.095572
C71   C     C_R   0.489956 0.948414 0.226611 0.013779
C72   C     C_R   0.422706 0.881984 0.196466 -0.100080
C73   C     C_R   0.411481 0.822218 0.085277 -0.104170
C74   C     C_R   0.466422 0.829790 0.002788 -0.108162
C75   C     C_R   0.532783 0.897045 0.031553 -0.112668
C76   C     C_R   0.544800 0.955912 0.143144 -0.093586
C77   C     C_R   0.509900 0.051601 0.773399 0.013825
C78   C     C_R   0.493317 0.878749 0.643376 -0.140561
C79   C     C_R   0.455179 0.043948 0.857014 -0.093506
C80   C     C_R   0.467255 0.102819 0.968604 -0.112636
C81   C     C_R   0.533556 0.170219 0.997231 -0.108151
C82   C     C_R   0.588369 0.177959 0.914595 -0.104060
C83   C     C_R   0.577088 0.118192 0.803408 -0.100057
C84   C     C_R   0.497427 0.140490 0.563320 -0.121792
Cu1   Cu    Cu3+1 0.505800 0.507690 0.615350 1.054258
Cu2   Cu    Cu3+1 0.494200 0.492310 0.384650 1.054268
F1    F     F_    0.265738 0.621447 0.386804 -0.661796
F2    F     F_    0.734347 0.378800 0.613423 -0.661898
F3    F     F_    0.403867 0.407963 0.779752 -0.627626
F4    F     F_    0.596181 0.591948 0.220217 -0.627674
H1    H     H_    0.740186 0.607916 0.366532 0.184146
H2    H     H_    0.512778 0.155386 0.280840 0.113152
H3    H     H_    0.567019 0.763055 0.808225 0.093433
H4    H     H_    0.666072 0.876984 0.737903 0.114109
H5    H     H_    0.797497 0.814717 0.700834 0.108879
H6    H     H_    0.828476 0.639778 0.735170 0.108362
H7    H     H_    0.727695 0.523619 0.798741 0.161791
H8    H     H_    0.272341 0.476564 0.201239 0.161629
H9    H     H_    0.171481 0.360549 0.264864 0.108354
H10   H     H_    0.202349 0.185591 0.299288 0.108874
H11   H     H_    0.333732 0.123154 0.262236 0.114070
H12   H     H_    0.259765 0.391954 0.633246 0.183982
H13   H     H_    0.432853 0.236927 0.191825 0.093418
H14   H     H_    0.352330 0.228724 0.953144 0.108646
H15   H     H_    0.226621 0.167624 0.851992 0.099075
H16   H     H_    0.134921 0.296134 0.809347 0.104286
H17   H     H_    0.168614 0.486476 0.869897 0.107602
H18   H     H_    0.294423 0.548627 0.971432 0.099107
H19   H     H_    0.705732 0.451263 0.027919 0.099130
H20   H     H_    0.831593 0.513355 0.129313 0.107567
H21   H     H_    0.865164 0.703678 0.190412 0.104288
H22   H     H_    0.773300 0.832232 0.148461 0.099066
H23   H     H_    0.003049 0.620358 0.517905 0.127396
H24   H     H_    0.647562 0.771181 0.047392 0.108721
H25   H     H_    0.949397 0.554645 0.748847 0.097903
H26   H     H_    0.014708 0.473416 0.894832 0.101393
H27   H     H_    0.997338 0.282047 0.886717 0.103281
H28   H     H_    0.915850 0.170963 0.729233 0.100572
H29   H     H_    0.850906 0.250331 0.580835 0.138540
H30   H     H_    0.149208 0.750077 0.419934 0.138427
H31   H     H_    0.084330 0.829879 0.271855 0.100580
H32   H     H_    0.002848 0.719179 0.114109 0.103236
H33   H     H_    0.985423 0.527749 0.105400 0.101373
H34   H     H_    0.996935 0.379894 0.482085 0.127385
H35   H     H_    0.050677 0.446087 0.251069 0.097923
H36   H     H_    0.379091 0.876500 0.259231 0.126285
H37   H     H_    0.359901 0.770646 0.062811 0.111978
H38   H     H_    0.456847 0.784355 0.916450 0.100610
H39   H     H_    0.574717 0.904872 0.967264 0.106439
H40   H     H_    0.596467 0.007618 0.164209 0.106279
H41   H     H_    0.403565 0.992117 0.836066 0.106264
H42   H     H_    0.425422 0.094878 0.033008 0.106495
H43   H     H_    0.543181 0.215642 0.083571 0.100659
H44   H     H_    0.639897 0.229658 0.936945 0.112006
H45   H     H_    0.118227 0.371099 0.618000 0.131754
H46   H     H_    0.620613 0.123806 0.740534 0.126300
H47   H     H_    0.881721 0.628899 0.381772 0.131810
H48   H     H_    0.508206 0.809527 0.353546 0.170458
H49   H     H_    0.491560 0.190472 0.646433 0.170519
H50   H     H_    0.487139 0.844604 0.719167 0.113126
N1    N     N_R   0.514530 0.519260 0.788680 -0.233086
N2    N     N_R   0.485470 0.480740 0.211320 -0.233067
O1    O     O_R   0.504120 0.354440 0.581590 -0.458199
O2    O     O_R   0.495880 0.645560 0.418410 -0.458220
O3    O     O_R   0.494320 0.341440 0.386760 -0.532704
O4    O     O_R   0.505680 0.658560 0.613240 -0.532701
O5    O     O_R   0.391870 0.507230 0.608700 -0.460393
O6    O     O_R   0.608130 0.492770 0.391300 -0.460346
O7    O     O_R   0.382070 0.494240 0.413880 -0.467514
O8    O     O_R   0.617930 0.505760 0.586120 -0.467462

loop_
_geom_bond_atom_site_label_1
_geom_bond_atom_site_label_2
_ccdc_geom_bond_type
C53   H20   S    
C66   C68   A    
C42   H11   S    
C20   C64   S    
C80   H42   S    
C22   C29   S    
C55   H22   S    
C45   C71   S    
C41   C42   A    
C1    O3    A    
C35   C36   A    
C26   H47   S    
C33   H4    S    
Cu1   O1    S    
C40   H9    S    
C37   H7    S    
C81   C82   A    
Cu2   O2    S    
C49   H17   S    
C53   C54   A    
C12   C23   S    
C29   C30   D    
C34   C67   A    
C36   C37   A    
C19   C21   A    
C24   C26   A    
C38   C39   A    
C69   H33   S    
C29   H34   S    
C56   C78   A    
C73   C74   A    
C12   O4    A    
Cu1   O8    S    
C17   C19   A    
C46   C47   A    
C76   H40   S    
C7    C38   S    
C74   H38   S    
C47   C48   A    
C84   H49   S    
C68   C69   A    
C47   H15   S    
C22   C25   A    
C45   C67   A    
C8    N1    A    
C51   C57   A    
C64   C70   A    
C6    C51   S    
C5    C13   A    
C78   H50   S    
C16   C27   A    
C32   H3    S    
C15   O6    A    
C59   C60   A    
C50   H18   S    
C17   C28   A    
C61   C62   A    
C34   C84   A    
C44   C46   A    
C1    C34   S    
C43   H13   S    
C4    C45   A    
C77   C79   A    
C48   H16   S    
C41   H10   S    
C74   C75   A    
C61   H27   S    
C51   C52   A    
C2    H48   S    
Cu1   O4    S    
C10   F3    S    
C19   F2    S    
Cu2   O7    S    
C68   H32   S    
C6    C11   A    
C5    C7    A    
C72   C73   A    
C39   H8    S    
C6    C8    A    
C3    C84   A    
C58   C59   A    
Cu1   Cu2   S    
C46   H14   S    
C14   O5    A    
C82   C83   A    
C56   C77   S    
C31   C37   A    
C72   H36   S    
C60   C61   A    
C10   N1    A    
C82   H44   S    
C2    C4    A    
C75   C76   A    
C62   C63   A    
C1    O1    A    
C63   H29   S    
C3    C56   A    
C36   H6    S    
C31   C32   A    
C79   H41   S    
C66   H31   S    
C9    C11   A    
C83   H46   S    
C70   H35   S    
C59   H25   S    
C48   C49   A    
C5    C44   S    
C20   C22   A    
C65   C66   A    
C55   C57   A    
C14   C16   S    
C60   H26   S    
C42   C43   A    
Cu1   N1    S    
C3    C4    A    
Cu2   O3    S    
C39   C40   A    
C52   C53   A    
Cu2   N2    S    
C44   C50   A    
C58   C63   A    
C15   C17   S    
C54   C55   A    
C40   C41   A    
C8    C31   S    
Cu1   O5    S    
C80   C81   A    
C10   C13   A    
Cu2   O6    S    
C9    F4    S    
C9    N2    A    
C81   H43   S    
C57   H24   S    
C35   H5    S    
C25   C27   A    
C27   H12   S    
C26   C28   A    
C18   F1    S    
C64   C65   A    
C21   C58   S    
C73   H37   S    
C32   C33   A    
C11   C13   A    
C71   C76   A    
C52   H19   S    
C14   O7    A    
C67   H2    S    
C33   C35   A    
C65   H30   S    
C54   H21   S    
C28   H1    S    
C18   C20   A    
C7    N2    A    
C23   C78   A    
C69   C70   A    
C25   H45   S    
C24   C30   S    
C62   H28   S    
C79   C80   A    
C12   O2    A    
C38   C43   A    
C71   C72   A    
C16   C18   A    
C49   C50   A    
C21   C24   A    
C2    C23   A    
C77   C83   A    
C15   O8    A    
C75   H39   S    
C30   H23   S    
