data_mof_unit_25145.cif
_audit_creation_date              2013-03-05T15:44:09-0500
_audit_creation_method            fapswitch 2.2
_symmetry_space_group_name_H-M    P1
_symmetry_Int_Tables_number       1
_space_group_crystal_system       triclinic
_cell_length_a                    19.54661
_cell_length_b                    11.185186
_cell_length_c                    19.724276
_cell_angle_alpha                 89.938265
_cell_angle_beta                  96.466101
_cell_angle_gamma                 89.843855
_cell_volume                      4284.91464008

loop_
_atom_site_label
_atom_site_type_symbol
_atom_site_description
_atom_site_fract_x
_atom_site_fract_y
_atom_site_fract_z
_atom_type_partial_charge
O1    O     O_R   0.783100 0.287550 0.345460 -0.525510
O2    O     O_R   0.216900 0.287550 0.654540 -0.523780
O3    O     O_R   0.283100 0.787550 0.345460 -0.523625
O4    O     O_R   0.716900 0.787550 0.654540 -0.527255
O5    O     O_R   0.760020 0.037400 0.337700 -0.522612
O6    O     O_R   0.239980 0.037400 0.662300 -0.522310
O7    O     O_R   0.260020 0.537400 0.337700 -0.522693
O8    O     O_R   0.739980 0.537400 0.662300 -0.514364
C1    C     C_R   0.722718 0.959778 0.362404 0.550589
C2    C     C_R   0.277349 0.959585 0.637630 0.549350
C3    C     C_R   0.222849 0.459109 0.362200 0.548443
C4    C     C_R   0.789486 0.489567 0.633155 0.546069
O9    O     O_R   0.666600 0.921990 0.332020 -0.447291
O10   O     O_R   0.333400 0.921990 0.667980 -0.449830
O11   O     O_R   0.166600 0.421990 0.332020 -0.449089
O12   O     O_R   0.833400 0.421990 0.667980 -0.453116
O13   O     O_R   0.557260 0.082670 0.312540 -0.460658
O14   O     O_R   0.442740 0.082670 0.687460 -0.462280
O15   O     O_R   0.057260 0.582670 0.312540 -0.460748
O16   O     O_R   0.942740 0.582670 0.687460 -0.469760
C5    C     C_R   0.536116 0.180810 0.338537 0.539548
C6    C     C_R   0.463618 0.180726 0.661286 0.539487
C7    C     C_R   0.036693 0.680915 0.338932 0.538581
C8    C     C_R   0.964352 0.680893 0.661774 0.536936
O17   O     O_R   0.548410 0.285740 0.316480 -0.488506
O18   O     O_R   0.451590 0.285740 0.683520 -0.486544
O19   O     O_R   0.048410 0.785740 0.316480 -0.488643
O20   O     O_R   0.951590 0.785740 0.683520 -0.489600
O21   O     O_R   0.680500 0.375040 0.327000 -0.443257
O22   O     O_R   0.319500 0.375040 0.673000 -0.443688
O23   O     O_R   0.180500 0.875040 0.327000 -0.444174
O24   O     O_R   0.819500 0.875040 0.673000 -0.447859
C9    C     C_R   0.738468 0.360400 0.361535 0.564380
C10   C     C_R   0.261366 0.361463 0.638571 0.565960
C11   C     C_R   0.238566 0.861387 0.361461 0.566730
C12   C     C_R   0.760666 0.864013 0.639334 0.565455
O25   O     O_R   0.780350 0.286720 0.192720 -0.466034
O26   O     O_R   0.219650 0.286720 0.807280 -0.465722
O27   O     O_R   0.280350 0.786720 0.192720 -0.465861
O28   O     O_R   0.719650 0.786720 0.807280 -0.465745
O29   O     O_R   0.757470 0.036630 0.196110 -0.485800
O30   O     O_R   0.242530 0.036630 0.803890 -0.485304
O31   O     O_R   0.257470 0.536630 0.196110 -0.485689
O32   O     O_R   0.742530 0.536630 0.803890 -0.481716
C13   C     C_R   0.722109 0.954826 0.163116 0.543319
C14   C     C_R   0.277901 0.954693 0.836896 0.544198
C15   C     C_R   0.222106 0.454830 0.163114 0.543123
C16   C     C_R   0.777901 0.454695 0.836897 0.550840
O33   O     O_R   0.663840 0.921160 0.179280 -0.486251
O34   O     O_R   0.336160 0.921160 0.820720 -0.486490
O35   O     O_R   0.163840 0.421160 0.179280 -0.486707
O36   O     O_R   0.836160 0.421160 0.820720 -0.483248
O37   O     O_R   0.554710 0.081900 0.170950 -0.467972
O38   O     O_R   0.445290 0.081900 0.829050 -0.467599
O39   O     O_R   0.054710 0.581900 0.170950 -0.467753
O40   O     O_R   0.945290 0.581900 0.829050 -0.467611
C17   C     C_R   0.533379 0.179943 0.140473 0.574554
C18   C     C_R   0.466705 0.179733 0.859503 0.574972
C19   C     C_R   0.033390 0.679949 0.140467 0.575106
C20   C     C_R   0.966712 0.679728 0.859499 0.575306
O41   O     O_R   0.545650 0.284910 0.163740 -0.482291
O42   O     O_R   0.454350 0.284910 0.836260 -0.482117
O43   O     O_R   0.045650 0.784910 0.163740 -0.481910
O44   O     O_R   0.954350 0.784910 0.836260 -0.481934
O45   O     O_R   0.677950 0.374280 0.185410 -0.497475
O46   O     O_R   0.322050 0.374280 0.814590 -0.497874
O47   O     O_R   0.177950 0.874280 0.185410 -0.497826
O48   O     O_R   0.822050 0.874280 0.814590 -0.496852
C21   C     C_R   0.735751 0.357097 0.163254 0.563357
C22   C     C_R   0.264265 0.356744 0.836790 0.561912
C23   C     C_R   0.235747 0.857082 0.163249 0.563159
C24   C     C_R   0.764267 0.856735 0.836793 0.562934
Cr1   Cr    Cr6+3 0.765780 0.160710 0.267420 1.089104
Cr2   Cr    Cr6+3 0.234220 0.160710 0.732580 1.089135
Cr3   Cr    Cr6+3 0.265780 0.660710 0.267420 1.089200
Cr4   Cr    Cr6+3 0.734220 0.660710 0.732580 1.090964
Cr5   Cr    Cr6+3 0.612200 0.009560 0.248850 1.146451
Cr6   Cr    Cr6+3 0.387800 0.009560 0.751150 1.145757
Cr7   Cr    Cr6+3 0.112200 0.509560 0.248850 1.145541
Cr8   Cr    Cr6+3 0.887800 0.509560 0.751150 1.142623
Cr9   Cr    Cr6+3 0.616030 0.323720 0.248510 1.131167
Cr10  Cr    Cr6+3 0.383970 0.323720 0.751490 1.131181
Cr11  Cr    Cr6+3 0.116030 0.823720 0.248510 1.130613
Cr12  Cr    Cr6+3 0.883970 0.823720 0.751490 1.126246
O49   O     O_3   0.664670 0.164660 0.254930 -0.323547
O50   O     O_3   0.335330 0.164660 0.745070 -0.323643
O51   O     O_3   0.164670 0.664660 0.254930 -0.323504
O52   O     O_3   0.835330 0.664660 0.745070 -0.332770
C25   C     C_1   0.485041 0.175377 0.594090 0.031129
C26   C     C_1   0.513990 0.175605 0.405451 0.032633
C27   C     C_1   0.987712 0.676770 0.595356 0.034123
C28   C     C_1   0.016260 0.676268 0.406561 0.030934
C29   C     C_1   0.503494 0.174604 0.464584 0.003396
C30   C     C_1   0.495137 0.174436 0.534850 0.002504
C31   C     C_1   0.006906 0.676322 0.466016 0.005132
C32   C     C_1   0.998833 0.676879 0.536374 0.005648
C33   C     C_3   0.697478 0.489128 0.532829 -0.231450
C34   C     C_3   0.308453 0.479051 0.465827 -0.232916
C35   C     C_3   0.191599 0.979594 0.534050 -0.232864
C36   C     C_3   0.807918 0.982646 0.466483 -0.233577
H1    H     H_    0.686535 0.582587 0.540076 0.158541
H2    H     H_    0.313514 0.574492 0.458248 0.160136
H3    H     H_    0.186253 0.075046 0.541451 0.160164
H4    H     H_    0.812438 0.078167 0.458410 0.159015
H5    H     H_    0.660379 0.443641 0.563192 0.139273
H6    H     H_    0.349064 0.438503 0.437676 0.134309
H7    H     H_    0.151162 0.939137 0.562357 0.133996
H8    H     H_    0.848879 0.941950 0.438866 0.134467
C37   C     C_3   0.680402 0.451687 0.457805 0.084029
C38   C     C_3   0.323244 0.445423 0.541899 0.087564
C39   C     C_3   0.176730 0.945920 0.458053 0.087209
C40   C     C_3   0.822172 0.950300 0.542895 0.090604
H9    H     H_    0.643054 0.376221 0.456247 0.118124
H10   H     H_    0.360710 0.369667 0.545919 0.119982
H11   H     H_    0.139351 0.870411 0.454238 0.119482
H12   H     H_    0.860205 0.875401 0.547781 0.121349
H13   H     H_    0.339282 0.080934 0.544437 0.105137
H14   H     H_    0.662236 0.086026 0.453751 0.102793
H15   H     H_    0.844024 0.599497 0.530983 0.095918
H16   H     H_    0.160760 0.581050 0.454755 0.104373
H17   H     H_    0.286699 0.076614 0.430582 0.125907
H18   H     H_    0.711785 0.084494 0.567766 0.130235
H19   H     H_    0.788627 0.579738 0.419790 0.131190
H20   H     H_    0.213046 0.577052 0.568684 0.125599
C41   C     C_3   0.830227 0.506057 0.518831 -0.005489
C42   C     C_3   0.175124 0.490442 0.472562 0.019951
C43   C     C_3   0.324926 0.990364 0.526999 0.018224
C44   C     C_3   0.674971 0.994956 0.472389 0.018502
C45   C     C_3   0.773800 0.317702 0.553078 -0.208404
C46   C     C_3   0.237267 0.301206 0.448579 -0.243436
C47   C     C_3   0.263279 0.801616 0.551659 -0.241894
C48   C     C_3   0.737034 0.804149 0.449848 -0.243885
C49   C     C_3   0.773101 0.453688 0.561243 0.002988
C50   C     C_3   0.235705 0.434245 0.435417 0.005003
C51   C     C_3   0.264506 0.934676 0.564445 0.004632
C52   C     C_3   0.735426 0.936888 0.435896 0.005896
H21   H     H_    0.821316 0.277925 0.578854 0.271174
H22   H     H_    0.192453 0.258756 0.420291 0.261203
H23   H     H_    0.308440 0.759417 0.579802 0.262233
H24   H     H_    0.692483 0.760882 0.421486 0.260888
H25   H     H_    0.729957 0.277117 0.575934 0.120666
H26   H     H_    0.284954 0.263050 0.431820 0.101589
H27   H     H_    0.215919 0.763527 0.568950 0.102353
H28   H     H_    0.785053 0.765391 0.434249 0.100588
C53   C     C_3   0.747863 0.402369 0.432117 0.016822
C54   C     C_3   0.254566 0.398391 0.566649 0.016784
C55   C     C_3   0.245401 0.898366 0.433311 0.016910
C56   C     C_3   0.753579 0.903064 0.567430 0.020050
C57   C     C_3   0.806636 0.493936 0.442164 -0.210768
C58   C     C_3   0.195600 0.488852 0.550344 -0.223580
C59   C     C_3   0.304287 0.988458 0.449252 -0.223222
C60   C     C_3   0.694905 0.994658 0.550443 -0.221691
C61   C     C_3   0.770080 0.291087 0.477024 -0.263110
C62   C     C_3   0.234647 0.283331 0.524820 -0.258150
C63   C     C_3   0.265493 0.783299 0.475408 -0.258099
C64   C     C_3   0.733751 0.788012 0.525834 -0.258641
H29   H     H_    0.733848 0.218506 0.464612 0.078913
H30   H     H_    0.268584 0.210729 0.543365 0.085420
H31   H     H_    0.231353 0.711009 0.457347 0.084851
H32   H     H_    0.767364 0.715018 0.545315 0.082784
H33   H     H_    0.822374 0.263410 0.466189 0.215306
H34   H     H_    0.180987 0.259637 0.532664 0.215859
H35   H     H_    0.319091 0.758962 0.467389 0.215749
H36   H     H_    0.679737 0.765912 0.533236 0.216869
H37   H     H_    0.850597 0.466566 0.414329 0.187251
H38   H     H_    0.150568 0.466140 0.577692 0.184484
H39   H     H_    0.349283 0.965256 0.421894 0.184216
H40   H     H_    0.649737 0.972471 0.577678 0.182339
C65   C     C_3   0.492821 0.308212 0.961504 0.001389
C66   C     C_3   0.508218 0.308371 0.038110 0.001098
C67   C     C_3   0.993072 0.808190 0.961458 0.001425
C68   C     C_3   0.008476 0.808379 0.038062 0.001149
H41   H     H_    0.442289 0.353347 0.947838 0.206327
H42   H     H_    0.559036 0.352058 0.051698 0.205163
H43   H     H_    0.942616 0.853580 0.947793 0.206691
H44   H     H_    0.059375 0.851789 0.051646 0.204931
H45   H     H_    0.378430 0.156059 0.951616 0.066423
H46   H     H_    0.621576 0.152938 0.048391 0.066341
H47   H     H_    0.878408 0.656698 0.951621 0.066217
H48   H     H_    0.121551 0.652212 0.048411 0.066359
H49   H     H_    0.401555 0.174268 0.064912 0.161155
H50   H     H_    0.598547 0.170578 0.935006 0.161347
H51   H     H_    0.901567 0.674900 0.064917 0.161191
H52   H     H_    0.098558 0.669965 0.935022 0.161017
C69   C     C_3   0.428616 0.111331 0.967918 -0.228346
C70   C     C_3   0.571118 0.109531 0.032270 -0.227981
C71   C     C_3   0.928511 0.611694 0.967928 -0.228410
C72   C     C_3   0.070998 0.609135 0.032278 -0.227952
C73   C     C_3   0.557705 0.114093 0.953493 0.065313
C74   C     C_3   0.442036 0.116332 0.046676 0.065647
C75   C     C_3   0.057610 0.613712 0.953501 0.065246
C76   C     C_3   0.941945 0.616719 0.046688 0.065711
C77   C     C_3   0.487355 0.176143 0.933639 -0.017254
C78   C     C_3   0.512788 0.176423 0.066349 -0.017242
C79   C     C_3   0.987368 0.676124 0.933630 -0.017104
C80   C     C_3   0.012804 0.676441 0.066340 -0.017448
H53   H     H_    0.576953 0.015798 0.050447 0.224257
H54   H     H_    0.422214 0.017609 0.950075 0.223347
H55   H     H_    0.076603 0.515373 0.050457 0.224439
H56   H     H_    0.921922 0.517992 0.950094 0.223057
C81   C     C_1   0.762241 0.427885 0.904588 0.039446
C82   C     C_1   0.237869 0.427934 0.095459 0.039711
C83   C     C_1   0.262239 0.927871 0.904584 0.040858
C84   C     C_1   0.737880 0.927919 0.095464 0.039620
C85   C     C_1   0.747722 0.405174 0.034300 0.026802
C86   C     C_1   0.252281 0.404833 0.965736 0.025397
C87   C     C_1   0.247712 0.905142 0.034292 0.026701
C88   C     C_1   0.752296 0.904811 0.965742 0.025461
C89   C     C_1   0.754049 0.415842 0.963905 0.018506
C90   C     C_1   0.246044 0.415719 0.036149 0.017351
C91   C     C_1   0.254045 0.915818 0.963899 0.018836
C92   C     C_1   0.746060 0.915699 0.036156 0.017229
C93   C     C_1   0.742976 0.390429 0.094172 0.062007
C94   C     C_1   0.256973 0.389997 0.905865 0.060993
C95   C     C_1   0.242966 0.890400 0.094163 0.061965
C96   C     C_1   0.756982 0.889978 0.905871 0.061367
Br1   Br    Br    0.919389 0.423158 0.539163 -0.430225
Br2   Br    Br    0.086547 0.406382 0.452628 -0.399108
Br3   Br    Br    0.413772 0.906219 0.546990 -0.405722
Br4   Br    Br    0.586204 0.911441 0.452538 -0.408210
Br5   Br    Br    0.561420 0.408744 0.922134 -0.463232
Br6   Br    Br    0.440168 0.411369 0.077013 -0.462279
Br7   Br    Br    0.061812 0.908286 0.922021 -0.465076
Br8   Br    Br    0.940583 0.911825 0.076904 -0.461539
N1    N     N_R   0.562761 0.995786 0.922055 0.078832
O53   O     O_R   0.528421 0.904565 0.940966 -0.257672
O54   O     O_R   0.602333 0.981491 0.873871 -0.325704
N2    N     N_R   0.436180 0.998539 0.078574 0.078539
O55   O     O_R   0.469999 0.906096 0.060109 -0.257811
O56   O     O_R   0.396434 0.985974 0.126738 -0.327478
N3    N     N_R   0.062472 0.495351 0.922077 0.078967
O57   O     O_R   0.027914 0.404357 0.940942 -0.257544
O58   O     O_R   0.102103 0.480767 0.873968 -0.326318
N4    N     N_R   0.935893 0.499016 0.078623 0.078283
O59   O     O_R   0.969340 0.406251 0.059999 -0.258003
O60   O     O_R   0.896413 0.486897 0.127057 -0.327425
N5    N     N_R   0.645507 0.549548 0.417393 0.063413
O61   O     O_R   0.587076 0.589382 0.434078 -0.275667
O62   O     O_R   0.666844 0.588357 0.361179 -0.339540
N6    N     N_R   0.356884 0.545239 0.581111 0.063846
O63   O     O_R   0.415240 0.585101 0.564481 -0.275044
O64   O     O_R   0.334806 0.585340 0.636665 -0.340087
N7    N     N_R   0.142904 0.045875 0.418675 0.063870
O65   O     O_R   0.084543 0.086145 0.435325 -0.275260
O66   O     O_R   0.164834 0.085733 0.362998 -0.339458
N8    N     N_R   0.854112 0.051446 0.582097 0.061801
O67   O     O_R   0.913043 0.091678 0.567250 -0.282308
O68   O     O_R   0.829284 0.093163 0.635904 -0.344659

loop_
_geom_bond_atom_site_label_1
_geom_bond_atom_site_label_2
_geom_bond_distance
_ccdc_geom_bond_type
C48   H28   1.107561 S    
C35   H3    1.084098 S    
C67   C68   1.507043 S    
O4    C12   1.270621 A    
O47   Cr11  1.917091 S    
C29   C30   1.413697 S    
C34   C38   1.541732 S    
O39   C19   1.295212 A    
O20   Cr12  2.030297 S    
C10   C54   1.468569 S    
C65   C66   1.507067 S    
N3    O57   1.300060 A    
O15   C7    1.298511 A    
C31   C32   1.414277 S    
C23   C95   1.434630 S    
C33   C49   1.570346 S    
H51   C76   1.112341 S    
H19   C57   1.096353 S    
O23   Cr11  1.969970 S    
C69   C74   1.547120 S    
O7    C3    1.268824 A    
C68   H44   1.113668 S    
C17   C78   1.472688 S    
H14   C44   1.100868 S    
O36   Cr8   2.047926 S    
C72   C75   1.547134 S    
C74   N2    1.469738 S    
C76   C80   1.549045 S    
C43   C51   1.589891 S    
C62   H30   1.083996 S    
N1    O54   1.300890 A    
O25   C21   1.264339 A    
C44   C52   1.588935 S    
C57   H37   1.112984 S    
O26   Cr2   2.082151 S    
O45   C21   1.270667 A    
H47   C71   1.114426 S    
C11   C55   1.468422 S    
N7    O65   1.301535 A    
C58   H38   1.112728 S    
O21   C9    1.264757 A    
C36   H4    1.085363 S    
H45   C69   1.114418 S    
C9    C53   1.461693 S    
O30   C14   1.278932 A    
C25   C30   1.206770 T    
O32   Cr4   1.968247 S    
C1    O9    1.263348 A    
O44   Cr12  2.086563 S    
C72   C80   1.574990 S    
C5    O17   1.283938 A    
H48   C72   1.114415 S    
C43   C59   1.541310 S    
C27   C32   1.207324 T    
C54   C58   1.537904 S    
C3    O11   1.261421 A    
C44   C60   1.544977 S    
C65   Br5   1.976431 S    
O16   C8    1.300651 A    
O28   Cr4   2.082151 S    
N7    O66   1.301749 A    
C34   H2    1.084129 S    
H20   C58   1.093255 S    
C70   H53   1.109076 S    
H50   C73   1.112318 S    
C7    O19   1.283150 A    
C69   H54   1.109079 S    
C55   C63   1.556168 S    
C87   C95   1.206099 T    
C44   Br4   1.973094 S    
O2    Cr2   2.090955 S    
C37   H9    1.115693 S    
C33   H5    1.114698 S    
C65   C77   1.576404 S    
O2    C10   1.266152 A    
O42   Cr10  2.086563 S    
C85   C93   1.206109 T    
C88   C96   1.206321 T    
C66   Br6   1.977050 S    
N5    O61   1.301336 A    
O17   Cr9   2.031202 S    
C87   C91   1.412739 S    
H49   C74   1.112326 S    
C83   C91   1.206060 T    
C46   C50   1.509900 S    
N4    O60   1.301102 A    
C82   C90   1.206262 T    
O8    C4    1.294707 A    
O34   Cr6   2.047926 S    
C81   C89   1.206071 T    
N2    O55   1.300021 A    
C60   H40   1.112360 S    
O11   Cr7   2.092650 S    
C12   C56   1.474973 S    
Cr9   O49   2.012060 S    
O6    Cr2   1.968509 S    
C74   C78   1.549086 S    
C75   C79   1.548876 S    
C5    C26   1.435578 S    
O31   Cr3   1.971005 S    
O24   Cr12  1.966993 S    
N8    O68   1.302092 A    
C45   C61   1.523392 S    
C36   H8    1.114337 S    
O30   Cr2   1.968247 S    
O22   C10   1.266029 A    
C63   H31   1.084448 S    
O48   Cr12  1.915937 S    
C4    O12   1.281592 A    
C64   H32   1.088786 S    
C21   C93   1.434640 S    
C2    C51   1.464260 S    
C67   C79   1.576277 S    
C2    O10   1.258864 A    
C3    C50   1.463929 S    
C66   C78   1.575655 S    
O16   Cr8   1.925232 S    
C45   H25   1.110144 S    
C15   O35   1.274550 A    
C72   H55   1.109130 S    
C63   H35   1.110216 S    
Cr10  O50   2.016878 S    
O29   Cr1   1.971005 S    
C16   C81   1.434559 S    
C28   C31   1.207037 T    
O13   C5    1.298155 A    
O40   C20   1.296387 A    
C15   C82   1.434979 S    
C61   H33   1.110836 S    
O48   C24   1.272160 A    
O12   Cr8   2.097015 S    
C22   C94   1.435092 S    
O22   Cr10  1.966993 S    
C40   N8    1.471244 S    
O5    C1    1.267049 A    
C68   Br8   1.977229 S    
C39   C55   1.570687 S    
O46   Cr10  1.915937 S    
O39   Cr7   1.970241 S    
O13   Cr5   1.923893 S    
C86   C90   1.413154 S    
O45   Cr9   1.917091 S    
C54   C62   1.556035 S    
C85   C89   1.412752 S    
C48   C52   1.509299 S    
C35   C39   1.541744 S    
C70   C78   1.575007 S    
C84   C92   1.206265 T    
N6    O64   1.301769 A    
C13   O33   1.274571 A    
H52   C75   1.112361 S    
C35   C51   1.563891 S    
N3    O58   1.300899 A    
O7    Cr3   1.966846 S    
O29   C13   1.281366 A    
Cr2   O50   1.964555 S    
O15   Cr7   1.923893 S    
H13   C43   1.097207 S    
Cr1   O49   1.964301 S    
C71   C76   1.547193 S    
Cr7   O51   2.014524 S    
H16   C42   1.097620 S    
C41   C57   1.536705 S    
C18   O42   1.274686 A    
C45   C49   1.529899 S    
O18   Cr10  2.030297 S    
H15   C41   1.100010 S    
Cr3   O51   1.964301 S    
O26   C22   1.266145 A    
C24   C96   1.435082 S    
O21   Cr9   1.969970 S    
C36   C40   1.543954 S    
O27   Cr3   2.081053 S    
C4    C49   1.474831 S    
N5    O62   1.302246 A    
O8    Cr4   1.968509 S    
N2    O56   1.300899 A    
C8    O20   1.282613 A    
O23   C11   1.264370 A    
C68   C80   1.575756 S    
N4    O59   1.300075 A    
O3    C11   1.264104 A    
C46   H22   1.093992 S    
C8    C27   1.435822 S    
O24   C12   1.267920 A    
C38   H10   1.115337 S    
C40   H12   1.115386 S    
C47   H27   1.108037 S    
O3    Cr3   2.094456 S    
C26   C29   1.206849 T    
O14   Cr6   1.925232 S    
O38   C18   1.296443 A    
O25   Cr1   2.081053 S    
C41   C49   1.581971 S    
C53   C61   1.559003 S    
Cr4   O52   1.964555 S    
N8    O67   1.301416 A    
C14   C83   1.434532 S    
O37   C17   1.295160 A    
O28   C24   1.266142 A    
N1    O53   1.300019 A    
O14   C6    1.297936 A    
C19   O43   1.274502 A    
C62   H34   1.110077 S    
O5    Cr1   1.966846 S    
C37   C53   1.564271 S    
C56   C60   1.543853 S    
C69   C77   1.574560 S    
O31   C15   1.281375 A    
O40   Cr8   1.974111 S    
Cr11  O51   2.012060 S    
O6    C2    1.267034 A    
C67   Br7   1.976281 S    
C43   Br3   1.973134 S    
C17   O41   1.274560 A    
C66   H42   1.113668 S    
C37   N5    1.473206 S    
C19   C80   1.472712 S    
C48   H24   1.094824 S    
C35   H7    1.114456 S    
C14   O34   1.272417 A    
C18   C77   1.472963 S    
C47   C51   1.509590 S    
C34   H6    1.114446 S    
C71   H56   1.109096 S    
C20   O44   1.274734 A    
C39   N7    1.472691 S    
C53   C57   1.537390 S    
C70   C73   1.547157 S    
C47   C63   1.523540 S    
C33   C37   1.538637 S    
O1    Cr1   2.094456 S    
Cr8   O52   2.009481 S    
O32   C16   1.278922 A    
O41   Cr9   2.088870 S    
C64   H36   1.110499 S    
C40   C56   1.568574 S    
C42   C58   1.541367 S    
C65   H41   1.113627 S    
C86   C94   1.206328 T    
O46   C22   1.272163 A    
Cr12  O52   2.016878 S    
C67   H43   1.113630 S    
C76   N4    1.469645 S    
C13   C84   1.434985 S    
C59   H39   1.112654 S    
C55   C59   1.537741 S    
C88   C92   1.413163 S    
N6    O63   1.301635 A    
C48   C64   1.517944 S    
C6    C25   1.435503 S    
O33   Cr5   2.046696 S    
O47   C23   1.270657 A    
C34   C50   1.563779 S    
O10   Cr6   2.097015 S    
C61   H29   1.088627 S    
C46   H26   1.108061 S    
O35   Cr7   2.046696 S    
O4    Cr4   2.090955 S    
C47   H23   1.094041 S    
O1    C9    1.258787 A    
Cr5   O49   2.014524 S    
O19   Cr11  2.031202 S    
H46   C70   1.114409 S    
C1    C52   1.465026 S    
C73   C77   1.548834 S    
C16   O36   1.272425 A    
C45   H21   1.099971 S    
C42   C50   1.589492 S    
C75   N3    1.469771 S    
Cr6   O50   2.009481 S    
C6    O18   1.284570 A    
C38   N6    1.472529 S    
O43   Cr11  2.088870 S    
C36   C52   1.563910 S    
O27   C23   1.264334 A    
C7    C28   1.435815 S    
C71   C79   1.574600 S    
C39   H11   1.115306 S    
C56   C64   1.553314 S    
O37   Cr5   1.970241 S    
C38   C54   1.571008 S    
H17   C59   1.093136 S    
C73   N1    1.469778 S    
O9    Cr5   2.092650 S    
C46   C62   1.523402 S    
C33   H1    1.079328 S    
C42   Br2   1.972968 S    
C20   C79   1.472915 S    
H18   C60   1.101116 S    
O38   Cr6   1.974111 S    
C41   Br1   1.972557 S    
