data_mof_unit_25080.cif
_audit_creation_date              2012-12-10T17:27:57-0500
_audit_creation_method            fapswitch 2.2
_symmetry_space_group_name_H-M    P1
_symmetry_Int_Tables_number       1
_space_group_crystal_system       triclinic
_cell_length_a                    10.645359
_cell_length_b                    12.035114
_cell_length_c                    12.824082
_cell_angle_alpha                 94.575759
_cell_angle_beta                  90.856807
_cell_angle_gamma                 86.582475
_cell_volume                      1634.76205859

loop_
_atom_site_label
_atom_site_type_symbol
_atom_type_description
_atom_site_fract_x
_atom_site_fract_y
_atom_site_fract_z
_atom_type_partial_charge
C1    C     C_R   0.503278 0.523260 0.700382 0.856877
C2    C     C_R   0.431347 0.628159 0.860632 -0.234752
C3    C     C_R   0.572296 0.462650 0.871625 -0.053846
C4    C     C_R   0.739183 0.500060 0.498983 0.893452
C5    C     C_R   0.542734 0.460302 0.977074 0.092571
C6    C     C_R   0.455775 0.543215 0.024253 0.155729
C7    C     C_R   0.420063 0.537018 0.128513 0.108108
C8    C     C_R   0.570538 0.376441 0.140329 -0.241941
C9    C     C_R   0.595617 0.375313 0.035465 -0.222448
C10   C     C_R   0.373925 0.953679 0.412252 -0.303588
C11   C     C_R   0.387989 0.837876 0.417163 0.006612
C12   C     C_R   0.933544 0.534274 0.594152 0.041907
C13   C     C_R   0.556309 0.858165 0.539506 0.068994
C14   C     C_R   0.555574 0.975690 0.528457 -0.023628
C15   C     C_R   0.456639 0.023336 0.468462 0.061837
C16   C     C_R   0.494543 0.476868 0.299745 0.871969
C17   C     C_R   0.442327 0.140216 0.465544 -0.057734
C18   C     C_R   0.623477 0.164450 0.571838 0.023404
C19   C     C_R   0.647359 0.048031 0.574168 0.044950
C20   C     C_R   0.260975 0.499490 0.500695 0.885817
C21   C     C_R   0.867916 0.564720 0.688326 -0.119295
C22   C     C_R   0.931772 0.600819 0.779334 -0.113422
C23   C     C_R   0.871809 0.499621 0.500169 -0.139596
C24   C     C_R   0.061779 0.606634 0.778445 -0.145221
C25   C     C_R   0.128120 0.574524 0.687035 -0.148646
C26   C     C_R   0.064434 0.536834 0.594198 0.076397
C27   C     C_3   0.866395 0.424199 0.307395 -0.415025
C28   C     C_3   0.829851 0.526498 0.248039 -0.852305
C29   C     C_1   0.672147 0.388320 0.824646 0.143879
C30   C     C_3   0.773861 0.003611 0.616486 -0.411578
C31   C     C_3   0.883531 0.078805 0.605939 -0.865003
C32   C     C_1   0.625685 0.808979 0.623101 0.203703
C33   C     C_1   0.140188 0.398643 0.325432 0.143163
C34   C     C_R   0.936598 0.457978 0.408787 0.111156
C35   C     C_3   0.307413 0.608129 0.175453 -0.403814
C36   C     C_3   0.183682 0.583109 0.118055 -0.861795
C37   C     C_R   0.067477 0.452559 0.412342 -0.048961
C38   C     C_R   0.128621 0.497520 0.502348 -0.177174
C39   C     C_R   0.489635 0.460236 0.187685 -0.070533
C40   C     C_R   0.506071 0.540313 0.812534 -0.086480
C41   C     C_R   0.409081 0.631328 0.966423 -0.219604
H1    H     H_    0.660192 0.309744 0.001760 0.166150
H2    H     H_    0.229331 0.577895 0.690306 0.133145
H3    H     H_    0.620573 0.315441 0.185770 0.169838
H4    H     H_    0.352130 0.701612 0.000995 0.156180
H5    H     H_    0.759491 0.582517 0.292414 0.273302
H6    H     H_    0.914012 0.573470 0.235155 0.257539
H7    H     H_    0.788729 0.500046 0.170687 0.255538
H8    H     H_    0.923661 0.363837 0.255152 0.214630
H9    H     H_    0.781118 0.379911 0.323009 0.211352
H10   H     H_    0.886249 0.106937 0.525601 0.262237
H11   H     H_    0.876250 0.152123 0.664153 0.268408
H12   H     H_    0.385071 0.691499 0.815567 0.166682
H13   H     H_    0.973697 0.031328 0.621375 0.257177
H14   H     H_    0.764120 0.988195 0.700142 0.224719
H15   H     H_    0.802966 0.923970 0.571236 0.222294
H16   H     H_    0.179070 0.614174 0.039135 0.247556
H17   H     H_    0.171048 0.492054 0.109880 0.283577
H18   H     H_    0.104035 0.625302 0.163313 0.241707
H19   H     H_    0.291489 0.591686 0.257831 0.222115
H20   H     H_    0.324425 0.698273 0.175756 0.193260
H21   H     H_    0.366903 0.177681 0.420062 0.144369
H22   H     H_    0.687656 0.222011 0.608208 0.173794
H23   H     H_    0.299326 0.988522 0.364149 0.148238
H24   H     H_    0.325014 0.784455 0.372700 0.129781
H25   H     H_    0.767197 0.559834 0.692731 0.132979
H26   H     H_    0.880205 0.624067 0.850655 0.141445
H27   H     H_    0.111577 0.634734 0.848956 0.133943
N1    N     N_R   0.523130 0.207800 0.519340 -0.126813
N2    N     N_R   0.476870 0.792180 0.480660 -0.115849
N3    N     N_1   0.752484 0.329607 0.788031 -0.232852
N4    N     N_1   0.680816 0.771202 0.691539 -0.230829
N5    N     N_1   0.198549 0.354269 0.257201 -0.221360
O1    O     O_R   0.506170 0.421690 0.658830 -0.606106
O2    O     O_R   0.491330 0.609320 0.646410 -0.621265
O3    O     O_R   0.690660 0.406170 0.506210 -0.636690
O4    O     O_R   0.675810 0.593790 0.493790 -0.613929
O5    O     O_R   0.508670 0.390680 0.353590 -0.615563
O6    O     O_R   0.493830 0.578310 0.341170 -0.634674
O7    O     O_R   0.324190 0.406210 0.506210 -0.608926
O8    O     O_R   0.309340 0.593830 0.493790 -0.632388
Zn1   Zn    Zn3+2 0.509910 0.374720 0.508290 0.950088
Zn2   Zn    Zn3+2 0.490090 0.625280 0.491710 0.941070

loop_
_geom_bond_atom_site_label_1
_geom_bond_atom_site_label_2
_ccdc_geom_bond_type
C28   H6    S    
C17   N1    A    
C21   H25   S    
C34   C37   A    
C13   C32   S    
C35   C36   S    
C31   H11   S    
C36   H18   S    
C25   H2    S    
C11   N2    A    
C32   N4    T    
C12   C23   A    
C28   H5    S    
C9    H1    S    
C1    O1    A    
C36   H17   S    
C10   C15   A    
C5    C6    A    
C18   H22   S    
C13   N2    A    
O4    Zn2   S    
C2    C41   A    
C18   C19   A    
C3    C29   S    
C20   O8    A    
N1    Zn1   S    
C1    C40   S    
C8    C9    A    
C6    C41   A    
C8    C39   A    
C27   H9    S    
C18   N1    A    
C21   C22   A    
O1    Zn1   S    
O8    Zn2   S    
C27   C34   S    
C20   O7    A    
C1    O2    A    
C24   C25   A    
O7    Zn1   S    
C36   H16   S    
O3    Zn1   S    
C4    C23   S    
C26   C38   A    
C25   C26   A    
C30   H15   S    
C12   C21   A    
C33   C37   S    
C12   C26   A    
C35   H19   S    
C11   H24   S    
C5    C9    A    
C37   C38   A    
C17   H21   S    
C20   C38   S    
O5    Zn1   S    
C23   C34   A    
C35   H20   S    
N2    Zn2   S    
C33   N5    T    
C3    C40   A    
C22   C24   A    
C15   C17   A    
C28   H7    S    
C41   H4    S    
C7    C35   S    
C14   C19   A    
C10   H23   S    
C8    H3    S    
C31   H10   S    
C3    C5    A    
C2    H12   S    
C6    C7    A    
C30   H14   S    
C16   O6    A    
C4    O4    A    
O6    Zn2   S    
O2    Zn2   S    
C30   C31   S    
C16   O5    A    
C31   H13   S    
C22   H26   S    
C4    O3    A    
C10   C11   A    
C24   H27   S    
C16   C39   S    
C2    C40   A    
C27   C28   S    
C7    C39   A    
C14   C15   A    
C13   C14   A    
C19   C30   S    
C27   H8    S    
C29   N3    T    
