data_mof_unit_7359.cif
_audit_creation_date              2012-12-10T18:47:09-0500
_audit_creation_method            fapswitch 2.2
_symmetry_space_group_name_H-M    P1
_symmetry_Int_Tables_number       1
_space_group_crystal_system       triclinic
_cell_length_a                    10.707815
_cell_length_b                    9.841847
_cell_length_c                    14.946982
_cell_angle_alpha                 90.138204
_cell_angle_beta                  90.028558
_cell_angle_gamma                 89.938693
_cell_volume                      1575.1771914

loop_
_atom_site_label
_atom_site_type_symbol
_atom_type_description
_atom_site_fract_x
_atom_site_fract_y
_atom_site_fract_z
_atom_type_partial_charge
Br1   Br    Br    0.727112 0.670794 0.749185 -0.580009
Br2   Br    Br    0.272888 0.329206 0.250815 -0.580009
C1    C     C_R   0.259895 0.500049 0.499907 0.891153
C2    C     C_R   0.127463 0.500093 0.499834 -0.014376
C3    C     C_R   0.585460 0.072030 0.549328 -0.069723
C4    C     C_R   0.414540 0.927970 0.450672 -0.069723
C5    C     C_R   0.414516 0.071846 0.450700 -0.053836
C6    C     C_R   0.585484 0.928154 0.549300 -0.053836
C7    C     C_R   0.496715 0.499814 0.326983 0.947323
C8    C     C_R   0.503285 0.500186 0.673017 0.947323
C9    C     C_R   0.597219 0.576603 0.814629 0.192166
C10   C     C_R   0.402780 0.423397 0.185371 0.192166
C11   C     C_R   0.506970 0.500447 0.768432 -0.119526
C12   C     C_R   0.740105 0.499951 0.500093 0.891153
C13   C     C_R   0.493030 0.499553 0.231568 -0.119526
C14   C     C_R   0.417783 0.423188 0.812686 -0.295991
C15   C     C_R   0.582216 0.576812 0.187314 -0.295991
C16   C     C_R   0.414364 0.422659 0.904930 0.128458
C17   C     C_R   0.585636 0.577341 0.095070 0.128458
C18   C     C_R   0.502183 0.500183 0.953272 0.032341
C19   C     C_R   0.497817 0.499816 0.046728 0.032341
C20   C     C_R   0.594410 0.577636 0.908254 0.062701
C21   C     C_R   0.405590 0.422364 0.091746 0.062701
C22   C     C_R   0.323693 0.346356 0.949203 -0.205601
C23   C     C_R   0.319116 0.346157 0.041880 -0.156378
C24   C     C_R   0.676307 0.653644 0.050797 -0.205601
C25   C     C_R   0.680884 0.653843 0.958120 -0.156378
C26   C     C_R   0.064081 0.380550 0.477967 -0.145463
C27   C     C_R   0.935919 0.619450 0.522033 -0.145463
C28   C     C_R   0.936140 0.380444 0.478173 -0.191326
C29   C     C_R   0.063860 0.619556 0.521827 -0.191326
C30   C     C_R   0.872537 0.499906 0.500166 -0.014376
H1    H     H_    0.349617 0.365104 0.774775 0.162553
H2    H     H_    0.112621 0.712253 0.539502 0.161732
H3    H     H_    0.653766 0.126595 0.588795 0.141415
H4    H     H_    0.346234 0.873405 0.411205 0.141415
H5    H     H_    0.346107 0.126233 0.411344 0.167220
H6    H     H_    0.653893 0.873767 0.588656 0.167219
H7    H     H_    0.650382 0.634896 0.225225 0.162553
H8    H     H_    0.256089 0.286754 0.912055 0.156498
H9    H     H_    0.743911 0.713245 0.087945 0.156498
H10   H     H_    0.247702 0.285331 0.073392 0.200074
H11   H     H_    0.752298 0.714669 0.926608 0.200074
H12   H     H_    0.113015 0.287923 0.460132 0.170879
H13   H     H_    0.886985 0.712077 0.539867 0.170879
H14   H     H_    0.887379 0.287747 0.460498 0.161732
N1    N     N_R   0.500000 0.857200 0.500000 -0.088377
N2    N     N_R   0.500000 0.142800 0.500000 -0.088377
O1    O     O_R   0.316770 0.614620 0.499990 -0.634750
O2    O     O_R   0.683230 0.385380 0.500010 -0.634749
O3    O     O_R   0.683230 0.614620 0.500010 -0.622872
O4    O     O_R   0.316770 0.385380 0.499990 -0.622873
O5    O     O_R   0.499980 0.614680 0.367850 -0.625111
O6    O     O_R   0.500020 0.385320 0.632150 -0.625111
O7    O     O_R   0.500020 0.614680 0.632150 -0.587103
O8    O     O_R   0.499980 0.385320 0.367850 -0.587103
Zn1   Zn    Zn3+2 0.500000 0.653120 0.500000 0.975929
Zn2   Zn    Zn3+2 0.500000 0.346880 0.500000 0.975929

loop_
_geom_bond_atom_site_label_1
_geom_bond_atom_site_label_2
_ccdc_geom_bond_type
C23   H10   S    
C3    C6    A    
C26   H12   S    
C1    O4    A    
N2    Zn2   S    
C4    C5    A    
O3    Zn1   S    
C12   C30   S    
C14   H1    S    
N1    Zn1   S    
O7    Zn1   S    
C9    C20   A    
C12   O3    A    
Br1   C9    S    
C10   C13   A    
Br2   C10   S    
C5    N2    A    
C26   C28   A    
C7    C13   S    
C6    N1    A    
C27   C29   A    
C7    O8    A    
C18   C19   A    
C28   C30   A    
C8    O7    A    
C9    C11   A    
C10   C21   A    
C24   C25   A    
C12   O2    A    
O4    Zn2   S    
C6    H6    S    
C16   C22   A    
C3    H3    S    
C17   C19   A    
C4    H4    S    
C27   C30   A    
C16   C18   A    
C20   C25   A    
C21   C23   A    
C19   C21   A    
C5    H5    S    
C8    O6    A    
C3    N2    A    
C29   H2    S    
C2    C29   A    
C7    O5    A    
C4    N1    A    
C1    C2    S    
C1    O1    A    
C25   H11   S    
O1    Zn1   S    
C22   C23   A    
C14   C16   A    
O6    Zn2   S    
C11   C14   A    
C27   H13   S    
C13   C15   A    
C17   C24   A    
C15   H7    S    
C22   H8    S    
O5    Zn1   S    
C15   C17   A    
O8    Zn2   S    
C2    C26   A    
C28   H14   S    
C24   H9    S    
C18   C20   A    
C8    C11   S    
O2    Zn2   S    
