data_mof_unit_51768.cif
_audit_creation_date              2012-12-10T19:10:32-0500
_audit_creation_method            fapswitch 2.2
_symmetry_space_group_name_H-M    P1
_symmetry_Int_Tables_number       1
_space_group_crystal_system       triclinic
_cell_length_a                    10.620507
_cell_length_b                    9.70481
_cell_length_c                    15.715697
_cell_angle_alpha                 87.150615
_cell_angle_beta                  89.722831
_cell_angle_gamma                 89.968911
_cell_volume                      1617.79528353

loop_
_atom_site_label
_atom_site_type_symbol
_atom_type_description
_atom_site_fract_x
_atom_site_fract_y
_atom_site_fract_z
_atom_type_partial_charge
C1    C     C_R   0.257645 0.499762 0.499562 0.835311
C2    C     C_3   0.618733 0.456263 0.954451 -0.428533
C3    C     C_3   0.612899 0.452707 0.052203 -0.529806
C4    C     C_1   0.490476 0.478427 0.826539 -0.048078
C5    C     C_1   0.484848 0.506560 0.174136 -0.027359
C6    C     C_1   0.492794 0.510253 0.249227 -0.226206
C7    C     C_3   0.071715 0.565978 0.580198 -0.404883
C8    C     C_3   0.071669 0.348170 0.498386 -0.401707
C9    C     C_3   0.927297 0.565701 0.580269 -0.406869
C10   C     C_3   0.928766 0.348162 0.498184 -0.399644
C11   C     C_3   0.073014 0.580866 0.418761 -0.404293
C12   C     C_3   0.121369 0.498765 0.499197 0.194205
C13   C     C_3   0.878913 0.498715 0.499172 0.194509
C14   C     C_R   0.499886 0.503345 0.338073 0.905089
C15   C     C_3   0.928440 0.581071 0.418838 -0.403447
C16   C     C_3   0.377105 0.083590 0.469687 -0.234734
C17   C     C_3   0.377493 0.921203 0.468886 -0.239055
C18   C     C_3   0.598576 0.085660 0.440763 -0.231920
C19   C     C_3   0.598599 0.923114 0.440804 -0.240686
C20   C     C_3   0.523955 0.074739 0.584357 -0.237854
C21   C     C_3   0.523153 0.912512 0.584474 -0.221700
C22   C     C_R   0.742604 0.499725 0.499504 0.835438
C23   C     C_R   0.499701 0.496397 0.661956 0.913902
C24   C     C_3   0.446249 0.640869 0.040764 0.918635
C25   C     C_3   0.379106 0.378350 0.055181 0.828059
C26   C     C_3   0.398542 0.365098 0.956761 -0.391158
C27   C     C_3   0.432836 0.620726 0.942302 -0.568992
C28   C     C_1   0.495158 0.486309 0.751058 -0.227249
C29   C     C_3   0.478561 0.493378 0.083077 0.073451
C30   C     C_3   0.485618 0.479696 0.918133 0.168479
H1    H     H_    0.330955 0.621049 0.925726 0.192335
H2    H     H_    0.306298 0.368000 0.923173 0.174781
H3    H     H_    0.107755 0.689199 0.417449 0.170730
H4    H     H_    0.108652 0.533497 0.360180 0.154924
H5    H     H_    0.893889 0.689493 0.417779 0.169822
H6    H     H_    0.893484 0.534128 0.360188 0.154531
H7    H     H_    0.354221 0.128857 0.405265 0.144760
H8    H     H_    0.356669 0.888381 0.403601 0.148678
H9    H     H_    0.300543 0.116694 0.512669 0.142159
H10   H     H_    0.300040 0.879751 0.510572 0.144171
H11   H     H_    0.616164 0.110994 0.608031 0.140428
H12   H     H_    0.614568 0.871539 0.609062 0.142895
H13   H     H_    0.451493 0.109862 0.629826 0.145060
H14   H     H_    0.449225 0.872407 0.629541 0.148981
H15   H     H_    0.692759 0.121842 0.460707 0.141408
H16   H     H_    0.692726 0.883571 0.460852 0.143030
H17   H     H_    0.440507 0.263103 0.943228 0.172731
H18   H     H_    0.471485 0.705499 0.900302 0.130740
H19   H     H_    0.685890 0.523406 0.075960 0.230325
H20   H     H_    0.638624 0.347564 0.077060 0.189722
H21   H     H_    0.684048 0.538406 0.929921 0.184267
H22   H     H_    0.657649 0.356749 0.933589 0.184812
H23   H     H_    0.106097 0.674133 0.582316 0.168343
H24   H     H_    0.106757 0.297275 0.440828 0.164405
H25   H     H_    0.106746 0.508162 0.638333 0.154541
H26   H     H_    0.105436 0.286636 0.555542 0.167542
H27   H     H_    0.891776 0.507444 0.638327 0.153145
H28   H     H_    0.893856 0.286214 0.555073 0.168432
N1    N     N_3   0.499750 0.138610 0.498180 -0.027975
N2    N     N_3   0.499750 0.861390 0.498180 -0.030941
O1    O     O_R   0.314910 0.616040 0.499980 -0.634791
O2    O     O_R   0.314910 0.383960 0.499980 -0.637143
O3    O     O_R   0.500120 0.616090 0.377110 -0.601712
O4    O     O_R   0.500120 0.383910 0.377110 -0.635379
O5    O     O_R   0.685320 0.616040 0.499960 -0.634771
O6    O     O_R   0.685320 0.383960 0.499960 -0.635531
O7    O     O_R   0.500110 0.615990 0.622830 -0.625495
O8    O     O_R   0.500110 0.384010 0.622830 -0.619705
Zn1   Zn    Zn3+2 0.500150 0.654960 0.499960 0.904844
Zn2   Zn    Zn3+2 0.500150 0.345040 0.499960 0.894375
H29   H     H_    0.892457 0.673699 0.582655 0.169303
H30   H     H_    0.894950 0.297715 0.440372 0.164785
H31   H     H_    0.584501 0.129363 0.374823 0.150950
H32   H     H_    0.584177 0.889819 0.374845 0.156044
O9    O     O_3   0.328089 0.682804 0.074611 -0.604023
C31   C     C_3   0.294191 0.818812 0.046815 0.141287
H33   H     H_    0.291063 0.832484 0.976289 0.107650
H34   H     H_    0.360747 0.894554 0.071171 0.192596
C32   C     C_3   0.163971 0.851361 0.081050 -0.861662
H35   H     H_    0.161554 0.833454 0.151389 0.254476
H36   H     H_    0.140364 0.961037 0.064875 0.218398
H37   H     H_    0.092632 0.784865 0.051989 0.251104
O10   O     O_3   0.252198 0.426610 0.062569 -0.613225
C33   C     C_3   0.192160 0.393856 0.141246 0.167975
H38   H     H_    0.240639 0.443641 0.193969 0.132140
H39   H     H_    0.184735 0.280348 0.153340 0.162158
C34   C     C_3   0.058421 0.449962 0.138184 -0.859222
H40   H     H_    0.005710 0.404940 0.085374 0.253559
H41   H     H_    0.009306 0.422849 0.199309 0.192271
H42   H     H_    0.059977 0.563889 0.128265 0.274256
O11   O     O_3   0.393514 0.238216 0.089629 -0.653701
C35   C     C_3   0.433346 0.216566 0.175291 0.040675
H43   H     H_    0.378881 0.277026 0.220185 0.132554
H44   H     H_    0.535266 0.237589 0.181546 0.154811
C36   C     C_3   0.412197 0.066646 0.204320 -0.858893
H45   H     H_    0.434701 0.051090 0.272869 0.200737
H46   H     H_    0.312297 0.037769 0.194847 0.255931
H47   H     H_    0.474809 0.998709 0.168765 0.270206
O12   O     O_3   0.543069 0.733243 0.067933 -0.630211
C37   C     C_3   0.600959 0.820625 0.004559 0.036997
H48   H     H_    0.531145 0.890675 0.972522 0.128874
H49   H     H_    0.651646 0.759884 0.957378 0.151392
C38   C     C_3   0.699926 0.908702 0.045679 -0.828191
H50   H     H_    0.770044 0.841593 0.079728 0.254908
H51   H     H_    0.749329 0.973642 0.995858 0.203601
H52   H     H_    0.655652 0.977352 0.091442 0.253113

loop_
_geom_bond_atom_site_label_1
_geom_bond_atom_site_label_2
_ccdc_geom_bond_type
C27   H18   S    
C34   H40   S    
C26   H2    S    
C24   O12   S    
C36   H45   S    
C31   C32   S    
C7    H25   S    
C1    O2    A    
C8    H26   S    
C20   H11   S    
C3    H19   S    
C19   H16   S    
O10   C33   S    
C10   H28   S    
C33   H39   S    
C5    C6    T    
O2    Zn2   S    
C18   C19   S    
C23   O7    A    
C3    C29   S    
C9    C13   S    
C24   C29   S    
C22   O6    A    
C11   C15   S    
O3    Zn1   S    
C16   C17   S    
C24   C27   S    
O4    Zn2   S    
C16   H7    S    
C27   C30   S    
C1    C12   S    
C15   H5    S    
C4    C28   T    
C3    H20   S    
C5    C29   S    
C11   H4    S    
C25   C29   S    
C7    C12   S    
C36   H47   S    
C25   O11   S    
C27   H1    S    
C11   H3    S    
C33   H38   S    
C21   N2    S    
C8    H24   S    
O11   C35   S    
C32   H36   S    
C17   N2    S    
C16   H9    S    
C25   C26   S    
C35   C36   S    
C32   H35   S    
O7    Zn1   S    
C17   H10   S    
C23   O8    A    
O9    C31   S    
C22   O5    A    
C6    C14   S    
C21   H14   S    
O12   C37   S    
C8    C12   S    
C14   O4    A    
C35   H44   S    
C38   H51   S    
C23   C28   S    
C31   H33   S    
C20   N1    S    
C2    H22   S    
C26   H17   S    
C8    C10   S    
C26   C30   S    
C18   H31   S    
C34   H41   S    
C7    H23   S    
C18   H15   S    
C15   H6    S    
C20   H13   S    
C37   H49   S    
O1    Zn1   S    
C7    C9    S    
C19   H32   S    
C9    H29   S    
C31   H34   S    
C10   C13   S    
C1    O1    A    
C32   H37   S    
C11   C12   S    
C36   H46   S    
C24   O9    S    
C33   C34   S    
C19   N2    S    
C2    C30   S    
C13   C15   S    
C2    C3    S    
O6    Zn2   S    
N2    Zn1   S    
O5    Zn1   S    
C14   O3    A    
C35   H43   S    
C13   C22   S    
C38   H52   S    
C9    H27   S    
C17   H8    S    
C37   C38   S    
C2    H21   S    
N1    Zn2   S    
C21   H12   S    
C18   N1    S    
C20   C21   S    
O8    Zn2   S    
C34   H42   S    
C38   H50   S    
C25   O10   S    
C37   H48   S    
C16   N1    S    
C4    C30   S    
C10   H30   S    
