data_mof_unit_11763.cif
_audit_creation_date              2013-03-05T15:42:12-0500
_audit_creation_method            fapswitch 2.2
_symmetry_space_group_name_H-M    P1
_symmetry_Int_Tables_number       1
_space_group_crystal_system       triclinic
_cell_length_a                    7.838223
_cell_length_b                    8.555784
_cell_length_c                    16.819748
_cell_angle_alpha                 92.788858
_cell_angle_beta                  78.236097
_cell_angle_gamma                 94.098697
_cell_volume                      1100.78110091

loop_
_atom_site_label
_atom_site_type_symbol
_atom_site_description
_atom_site_fract_x
_atom_site_fract_y
_atom_site_fract_z
_atom_type_partial_charge
O1    O     O_R   0.388470 0.738640 0.505270 -0.602474
O2    O     O_R   0.611530 0.261360 0.494730 -0.601711
O3    O     O_R   0.679650 0.711510 0.491500 -0.585850
O4    O     O_R   0.320350 0.288490 0.508500 -0.576731
C1    C     C_R   0.546201 0.794663 0.497962 0.962507
C2    C     C_R   0.453761 0.205343 0.502175 0.982384
O5    O     O_R   0.337210 0.515200 0.623500 -0.580134
O6    O     O_R   0.662790 0.484800 0.376500 -0.602011
O7    O     O_R   0.628380 0.488060 0.609730 -0.598198
O8    O     O_R   0.371620 0.511940 0.390270 -0.563722
C3    C     C_R   0.472930 0.498438 0.653592 0.972427
C4    C     C_R   0.525679 0.492207 0.345988 0.961820
Zn1   Zn    Zn3+2 0.305580 0.518120 0.509190 1.178643
Zn2   Zn    Zn3+2 0.694420 0.481880 0.490810 1.161721
C5    C     C_R   0.445337 0.470690 0.738874 -0.284083
C6    C     C_R   0.548639 0.471427 0.258608 -0.287629
C7    C     C_R   0.496341 0.589324 0.790623 0.672395
C8    C     C_R   0.463041 0.567530 0.216438 0.664460
C9    C     C_R   0.489606 0.558171 0.871125 -0.171694
C10   C     C_R   0.489834 0.553007 0.132606 -0.180873
C11   C     C_R   0.438066 0.406860 0.899038 -0.042139
C12   C     C_R   0.601225 0.442191 0.090751 -0.042928
C13   C     C_R   0.379141 0.290325 0.848601 -0.047938
C14   C     C_R   0.692436 0.350709 0.131615 -0.071843
C15   C     C_R   0.380194 0.321520 0.768123 0.228052
C16   C     C_R   0.664767 0.361543 0.215954 0.230532
C17   C     C_2   0.453931 0.369383 0.980580 0.174688
C18   C     C_2   0.606120 0.409797 0.004811 0.173114
H1    H     H_    0.336299 0.174702 0.871374 0.211885
H2    H     H_    0.775343 0.263385 0.098259 0.222200
H3    H     H_    0.420081 0.624697 0.100172 0.189481
H4    H     H_    0.531589 0.649742 0.911025 0.184807
C19   C     C_2   0.570395 0.958349 0.496129 -0.247814
C20   C     C_2   0.429467 0.041680 0.504273 -0.217956
H5    H     H_    0.703433 0.009546 0.487468 0.243066
H6    H     H_    0.296395 0.990510 0.512978 0.241852
N1    N     N_2   0.953500 0.457650 0.478520 0.037997
N2    N     N_2   0.046500 0.542350 0.521480 0.037556
F1    F     F_    0.556564 0.733292 0.762602 -0.584833
F2    F     F_    0.355039 0.675899 0.256217 -0.593410
N3    N     N_R   0.746389 0.253855 0.257142 0.244771
O9    O     O_R   0.904200 0.214507 0.226256 -0.256905
O10   O     O_R   0.653641 0.174213 0.316599 -0.367068
N4    N     N_R   0.320501 0.200070 0.716555 0.198540
O11   O     O_R   0.363804 0.056958 0.720204 -0.311603
O12   O     O_R   0.196312 0.225311 0.678868 -0.314075
N5    N     N_R   0.769049 0.437896 0.947864 0.219196
O13   O     O_R   0.892870 0.530506 0.968649 -0.301618
O14   O     O_R   0.801778 0.357756 0.879265 -0.322735
N6    N     N_R   0.301040 0.306646 0.035815 0.216083
O15   O     O_R   0.146062 0.323618 0.022087 -0.309552
O16   O     O_R   0.316452 0.216809 0.093910 -0.317759
N7    N     N_R   0.011672 0.309129 0.458313 0.304413
O17   O     O_R   0.970889 0.199945 0.511314 -0.327999
O18   O     O_R   0.070200 0.270239 0.382488 -0.290111
N8    N     N_R   0.988533 0.690925 0.541751 0.302093
O19   O     O_R   0.027608 0.799456 0.488326 -0.330740
O20   O     O_R   0.935372 0.731177 0.617829 -0.282546

loop_
_geom_bond_atom_site_label_1
_geom_bond_atom_site_label_2
_geom_bond_distance
_ccdc_geom_bond_type
N6    O16   1.301807 A    
O7    Zn2   1.960358 S    
C18   N5    1.444265 S    
N1    N2    1.291107 D    
O7    C3    1.295889 A    
N3    O9    1.301444 A    
C8    C10   1.383351 A    
N5    O13   1.301322 A    
C17   N6    1.445676 S    
O6    C4    1.288481 A    
N1    N7    1.384100 S    
C11   C13   1.392391 A    
C19   C20   1.337408 D    
C11   C17   1.455103 S    
N5    O14   1.301803 A    
C12   C18   1.451775 S    
N7    O17   1.300647 A    
N4    O11   1.301316 A    
Zn2   N1    2.023461 S    
O5    C3    1.287181 A    
N3    O10   1.300747 A    
Zn1   N2    2.023461 S    
O2    C2    1.277735 A    
O3    Zn2   1.975649 S    
O8    C4    1.300616 A    
O1    C1    1.277664 A    
C9    H4    1.083759 S    
C13   H1    1.083984 S    
C15   N4    1.435008 S    
C6    C8    1.399626 A    
C7    C9    1.382449 A    
N8    O20   1.299939 A    
N6    O15   1.301108 A    
C20   H6    1.086151 S    
N7    O18   1.299866 A    
C6    C16   1.420400 A    
O2    Zn2   1.950794 S    
C12   C14   1.388837 A    
C5    C15   1.413183 A    
C14   H2    1.084066 S    
O1    Zn1   1.950795 S    
C10   C12   1.399858 A    
C4    C6    1.447530 S    
O5    Zn1   1.989640 S    
C13   C15   1.390640 A    
N2    N8    1.384127 S    
N8    O19   1.300704 A    
C16   N3    1.437100 S    
O4    C2    1.290156 A    
C7    F1    1.358249 S    
C17   C18   1.354339 D    
C5    C7    1.394832 A    
C8    F2    1.358252 S    
O6    Zn2   1.989638 S    
N4    O12   1.300381 A    
C19   H5    1.086029 S    
C9    C11   1.402365 A    
C3    C5    1.435284 S    
C10   H3    1.083913 S    
C2    C20   1.400789 S    
O4    Zn1   1.975649 S    
C14   C16   1.390168 A    
O3    C1    1.290186 A    
O8    Zn1   1.960356 S    
C1    C19   1.400734 S    
