data_mof_unit_34586.cif
_audit_creation_date              2012-12-10T19:15:12-0500
_audit_creation_method            fapswitch 2.2
_symmetry_space_group_name_H-M    P1
_symmetry_Int_Tables_number       1
_space_group_crystal_system       triclinic
_cell_length_a                    10.616307
_cell_length_b                    9.748937
_cell_length_c                    23.395082
_cell_angle_alpha                 89.773513
_cell_angle_beta                  90.635106
_cell_angle_gamma                 89.992932
_cell_volume                      2421.16966412

loop_
_atom_site_label
_atom_site_type_symbol
_atom_type_description
_atom_site_fract_x
_atom_site_fract_y
_atom_site_fract_z
_atom_type_partial_charge
C1    C     C_R   0.257891 0.499892 0.502183 0.863020
C2    C     C_R   0.299394 0.372521 0.969775 -0.157261
C3    C     C_R   0.299992 0.370205 0.029272 -0.155393
C4    C     C_R   0.400810 0.428070 0.060102 -0.015251
C5    C     C_R   0.502095 0.488194 0.030744 -0.021390
C6    C     C_R   0.603596 0.546783 0.061291 -0.015420
C7    C     C_R   0.704264 0.606075 0.031657 -0.154857
C8    C     C_R   0.704094 0.607528 0.972163 -0.157369
C9    C     C_R   0.403107 0.427906 0.119797 0.507403
C10   C     C_R   0.601064 0.545289 0.120949 0.508280
C11   C     C_R   0.589007 0.411856 0.240670 -0.082978
C12   C     C_R   0.499850 0.499867 0.389620 0.898827
C13   C     C_R   0.588959 0.416068 0.299963 -0.206695
C14   C     C_R   0.500766 0.497806 0.327972 -0.028383
C15   C     C_R   0.410389 0.571964 0.296922 -0.226838
C16   C     C_R   0.410760 0.568302 0.237634 -0.094560
C17   C     C_R   0.500418 0.488714 0.209512 0.303018
C18   C     C_R   0.512259 0.372965 0.762106 -0.099621
C19   C     C_R   0.512003 0.374027 0.702811 -0.229126
C20   C     C_R   0.500318 0.498715 0.672985 -0.039015
C21   C     C_R   0.488709 0.622154 0.703170 -0.230350
C22   C     C_R   0.488515 0.620652 0.762505 -0.098393
C23   C     C_R   0.742260 0.499871 0.502676 0.835551
C24   C     C_R   0.500371 0.496132 0.791916 0.318174
C25   C     C_3   0.073254 0.619905 0.540877 -0.402862
C26   C     C_3   0.072623 0.362956 0.529876 -0.391901
C27   C     C_3   0.928969 0.619412 0.541318 -0.395801
C28   C     C_3   0.928879 0.362436 0.529575 -0.397284
C29   C     C_3   0.069980 0.515542 0.441916 -0.375739
C30   C     C_3   0.121378 0.499535 0.503738 0.168162
C31   C     C_3   0.878618 0.499494 0.504020 0.178934
C32   C     C_3   0.925725 0.516108 0.442100 -0.410247
C33   C     C_3   0.380839 0.081683 0.472964 -0.138975
C34   C     C_3   0.383579 0.918705 0.470534 -0.130873
C35   C     C_3   0.609544 0.080736 0.467818 -0.224807
C36   C     C_3   0.612976 0.919361 0.470407 -0.220611
C37   C     C_3   0.507954 0.080599 0.557797 -0.277842
C38   C     C_3   0.502817 0.918364 0.557867 -0.279241
C39   C     C_R   0.500219 0.499709 0.610683 0.861014
C40   C     C_R   0.600607 0.550631 0.881648 0.503494
C41   C     C_R   0.401114 0.436373 0.880478 0.503236
C42   C     C_R   0.399804 0.432336 0.940139 -0.014339
C43   C     C_R   0.501700 0.490114 0.970690 -0.021298
C44   C     C_R   0.603077 0.550071 0.941337 -0.014442
H1    H     H_    0.220164 0.327410 0.947146 0.194174
H2    H     H_    0.521443 0.277555 0.680452 0.151323
H3    H     H_    0.479302 0.719499 0.681056 0.151204
H4    H     H_    0.478974 0.715907 0.785723 0.142343
H5    H     H_    0.106094 0.720075 0.523534 0.190621
H6    H     H_    0.105813 0.273323 0.504917 0.214688
H7    H     H_    0.110544 0.610203 0.585378 0.163508
H8    H     H_    0.108759 0.350585 0.574462 0.162141
H9    H     H_    0.895236 0.608361 0.585991 0.166261
H10   H     H_    0.894109 0.348184 0.573936 0.166027
H11   H     H_    0.894264 0.719799 0.524628 0.178775
H12   H     H_    0.895326 0.273669 0.503753 0.181813
H13   H     H_    0.103989 0.612822 0.422692 0.221997
H14   H     H_    0.103870 0.430239 0.414682 0.217046
H15   H     H_    0.890378 0.614077 0.423239 0.181383
H16   H     H_    0.889513 0.430930 0.414915 0.173279
H17   H     H_    0.221167 0.323458 0.050966 0.194822
H18   H     H_    0.302867 0.107666 0.502692 0.096401
H19   H     H_    0.301560 0.883413 0.496121 0.102983
H20   H     H_    0.610504 0.116253 0.422859 0.214731
H21   H     H_    0.625415 0.875300 0.427350 0.211003
H22   H     H_    0.596610 0.115400 0.579034 0.157945
H23   H     H_    0.585863 0.877155 0.581752 0.163713
H24   H     H_    0.429868 0.121320 0.584126 0.155555
H25   H     H_    0.418629 0.883207 0.581755 0.149977
H26   H     H_    0.698318 0.120946 0.487004 0.137881
H27   H     H_    0.699231 0.887053 0.494360 0.134781
H28   H     H_    0.783306 0.651577 0.054284 0.194978
H29   H     H_    0.783038 0.654040 0.950472 0.194163
H30   H     H_    0.657636 0.349392 0.218859 0.152274
H31   H     H_    0.657875 0.356688 0.323991 0.154201
H32   H     H_    0.338181 0.629574 0.318518 0.178997
H33   H     H_    0.341458 0.626667 0.213474 0.153955
H34   H     H_    0.521915 0.276705 0.785004 0.142094
N1    N     N_R   0.500573 0.494620 0.852761 -0.358870
N2    N     N_R   0.501825 0.486617 0.148682 -0.358669
N3    N     N_3   0.499750 0.138610 0.498760 -0.077239
N4    N     N_3   0.499750 0.861390 0.498760 -0.078845
O1    O     O_R   0.314910 0.616040 0.499990 -0.626150
O2    O     O_R   0.314910 0.383960 0.499990 -0.622927
O3    O     O_R   0.500080 0.616070 0.416130 -0.599494
O4    O     O_R   0.500080 0.383930 0.416130 -0.600473
O5    O     O_R   0.685320 0.616040 0.499970 -0.637191
O6    O     O_R   0.685320 0.383960 0.499970 -0.639846
O7    O     O_R   0.500150 0.616010 0.583820 -0.634934
O8    O     O_R   0.500150 0.383990 0.583820 -0.635433
O9    O     O_2   0.697537 0.605631 0.852559 -0.557453
O10   O     O_2   0.303672 0.383507 0.850260 -0.557717
O11   O     O_2   0.307984 0.369264 0.148892 -0.550631
O12   O     O_2   0.696087 0.603169 0.151139 -0.549933
Zn1   Zn    Zn3+2 0.500150 0.654960 0.499970 0.930641
Zn2   Zn    Zn3+2 0.500150 0.345040 0.499970 0.929688
C45   C     C_2   0.341757 0.150409 0.416831 0.982659
O13   O     O_2   0.237226 0.202261 0.412463 -0.677352
O14   O     O_R   0.420609 0.149894 0.369375 -0.774379
H35   H     H_    0.381216 0.196612 0.334745 0.353717
C46   C     C_2   0.359656 0.861290 0.411047 0.971856
O15   O     O_2   0.260570 0.802132 0.400736 -0.683716
O16   O     O_R   0.446277 0.881513 0.367238 -0.780062
H36   H     H_    0.413144 0.851867 0.328479 0.345765

loop_
_geom_bond_atom_site_label_1
_geom_bond_atom_site_label_2
_ccdc_geom_bond_type
C22   H4    S    
O6    Zn2   S    
C46   O15   D    
C11   C13   A    
C41   C42   A    
C19   C20   A    
C45   O13   D    
C35   N3    S    
C19   H2    S    
C7    C8    A    
C1    O2    A    
C37   C38   S    
C12   O3    A    
C18   C24   A    
C18   C19   A    
C29   C32   S    
C26   H6    S    
C5    C6    A    
C27   H11   S    
C10   O12   S    
C15   C16   A    
C37   H24   S    
C16   H33   S    
O2    Zn2   S    
C8    H29   S    
C13   H31   S    
C35   H26   S    
C36   N4    S    
C16   C17   A    
O5    Zn1   S    
C35   H20   S    
C39   O8    A    
C36   H27   S    
C15   H32   S    
C5    C43   A    
C38   H25   S    
C46   O16   S    
C23   O5    A    
C21   C22   A    
C38   N4    S    
C37   N3    S    
C45   O14   S    
C3    H17   S    
C2    H1    S    
C28   H12   S    
C34   H19   S    
C34   C46   S    
C27   C31   S    
C9    N2    A    
C7    H28   S    
N3    Zn2   S    
C10   N2    A    
C36   H21   S    
C33   H18   S    
C17   N2    S    
C35   C36   S    
C23   C31   S    
O7    Zn1   S    
C43   C44   A    
C25   H7    S    
C41   N1    A    
C29   C30   S    
C26   H8    S    
C24   N1    S    
O14   H35   S    
C18   H34   S    
O1    Zn1   S    
C37   H22   S    
C20   C21   A    
C33   C34   S    
C40   N1    A    
C38   H23   S    
O4    Zn2   S    
C12   C14   S    
C26   C30   S    
C23   O6    A    
C28   C31   S    
C22   C24   A    
C1    O1    A    
C42   C43   A    
C32   H16   S    
C3    C4    A    
C9    O11   S    
C25   C30   S    
C20   C39   S    
C11   C17   A    
C28   H10   S    
N4    Zn1   S    
C31   C32   S    
C8    C44   A    
C29   H13   S    
C4    C5    A    
C11   H30   S    
C6    C10   A    
C27   H9    S    
O8    Zn2   S    
C6    C7    A    
C25   C27   S    
C26   C28   S    
C12   O4    A    
C2    C3    A    
O3    Zn1   S    
C2    C42   A    
C1    C30   S    
C33   C45   S    
C40   O9    S    
C25   H5    S    
C40   C44   A    
C41   O10   S    
C29   H14   S    
O16   H36   S    
C14   C15   A    
C34   N4    S    
C32   H15   S    
C4    C9    A    
C13   C14   A    
C33   N3    S    
C39   O7    A    
C21   H3    S    
