data_mof_unit_46771.cif
_audit_creation_date              2012-12-10T19:42:15-0500
_audit_creation_method            fapswitch 2.2
_symmetry_space_group_name_H-M    P1
_symmetry_Int_Tables_number       1
_space_group_crystal_system       triclinic
_cell_length_a                    10.891381
_cell_length_b                    10.923728
_cell_length_c                    9.706307
_cell_angle_alpha                 90.00807
_cell_angle_beta                  90.983523
_cell_angle_gamma                 90.159767
_cell_volume                      1154.62821944

loop_
_atom_site_label
_atom_site_type_symbol
_atom_type_description
_atom_site_fract_x
_atom_site_fract_y
_atom_site_fract_z
_atom_type_partial_charge
C1    C     C_R   0.506661 0.265614 0.500153 0.826538
C2    C     C_R   0.207366 0.591922 0.976897 -0.112680
C3    C     C_R   0.931601 0.517710 0.379428 -0.248290
C4    C     C_R   0.871869 0.500304 0.504257 -0.084640
C5    C     C_R   0.941856 0.485987 0.627159 0.005422
C6    C     C_R   0.068710 0.487538 0.621023 -0.245924
C7    C     C_R   0.128376 0.504869 0.496172 -0.087830
C8    C     C_R   0.058474 0.522024 0.373766 -0.005221
C9    C     C_R   0.865679 0.574052 0.845969 -0.102000
C10   C     C_R   0.812149 0.561092 0.975410 0.225363
C11   C     C_R   0.782703 0.443519 0.023542 -0.126996
C12   C     C_R   0.262308 0.502328 0.498537 0.787043
C13   C     C_R   0.806051 0.340511 0.942814 -0.183389
C14   C     C_R   0.858471 0.353920 0.813374 -0.140948
C15   C     C_R   0.887655 0.470851 0.764235 0.094674
C16   C     C_2   0.504817 0.933268 0.389109 -0.166178
C17   C     C_2   0.483545 0.865971 0.501128 -0.333961
C18   C     C_2   0.494048 0.066491 0.393744 -0.174520
C19   C     C_2   0.532968 0.135319 0.501389 0.043218
C20   C     C_2   0.455124 0.410956 0.921374 -0.068003
C21   C     C_2   0.460158 0.408629 0.076855 -0.056413
C22   C     C_R   0.496031 0.734453 0.499952 0.849102
C23   C     C_R   0.737795 0.499509 0.501516 0.794905
C24   C     C_R   0.207944 0.684479 0.076350 -0.148671
C25   C     C_R   0.160383 0.661746 0.206775 -0.106567
C26   C     C_R   0.112295 0.545863 0.237971 0.142361
C27   C     C_R   0.111394 0.453526 0.137674 -0.125433
C28   C     C_R   0.159665 0.476323 0.007969 -0.131689
Cu1   Cu    Cu3+1 0.500020 0.500020 0.638630 0.935816
Cu2   Cu    Cu3+1 0.499980 0.499980 0.361370 0.928372
H1    H     H_    0.244803 0.609587 0.876284 0.147617
H2    H     H_    0.741444 0.431134 0.123066 0.160730
H3    H     H_    0.783003 0.250212 0.980452 0.135717
H4    H     H_    0.875865 0.273656 0.751271 0.118641
H5    H     H_    0.523874 0.890532 0.290724 0.166120
H6    H     H_    0.456016 0.908309 0.596866 0.166834
H7    H     H_    0.448444 0.109080 0.305638 0.128779
H8    H     H_    0.412601 0.333285 0.869744 0.147716
H9    H     H_    0.543303 0.570053 0.894873 0.202798
H10   H     H_    0.427454 0.326321 0.126799 0.146099
H11   H     H_    0.245310 0.773729 0.052410 0.118439
H12   H     H_    0.523134 0.579039 0.106343 0.198012
H13   H     H_    0.160776 0.734012 0.283199 0.109727
H14   H     H_    0.073906 0.363950 0.160305 0.118493
H15   H     H_    0.160889 0.403639 0.932443 0.115847
H16   H     H_    0.879575 0.530340 0.284950 0.172092
H17   H     H_    0.121050 0.474479 0.715187 0.156302
H18   H     H_    0.888715 0.664409 0.807972 0.122928
N1    N     N_2   0.498640 0.498660 0.846910 -0.282014
N2    N     N_2   0.498610 0.498630 0.153040 -0.286925
O1    O     O_R   0.500020 0.321960 0.617040 -0.571074
O2    O     O_R   0.499980 0.321920 0.382900 -0.598417
O3    O     O_R   0.319660 0.500030 0.617070 -0.592077
O4    O     O_R   0.319620 0.499990 0.382930 -0.560607
O5    O     O_R   0.500020 0.678080 0.617100 -0.587549
O6    O     O_R   0.499980 0.678040 0.382960 -0.579297
O7    O     O_R   0.680380 0.500010 0.617070 -0.562283
O8    O     O_R   0.680340 0.499970 0.382930 -0.598523
C29   C     C_3   0.615421 0.088687 0.617329 -0.853514
H19   H     H_    0.686027 0.158793 0.643897 0.220716
H20   H     H_    0.560397 0.070964 0.710482 0.224022
H21   H     H_    0.666642 0.005271 0.588018 0.246070
C30   C     C_3   0.786005 0.673076 0.059345 -0.957159
H22   H     H_    0.873579 0.720376 0.086164 0.247007
H23   H     H_    0.726323 0.736222 0.998815 0.228443
H24   H     H_    0.738184 0.650011 0.155979 0.246827

loop_
_geom_bond_atom_site_label_1
_geom_bond_atom_site_label_2
_ccdc_geom_bond_type
C14   H4    S    
C23   O8    A    
C22   O6    A    
C30   H23   S    
C13   H3    S    
C22   O5    A    
C17   H6    S    
Cu1   Cu2   S    
C20   H8    S    
C9    C10   A    
C3    H16   S    
C17   C22   S    
C1    O1    A    
C25   H13   S    
C9    C15   A    
C30   H24   S    
C29   H19   S    
C25   C26   A    
Cu1   N1    S    
C13   C14   A    
C24   C25   A    
C24   H11   S    
Cu2   O4    S    
C26   C27   A    
C20   N1    D    
C12   O3    A    
Cu1   O3    S    
H12   N2    S    
C5    C6    A    
Cu2   O8    S    
C21   N2    D    
H9    N1    S    
C18   H7    S    
Cu1   O7    S    
C11   H2    S    
C3    C8    A    
C6    C7    A    
C16   H5    S    
C2    C24   A    
C7    C12   S    
Cu2   N2    S    
C1    O2    A    
C28   H15   S    
C1    C19   S    
C5    C15   S    
C10   C11   A    
Cu1   O1    S    
C3    C4    A    
C11   C13   A    
C8    C26   S    
C20   C21   S    
C9    H18   S    
C16   C18   S    
C18   C19   D    
C6    H17   S    
C29   H20   S    
C27   C28   A    
C23   O7    A    
C7    C8    A    
Cu2   O2    S    
C14   C15   A    
C2    H1    S    
C29   H21   S    
C2    C28   A    
Cu1   O5    S    
C19   C29   S    
C4    C23   S    
C30   H22   S    
Cu2   O6    S    
C27   H14   S    
C12   O4    A    
C10   C30   S    
C16   C17   D    
C4    C5    A    
C21   H10   S    
