data_mof_unit_61392.cif
_audit_creation_date              2012-12-10T17:58:59-0500
_audit_creation_method            fapswitch 2.2
_symmetry_space_group_name_H-M    P1
_symmetry_Int_Tables_number       1
_space_group_crystal_system       triclinic
_cell_length_a                    18.684343
_cell_length_b                    18.696282
_cell_length_c                    18.958824
_cell_angle_alpha                 109.519185
_cell_angle_beta                  110.071575
_cell_angle_gamma                 108.911914
_cell_volume                      5092.2675893

loop_
_atom_site_label
_atom_site_type_symbol
_atom_type_description
_atom_site_fract_x
_atom_site_fract_y
_atom_site_fract_z
_atom_type_partial_charge
C1    C     C_R   0.619163 0.619100 0.500679 0.789525
C2    C     C_3   0.187075 0.418035 0.193846 -0.110605
C3    C     C_3   0.217261 0.465693 0.291507 -0.118919
C4    C     C_3   0.312771 0.500490 0.312617 0.023473
C5    C     C_R   0.671449 0.688000 0.424582 0.100104
C6    C     C_R   0.684700 0.687415 0.501333 -0.077202
C7    C     C_R   0.758215 0.758874 0.580363 -0.209452
C8    C     C_R   0.822965 0.823102 0.580374 -0.213168
C9    C     C_R   0.812876 0.817619 0.501462 -0.084321
C10   C     C_R   0.734005 0.752733 0.424766 0.140104
C11   C     C_3   0.718922 0.690022 0.340526 -0.485183
C12   C     C_R   0.380537 0.500177 0.380588 0.796178
C13   C     C_3   0.650256 0.618848 0.340533 -0.461303
C14   C     C_R   0.756614 0.495971 0.682489 0.125249
C15   C     C_R   0.684564 0.498178 0.686306 -0.087841
C16   C     C_R   0.678096 0.500371 0.758967 -0.208743
C17   C     C_R   0.743023 0.499510 0.823970 -0.210662
C18   C     C_R   0.816359 0.499522 0.818211 -0.087177
C19   C     C_R   0.820373 0.498512 0.746276 0.127371
C20   C     C_3   0.873626 0.497485 0.703228 -0.480337
C21   C     C_3   0.801229 0.495560 0.630775 -0.471850
C22   C     C_R   0.245951 0.240841 0.425933 0.029477
C23   C     C_R   0.381771 0.381200 0.500238 0.800451
C24   C     C_R   0.317152 0.314929 0.501877 -0.090590
C25   C     C_R   0.323026 0.324100 0.580971 -0.197701
C26   C     C_R   0.258498 0.258848 0.580997 -0.209984
C27   C     C_R   0.186046 0.185573 0.501831 -0.065300
C28   C     C_R   0.182383 0.180060 0.425821 0.095917
C29   C     C_3   0.129963 0.125288 0.329338 -0.550683
C30   C     C_3   0.202686 0.194990 0.329504 -0.159186
C31   C     C_R   0.002941 0.619120 0.121386 0.793862
C32   C     C_R   0.123638 0.500146 0.123262 0.785212
C33   C     C_R   0.003925 0.381216 0.885419 0.798192
C34   C     C_R   0.619341 0.499658 0.619440 0.794930
C35   C     C_R   0.884077 0.499752 0.884303 0.797277
C36   C     C_R   0.998639 0.118470 0.617604 0.797704
C37   C     C_R   0.880861 0.881317 0.499849 0.791975
C38   C     C_R   0.001329 0.881338 0.382373 0.792924
C39   C     C_R   0.118888 0.118605 0.500255 0.799118
C40   C     C_R   0.020600 0.689228 0.266519 0.098107
C41   C     C_R   0.005137 0.687450 0.188441 -0.076580
C42   C     C_R   0.000938 0.757881 0.179461 -0.207268
C43   C     C_R   0.999857 0.822096 0.243157 -0.212656
C44   C     C_R   0.006012 0.817635 0.317421 -0.085857
C45   C     C_3   0.317812 0.583039 0.310053 -0.160813
C46   C     C_R   0.022162 0.753933 0.330487 0.141578
C47   C     C_3   0.976864 0.691714 0.353882 -0.483254
C48   C     C_3   0.975059 0.620560 0.283337 -0.463041
C49   C     C_R   0.000820 0.241670 0.818351 0.120652
C50   C     C_R   0.000505 0.314825 0.816080 -0.084498
C51   C     C_R   0.997003 0.322152 0.743354 -0.211464
C52   C     C_R   0.994118 0.256488 0.676349 -0.211382
C53   C     C_R   0.997636 0.184633 0.683118 -0.088480
C54   C     C_R   0.001287 0.180555 0.755868 0.126592
C55   C     C_3   0.007234 0.128864 0.800580 -0.468872
C56   C     C_3   0.221115 0.548199 0.287822 -0.161908
C57   C     C_3   0.007473 0.199190 0.872380 -0.472970
C58   C     C_3   0.192056 0.500585 0.191297 -0.001721
C59   C     C_3   0.287632 0.535415 0.212457 -0.182403
C60   C     C_3   0.283568 0.452813 0.215962 -0.139934
Cu1   Cu    Cu3+1 0.500490 0.438210 0.438660 0.960399
Cu2   Cu    Cu3+1 0.499510 0.561790 0.561340 0.944236
Cu3   Cu    Cu3+1 0.942090 0.438240 0.003860 0.941973
Cu4   Cu    Cu3+1 0.065700 0.561800 0.003830 0.944208
Cu5   Cu    Cu3+1 0.937720 0.000020 0.437750 0.944632
Cu6   Cu    Cu3+1 0.062280 0.000080 0.562350 0.944869
H1    H     H_    0.194154 0.587275 0.315848 0.125851
H2    H     H_    0.776908 0.681971 0.347294 0.186252
H3    H     H_    0.582360 0.591501 0.287937 0.193321
H4    H     H_    0.668516 0.569556 0.347450 0.211396
H5    H     H_    0.622855 0.501701 0.764921 0.152502
H6    H     H_    0.736789 0.500429 0.878957 0.154025
H7    H     H_    0.937473 0.559129 0.740916 0.206881
H8    H     H_    0.877287 0.436326 0.682203 0.191371
H9    H     H_    0.823178 0.556367 0.627099 0.194447
H10   H     H_    0.763512 0.433549 0.567743 0.207443
H11   H     H_    0.377548 0.380656 0.642212 0.150258
H12   H     H_    0.372654 0.650640 0.358957 0.137543
H13   H     H_    0.264339 0.266349 0.642224 0.151459
H14   H     H_    0.127578 0.061073 0.306234 0.194279
H15   H     H_    0.065119 0.121899 0.302205 0.199460
H16   H     H_    0.241543 0.170862 0.305582 0.184193
H17   H     H_    0.994100 0.760788 0.121528 0.151807
H18   H     H_    0.992494 0.873867 0.233682 0.154669
H19   H     H_    0.019952 0.706699 0.420330 0.203576
H20   H     H_    0.910623 0.682606 0.339528 0.186133
H21   H     H_    0.017126 0.594569 0.309142 0.191871
H22   H     H_    0.315454 0.563938 0.178927 0.146555
H23   H     H_    0.907709 0.570209 0.227967 0.212283
H24   H     H_    0.995804 0.377738 0.738077 0.148644
H25   H     H_    0.991358 0.262916 0.620905 0.154921
H26   H     H_    0.947207 0.063805 0.763861 0.191718
H27   H     H_    0.070317 0.128359 0.821886 0.207887
H28   H     H_    0.947810 0.174711 0.877522 0.208419
H29   H     H_    0.070878 0.239508 0.934863 0.194240
H30   H     H_    0.310119 0.413598 0.187360 0.152740
H31   H     H_    0.132325 0.350380 0.144931 0.155222
H32   H     H_    0.189748 0.437142 0.325190 0.124060
H33   H     H_    0.767597 0.762622 0.641407 0.151631
H34   H     H_    0.881318 0.875701 0.641424 0.152370
H35   H     H_    0.690585 0.703692 0.287933 0.203599
O1    O     O_R   0.590590 0.537990 0.448210 -0.591115
O2    O     O_R   0.055390 0.642370 0.093330 -0.584093
O3    O     O_R   0.042570 0.447840 0.094710 -0.591490
O4    O     O_R   0.146960 0.552180 0.094690 -0.586037
O5    O     O_R   0.952400 0.357670 0.914360 -0.583684
O6    O     O_R   0.056780 0.462020 0.914330 -0.588389
O7    O     O_R   0.860840 0.447860 0.913000 -0.585196
O8    O     O_R   0.965220 0.552200 0.912980 -0.588062
O9    O     O_R   0.946640 0.090180 0.536890 -0.585934
O10   O     O_R   0.051820 0.090220 0.642110 -0.588493
O11   O     O_R   0.857230 0.909860 0.447430 -0.581659
O12   O     O_R   0.589760 0.642350 0.551800 -0.585730
O13   O     O_R   0.962420 0.909900 0.552660 -0.588442
O14   O     O_R   0.948170 0.909880 0.357990 -0.587887
O15   O     O_R   0.053360 0.909920 0.463210 -0.581557
O16   O     O_R   0.037580 0.090200 0.447440 -0.587265
O17   O     O_R   0.142770 0.090240 0.552670 -0.585944
O18   O     O_R   0.409550 0.447830 0.357350 -0.572631
O19   O     O_R   0.408710 0.552190 0.460940 -0.593008
O20   O     O_R   0.410240 0.357650 0.448200 -0.575179
O21   O     O_R   0.409410 0.462010 0.551790 -0.591907
O22   O     O_R   0.591290 0.447810 0.539060 -0.585236
O23   O     O_R   0.590450 0.552170 0.642650 -0.590383
O24   O     O_R   0.951010 0.538020 0.093350 -0.588970
C61   C     C_2   0.173122 0.246591 0.292623 0.382631
H36   H     H_    0.135849 0.274117 0.312761 0.058310
O25   O     O_2   0.191198 0.258155 0.239904 -0.558658

loop_
_geom_bond_atom_site_label_1
_geom_bond_atom_site_label_2
_ccdc_geom_bond_type
Cu4   O2    S    
C30   C61   S    
C34   O22   A    
Cu1   O18   S    
C41   C42   A    
C54   C55   S    
C19   C20   S    
C33   O6    A    
C32   C58   S    
C55   H27   S    
Cu2   O23   S    
C7    C8    A    
C23   O20   A    
C53   C54   A    
C52   C53   A    
C40   C46   A    
C21   H10   S    
C26   C27   A    
C61   H36   S    
Cu6   O15   S    
C25   H11   S    
C47   H19   S    
C14   C21   S    
C28   C29   S    
C51   H24   S    
C5    C6    A    
C2    C60   S    
C13   H4    S    
C15   C16   A    
C49   C57   S    
Cu1   O20   S    
C18   C19   A    
C59   H22   S    
C37   O11   A    
C35   O7    A    
C33   C50   S    
C12   O19   A    
C2    H31   S    
C27   C39   S    
C8    C9    A    
C34   O23   A    
C23   C24   S    
C32   O3    A    
C45   H12   S    
C36   C53   S    
Cu6   O10   S    
C4    C12   S    
Cu6   O13   S    
C18   C35   S    
C15   C34   S    
Cu2   O19   S    
C35   O8    A    
C59   C60   S    
C22   C28   A    
C43   H18   S    
Cu5   O14   S    
C16   H5    S    
C1    O12   A    
C44   C46   A    
C17   C18   A    
C23   O21   A    
C4    C45   S    
C33   O5    A    
C1    C6    S    
C47   H20   S    
Cu4   O4    S    
C24   C25   A    
C45   C56   S    
Cu2   O12   S    
Cu6   O17   S    
C16   C17   A    
C37   O13   A    
C25   C26   A    
C39   O16   A    
C51   C52   A    
C31   O2    A    
C30   H16   S    
C43   C44   A    
Cu5   O11   S    
C38   C44   S    
C29   C30   S    
C12   O18   A    
C38   O15   A    
C3    C56   S    
C47   C48   S    
C4    C60   S    
C36   O10   A    
C9    C37   S    
C50   C51   A    
C48   H21   S    
C20   H8    S    
C11   H35   S    
Cu3   O5    S    
Cu3   O24   S    
C7    H33   S    
C60   H30   S    
C40   C41   A    
C55   H26   S    
C29   H15   S    
C49   C50   A    
C57   H28   S    
C55   C57   S    
C36   O9    A    
C22   C24   A    
C42   C43   A    
C31   O24   A    
C3    C4    S    
C39   O17   A    
Cu2   O21   S    
C11   H2    S    
Cu4   O6    S    
C9    C10   A    
C40   C48   S    
C46   C47   S    
C45   C59   S    
C61   O25   D    
C31   C41   S    
C5    C13   S    
C14   C19   A    
C42   H17   S    
Cu3   O3    S    
C2    C58   S    
C6    C7    A    
C56   H1    S    
C21   H9    S    
C26   H13   S    
Cu1   O22   S    
C32   O4    A    
Cu1   O1    S    
C58   C59   S    
C5    C10   A    
C22   C30   S    
C38   O14   A    
C11   C13   S    
C3    H32   S    
Cu4   O8    S    
C29   H14   S    
C13   H3    S    
C56   C58   S    
C20   H7    S    
C2    C3    S    
C8    H34   S    
Cu1   Cu2   S    
Cu5   O9    S    
C10   C11   S    
Cu3   Cu4   S    
C20   C21   S    
C17   H6    S    
Cu5   Cu6   S    
C57   H29   S    
C27   C28   A    
Cu5   O16   S    
C14   C15   A    
C52   H25   S    
Cu3   O7    S    
C1    O1    A    
C48   H23   S    
C49   C54   A    
