data_mof_unit_37883.cif
_audit_creation_date              2012-12-10T19:28:38-0500
_audit_creation_method            fapswitch 2.2
_symmetry_space_group_name_H-M    P1
_symmetry_Int_Tables_number       1
_space_group_crystal_system       triclinic
_cell_length_a                    27.656457
_cell_length_b                    10.55834
_cell_length_c                    9.800527
_cell_angle_alpha                 90.179536
_cell_angle_beta                  90.011145
_cell_angle_gamma                 90.720155
_cell_volume                      2861.57521292

loop_
_atom_site_label
_atom_site_type_symbol
_atom_type_description
_atom_site_fract_x
_atom_site_fract_y
_atom_site_fract_z
_atom_type_partial_charge
Br1   Br    Br    0.350704 0.342272 0.268810 -0.464193
Br2   Br    Br    0.642703 0.652663 0.751455 -0.473058
Br3   Br    Br    0.231852 0.375185 0.286556 -0.381724
Br4   Br    Br    0.761600 0.645744 0.742620 -0.384125
C1    C     C_R   0.500060 0.258121 0.500089 0.880741
C2    C     C_R   0.875919 0.419771 0.562466 -0.025281
C3    C     C_R   0.353483 0.518774 0.500802 -0.221179
C4    C     C_R   0.647215 0.497094 0.500883 -0.226187
C5    C     C_R   0.976486 0.452121 0.597978 0.065191
C6    C     C_R   0.024927 0.643559 0.449467 0.049419
C7    C     C_R   0.973882 0.647412 0.460616 -0.003130
C8    C     C_R   0.026554 0.472523 0.619941 0.038195
C9    C     C_R   0.950033 0.543000 0.523348 0.049339
C10   C     C_R   0.051068 0.560262 0.534507 0.048592
C11   C     C_R   0.952518 0.340336 0.640665 -0.172083
C12   C     C_R   0.500176 0.741946 0.499916 0.875419
C13   C     C_R   0.050492 0.713160 0.349675 -0.230741
C14   C     C_R   0.902973 0.324869 0.624034 -0.136727
C15   C     C_R   0.100653 0.711730 0.343773 -0.119031
C16   C     C_R   0.406129 0.502672 0.500006 0.921549
C17   C     C_R   0.594001 0.499526 0.500221 0.916179
C18   C     C_R   0.053427 0.408221 0.721585 0.067111
C19   C     C_R   0.945275 0.748753 0.410113 0.076295
C20   C     C_3   0.504878 0.040197 0.627258 0.152496
C21   C     C_3   0.495763 0.960073 0.372681 0.153145
C22   C     C_3   0.541600 0.960329 0.551088 0.094542
C23   C     C_R   0.102087 0.562312 0.531307 -0.054929
C24   C     C_3   0.459039 0.039882 0.448885 0.093029
C25   C     C_3   0.500047 0.876243 0.499311 -0.088459
C26   C     C_3   0.500548 0.123952 0.500699 -0.090087
C27   C     C_3   0.462422 0.955971 0.577113 -0.293167
C28   C     C_3   0.538228 0.044397 0.422879 -0.288602
C29   C     C_3   0.488964 0.390644 0.046514 0.192571
C30   C     C_3   0.511003 0.609379 0.953476 0.197408
C31   C     C_3   0.530662 0.421901 0.952354 0.123931
C32   C     C_3   0.469326 0.578102 0.047659 0.118880
C33   C     C_3   0.457222 0.468109 0.950519 -0.190495
C34   C     C_R   0.899419 0.528696 0.510804 -0.051007
C35   C     C_3   0.542760 0.531942 0.049443 -0.184792
C36   C     C_R   0.178761 0.485736 0.613309 0.586725
C37   C     C_R   0.822028 0.608366 0.438118 0.593495
C38   C     C_R   0.177354 0.634718 0.430473 0.580787
C39   C     C_R   0.825640 0.408906 0.551670 0.580703
C40   C     C_R   0.282189 0.618353 0.597499 0.130769
C41   C     C_R   0.722984 0.431292 0.396463 0.132192
C42   C     C_R   0.332297 0.603298 0.596001 0.006553
C43   C     C_R   0.672380 0.429292 0.397990 0.005498
C44   C     C_R   0.323916 0.453971 0.404759 0.176521
C45   C     C_R   0.128342 0.486570 0.622088 -0.057966
C46   C     C_R   0.673679 0.560848 0.605207 0.180867
C47   C     C_R   0.273669 0.468541 0.409322 0.266288
C48   C     C_R   0.724247 0.560584 0.602523 0.261829
C49   C     C_R   0.253211 0.549661 0.506278 0.156261
C50   C     C_R   0.748446 0.498071 0.497092 0.157144
C51   C     C_R   0.872256 0.623265 0.446929 -0.080401
C52   C     C_R   0.103874 0.414366 0.719947 -0.170349
C53   C     C_R   0.895274 0.733522 0.400635 -0.097575
C54   C     C_R   0.126840 0.638201 0.435428 -0.025849
H1    H     H_    0.431942 0.920545 0.640432 0.153013
H2    H     H_    0.032172 0.764393 0.270582 0.153604
H3    H     H_    0.514839 0.006711 0.829221 0.167530
H4    H     H_    0.478764 0.128654 0.795066 0.188101
H5    H     H_    0.485765 0.993524 0.170736 0.167530
H6    H     H_    0.521849 0.871575 0.204895 0.188018
H7    H     H_    0.580129 0.283460 0.975847 0.162619
H8    H     H_    0.592251 0.384058 0.848533 0.239021
H9    H     H_    0.419831 0.716513 0.024329 0.161944
H10   H     H_    0.407698 0.615622 0.151403 0.236437
H11   H     H_    0.463705 0.210587 0.023057 0.166315
H12   H     H_    0.568727 0.081656 0.360589 0.153947
H13   H     H_    0.509139 0.226111 0.135111 0.174802
H14   H     H_    0.536194 0.789514 0.976879 0.167541
H15   H     H_    0.490727 0.773871 0.864923 0.173846
H16   H     H_    0.630193 0.413896 0.228422 0.215831
H17   H     H_    0.622519 0.294392 0.344407 0.194716
H18   H     H_    0.388370 0.724423 0.635443 0.191283
H19   H     H_    0.375678 0.619090 0.763116 0.216425
H20   H     H_    0.739694 0.270045 0.295863 0.227894
H21   H     H_    0.738583 0.401598 0.197342 0.224124
H22   H     H_    0.269133 0.673790 0.791730 0.228670
H23   H     H_    0.421798 0.441180 0.904947 0.158622
H24   H     H_    0.274028 0.793629 0.677708 0.219509
H25   H     H_    0.041197 0.391555 0.924127 0.208170
H26   H     H_    0.042109 0.252825 0.837854 0.188961
H27   H     H_    0.995575 0.891279 0.445037 0.207031
H28   H     H_    0.969749 0.889184 0.284702 0.188402
H29   H     H_    0.601472 0.851856 0.539943 0.204090
H30   H     H_    0.577583 0.864372 0.697046 0.239445
H31   H     H_    0.422987 0.138405 0.304891 0.238261
H32   H     H_    0.398616 0.145876 0.461801 0.206018
H33   H     H_    0.578108 0.559745 0.094788 0.156133
H34   H     H_    0.123735 0.362232 0.796310 0.200251
H35   H     H_    0.874265 0.811188 0.360964 0.204109
H36   H     H_    0.885981 0.238101 0.659730 0.197745
H37   H     H_    0.118759 0.766989 0.265605 0.194627
H38   H     H_    0.971786 0.260610 0.681153 0.172025
N1    N     N_R   0.201919 0.557666 0.517245 -0.325574
N2    N     N_3   0.523002 0.733145 0.897121 -0.402734
N3    N     N_3   0.647704 0.354159 0.296658 -0.453923
N4    N     N_3   0.360796 0.678175 0.689316 -0.458832
N5    N     N_3   0.749226 0.366107 0.292043 -0.414621
N6    N     N_3   0.259905 0.702484 0.693187 -0.418997
N7    N     N_3   0.030099 0.346295 0.834157 -0.461021
N8    N     N_3   0.964007 0.874655 0.388870 -0.457178
N9    N     N_3   0.586574 0.915594 0.609542 -0.396103
N10   N     N_3   0.414029 0.084557 0.390605 -0.397605
N11   N     N_R   0.799960 0.503555 0.492316 -0.324829
N12   N     N_3   0.499960 0.500030 0.863290 -0.092869
N13   N     N_3   0.500040 0.499970 0.136710 -0.093864
N14   N     N_3   0.511095 0.085843 0.766619 -0.408604
N15   N     N_3   0.489523 0.914404 0.233345 -0.408534
N16   N     N_3   0.564441 0.331797 0.894538 -0.403568
N17   N     N_3   0.435507 0.668055 0.105572 -0.403529
N18   N     N_3   0.476888 0.266925 0.102854 -0.406948
O1    O     O_R   0.500000 0.313960 0.616610 -0.595592
O2    O     O_2   0.795222 0.698570 0.378213 -0.528790
O3    O     O_2   0.802381 0.306167 0.602248 -0.533364
O4    O     O_2   0.201804 0.706390 0.339201 -0.529739
O5    O     O_R   0.500000 0.686040 0.383390 -0.595783
O6    O     O_R   0.500020 0.313950 0.383350 -0.620066
O7    O     O_R   0.499980 0.686050 0.616650 -0.620200
O8    O     O_R   0.428750 0.500030 0.616610 -0.642447
O9    O     O_R   0.571250 0.499970 0.383390 -0.643252
O10   O     O_R   0.428770 0.500020 0.383360 -0.571928
O11   O     O_R   0.571230 0.499980 0.616640 -0.568562
O12   O     O_2   0.204557 0.412472 0.698548 -0.531369
Zn1   Zn    Zn3+2 0.499990 0.500010 0.655740 0.978273
Zn2   Zn    Zn3+2 0.500010 0.499990 0.344260 0.977015

loop_
_geom_bond_atom_site_label_1
_geom_bond_atom_site_label_2
_ccdc_geom_bond_type
C11   C14   A    
C22   C28   S    
H28   N8    S    
C38   C54   A    
C43   N3    S    
H14   N2    S    
C21   C24   S    
C29   N18   S    
H25   N7    S    
C50   N11   S    
Br4   C48   S    
C32   C33   S    
C20   C22   S    
O7    Zn1   S    
H3    N14   S    
C6    C13   A    
C36   C45   A    
C8    C18   A    
O1    Zn1   S    
H19   N4    S    
C27   H1    S    
O8    Zn1   S    
C5    C9    A    
C37   C51   A    
C31   N12   S    
Br2   C46   S    
C30   N2    S    
C40   C49   A    
C44   C47   A    
C34   C51   A    
C40   C42   A    
H4    N14   S    
H31   N10   S    
C46   C48   A    
C2    C34   A    
C10   C23   A    
C16   O8    A    
H10   N17   S    
O10   Zn2   S    
O5    Zn2   S    
C21   C28   S    
C53   H35   S    
C1    O1    A    
H20   N5    S    
H5    N15   S    
C33   H23   S    
C32   N17   S    
C22   N9    S    
C35   H33   S    
C48   C50   A    
C41   C43   A    
C15   C54   A    
C21   C25   S    
H15   N2    S    
C2    C14   A    
H11   N18   S    
C16   O10   A    
C1    O6    A    
C30   C35   S    
C3    C42   A    
C20   N14   S    
H32   N10   S    
C33   N12   S    
C6    C10   A    
C12   O5    A    
C24   N10   S    
C11   H38   S    
Br3   C47   S    
C38   O4    S    
H6    N15   S    
C28   H12   S    
C49   N1    S    
C12   C25   S    
C29   C33   S    
C18   N7    S    
H13   N18   S    
H22   N6    S    
C47   C49   A    
C17   O9    A    
C31   C35   S    
C12   O7    A    
H7    N16   S    
N13   Zn2   S    
C19   N8    S    
H29   N9    S    
C35   N13   S    
C36   O12   S    
H17   N3    S    
C4    C17   S    
H24   N6    S    
C39   N11   A    
C9    C34   A    
H27   N8    S    
C41   N5    S    
C39   O3    S    
C8    C10   A    
C41   C50   A    
C2    C39   A    
C51   C53   A    
C14   H36   S    
C38   N1    A    
C29   N13   S    
C37   O2    S    
C17   O11   A    
C4    C46   A    
C36   N1    A    
C15   H37   S    
C1    C26   S    
C19   C53   A    
C42   N4    S    
C40   N6    S    
C37   N11   A    
C24   C27   S    
C23   C54   A    
C18   C52   A    
O6    Zn2   S    
Br1   C44   S    
H16   N3    S    
H18   N4    S    
C45   C52   A    
C30   N12   S    
C3    C44   A    
C24   C26   S    
H9    N17   S    
C20   C27   S    
C25   C27   S    
C26   C28   S    
H30   N9    S    
C7    C9    A    
O9    Zn2   S    
C7    C19   A    
C29   C31   S    
C30   C32   S    
N12   Zn1   S    
C5    C11   A    
C5    C8    A    
C20   C26   S    
C4    C43   A    
C6    C7    A    
C21   N15   S    
C13   H2    S    
C13   C15   A    
C52   H34   S    
C22   C25   S    
C3    C16   S    
C32   N13   S    
O11   Zn1   S    
H26   N7    S    
H21   N5    S    
H8    N16   S    
C31   N16   S    
C23   C45   A    
