data_mof_unit_60909.cif
_audit_creation_date              2012-12-10T19:58:39-0500
_audit_creation_method            fapswitch 2.2
_symmetry_space_group_name_H-M    P1
_symmetry_Int_Tables_number       1
_space_group_crystal_system       triclinic
_cell_length_a                    38.9774
_cell_length_b                    32.081105
_cell_length_c                    21.644576
_cell_angle_alpha                 90.000589
_cell_angle_beta                  124.599897
_cell_angle_gamma                 89.996832
_cell_volume                      22278.3794006

loop_
_atom_site_label
_atom_site_type_symbol
_atom_type_description
_atom_site_fract_x
_atom_site_fract_y
_atom_site_fract_z
_atom_type_partial_charge
C1    C     C_R   0.919313 0.999994 0.419150 0.899761
C2    C     C_R   0.080686 0.999991 0.580848 0.899728
C3    C     C_R   0.419313 0.499993 0.419154 0.899828
C4    C     C_R   0.580688 0.499992 0.580840 0.899683
C5    C     C_R   0.995401 0.999596 0.681527 -0.102470
C6    C     C_R   0.004601 0.999591 0.318473 -0.102525
C7    C     C_R   0.495387 0.499588 0.681520 -0.102646
C8    C     C_R   0.504645 0.499573 0.318497 -0.103126
C9    C     C_R   0.023408 0.024764 0.742212 -0.199695
C10   C     C_R   0.976612 0.024777 0.257808 -0.199718
C11   C     C_R   0.523317 0.524838 0.742123 -0.199515
C12   C     C_R   0.476901 0.525042 0.258089 -0.199337
C13   C     C_R   0.024924 0.023062 0.807125 -0.197491
C14   C     C_R   0.975095 0.023078 0.192894 -0.197563
C15   C     C_R   0.524841 0.523143 0.807044 -0.197643
C16   C     C_R   0.475355 0.523367 0.193146 -0.197933
C17   C     C_R   0.998636 0.995976 0.812164 -0.106527
C18   C     C_R   0.001365 0.995977 0.187835 -0.106477
C19   C     C_R   0.498637 0.495987 0.812172 -0.106377
C20   C     C_R   0.501355 0.496018 0.187803 -0.105916
C21   C     C_R   0.727542 0.004337 0.181156 0.160525
C22   C     C_R   0.272455 0.004715 0.818767 0.160523
C23   C     C_R   0.227541 0.505369 0.181414 0.160625
C24   C     C_R   0.772463 0.507129 0.818085 0.160622
C25   C     C_R   0.706541 0.998779 0.216148 0.058338
C26   C     C_R   0.293459 0.998679 0.783890 0.058396
C27   C     C_R   0.206538 0.498388 0.216042 0.058491
C28   C     C_R   0.793469 0.498123 0.784091 0.058584
C29   C     C_R   0.729383 0.993219 0.295727 0.026750
C30   C     C_R   0.270619 0.992638 0.704420 0.026797
C31   C     C_R   0.229378 0.491400 0.295266 0.026920
C32   C     C_R   0.770633 0.489160 0.705494 0.027013
C33   C     C_R   0.773549 0.993480 0.337473 0.122570
C34   C     C_R   0.226453 0.992932 0.662655 0.122627
C35   C     C_R   0.273544 0.491842 0.337068 0.122812
C36   C     C_R   0.726468 0.489786 0.663623 0.123158
C37   C     C_R   0.793515 0.999192 0.300773 0.055756
C38   C     C_R   0.206484 0.999123 0.699240 0.055818
C39   C     C_R   0.293513 0.498990 0.300733 0.055936
C40   C     C_R   0.706493 0.498901 0.699324 0.056089
C41   C     C_R   0.770671 0.004524 0.223528 -0.250002
C42   C     C_R   0.229327 0.004911 0.776385 -0.250016
C43   C     C_R   0.270670 0.505625 0.223813 -0.249913
C44   C     C_R   0.729334 0.507433 0.775660 -0.249907
C45   C     C_R   0.998109 0.999964 0.618276 0.872523
C46   C     C_R   0.001893 0.999962 0.381725 0.872484
C47   C     C_R   0.498097 0.499962 0.618265 0.872401
C48   C     C_R   0.501935 0.499958 0.381763 0.872342
C49   C     C_1   0.662046 0.999139 0.167954 -0.002184
C50   C     C_1   0.337954 0.999078 0.832069 -0.002189
C51   C     C_1   0.162044 0.498900 0.167886 -0.001946
C52   C     C_1   0.837961 0.498723 0.832187 -0.001797
C53   C     C_1   0.837908 0.999636 0.341828 0.027373
C54   C     C_1   0.162092 0.999602 0.658173 0.027429
C55   C     C_1   0.337906 0.499559 0.341815 0.027655
C56   C     C_1   0.662098 0.499535 0.658205 0.027886
C57   C     C_1   0.875143 0.999906 0.376738 -0.157585
C58   C     C_1   0.124856 0.999894 0.623260 -0.157566
C59   C     C_1   0.375142 0.499893 0.376736 -0.157417
C60   C     C_1   0.624860 0.499890 0.623266 -0.157243
C61   C     C_1   0.624745 0.999586 0.126974 -0.174623
C62   C     C_1   0.375255 0.999563 0.873034 -0.174665
C63   C     C_1   0.124744 0.499490 0.126950 -0.174462
C64   C     C_1   0.875259 0.499420 0.873069 -0.174423
C65   C     C_1   0.499999 0.875220 0.999998 -0.167619
C66   C     C_1   0.999996 0.375221 0.999994 -0.168237
C67   C     C_R   0.000001 0.919294 0.000001 0.883284
C68   C     C_R   0.500001 0.419293 0.000002 0.883619
C69   C     C_R   0.999666 0.998074 0.879355 0.869745
C70   C     C_R   0.000334 0.998076 0.120645 0.869723
C71   C     C_R   0.499667 0.498085 0.879357 0.869941
C72   C     C_R   0.500330 0.498116 0.120636 0.869812
C73   C     C_R   0.999999 0.080702 0.999998 0.918643
C74   C     C_R   0.499999 0.580702 0.999999 0.918567
C75   C     C_R   0.500000 0.919493 0.999999 0.899701
C76   C     C_R   0.999999 0.419493 0.999998 0.899236
C77   C     C_R   0.580532 0.999973 0.080981 0.902136
C78   C     C_R   0.419467 0.999975 0.919019 0.902166
C79   C     C_R   0.080532 0.499979 0.080978 0.902467
C80   C     C_R   0.919468 0.499984 0.919023 0.902594
C81   C     C_1   0.999996 0.124975 0.999995 -0.177796
C82   C     C_1   0.499996 0.624975 0.999996 -0.177879
C83   C     C_R   0.500000 0.080601 0.000001 0.903635
C84   C     C_R   0.000000 0.580601 0.000001 0.904773
C85   C     C_R   0.472025 0.228244 0.009209 -0.175019
C86   C     C_R   0.527988 0.228240 0.990820 -0.175086
C87   C     C_R   0.981253 0.728244 0.029569 -0.174237
C88   C     C_R   0.018761 0.728241 0.970453 -0.174473
C89   C     C_R   0.500007 0.206611 0.000015 0.162877
C90   C     C_R   0.000007 0.706611 0.000012 0.162443
C91   C     C_R   0.018758 0.771677 0.970447 -0.178083
C92   C     C_R   0.981256 0.771680 0.029574 -0.178071
C93   C     C_R   0.527987 0.271675 0.990818 -0.177964
C94   C     C_R   0.472027 0.271680 0.009213 -0.177963
C95   C     C_R   0.000006 0.793307 0.000008 0.164411
C96   C     C_R   0.500006 0.293306 0.000014 0.163523
C97   C     C_1   0.500005 0.162180 0.000009 -0.061804
C98   C     C_1   0.000005 0.662180 0.000008 -0.061389
C99   C     C_1   0.000005 0.837733 0.000006 -0.066946
C100  C     C_1   0.500005 0.337732 0.000012 -0.067267
C101  C     C_1   0.000004 0.875045 0.000004 -0.179726
C102  C     C_1   0.500004 0.375044 0.000008 -0.180012
C103  C     C_1   0.500002 0.124863 0.000004 -0.165319
C104  C     C_1   0.000003 0.624864 0.000005 -0.164739
C105  C     C_R   0.474375 0.771819 0.932488 -0.175179
C106  C     C_R   0.525617 0.771817 0.067504 -0.175146
C107  C     C_R   0.975524 0.271819 0.932150 -0.175473
C108  C     C_R   0.024459 0.271817 0.067833 -0.175356
C109  C     C_R   0.936760 0.949258 0.621226 -0.149349
C110  C     C_R   0.063204 0.949212 0.378729 -0.149466
C111  C     C_R   0.436909 0.449067 0.621410 -0.149552
C112  C     C_R   0.562744 0.448578 0.378149 -0.149895
C113  C     C_R   0.499997 0.793456 0.999996 0.164967
C114  C     C_R   0.999992 0.293456 0.999991 0.164990
C115  C     C_R   0.024458 0.228377 0.067833 -0.175737
C116  C     C_R   0.975525 0.228379 0.932150 -0.175699
C117  C     C_R   0.525616 0.728376 0.067504 -0.175662
C118  C     C_R   0.474375 0.728379 0.932487 -0.175574
C119  C     C_R   0.999992 0.206740 0.999992 0.164681
C120  C     C_R   0.499995 0.706740 0.999995 0.164541
C121  C     C_1   0.499998 0.837897 0.999996 -0.062769
C122  C     C_1   0.999993 0.337897 0.999992 -0.063233
C123  C     C_1   0.999993 0.162299 0.999993 -0.062416
C124  C     C_1   0.499995 0.662298 0.999995 -0.062422
C125  C     C_R   0.911422 0.921240 0.627128 -0.099344
C126  C     C_R   0.088521 0.921177 0.372801 -0.099117
C127  C     C_R   0.411673 0.420969 0.627428 -0.098552
C128  C     C_R   0.587731 0.420265 0.371843 -0.098124
C129  C     C_R   0.916245 0.915990 0.695421 -0.130606
C130  C     C_R   0.083699 0.915937 0.304509 -0.130639
C131  C     C_R   0.416502 0.415757 0.695730 -0.130087
C132  C     C_R   0.582867 0.415133 0.303498 -0.130141
C133  C     C_R   0.945443 0.939769 0.757441 -0.174416
C134  C     C_R   0.054522 0.939739 0.242513 -0.174510
C135  C     C_R   0.445613 0.439639 0.757650 -0.174127
C136  C     C_R   0.553960 0.439286 0.241817 -0.174373
C137  C     C_R   0.970378 0.969547 0.751853 0.099837
C138  C     C_R   0.029605 0.969530 0.248124 0.099874
C139  C     C_R   0.470459 0.469478 0.751954 0.099789
C140  C     C_R   0.529340 0.469294 0.247793 0.099671
C141  C     C_R   0.967545 0.972675 0.684203 0.093229
C142  C     C_R   0.032438 0.972652 0.315775 0.093159
C143  C     C_R   0.467617 0.472586 0.684293 0.093009
C144  C     C_R   0.532212 0.472358 0.315486 0.092682
H1    H     H_    0.044678 0.045317 0.739714 0.160752
H2    H     H_    0.955355 0.045343 0.260320 0.160777
H3    H     H_    0.544525 0.545449 0.739561 0.160907
H4    H     H_    0.455843 0.545810 0.260808 0.161171
H5    H     H_    0.966708 0.788360 0.052507 0.145240
H6    H     H_    0.033305 0.788354 0.947511 0.145179
H7    H     H_    0.450319 0.288359 0.016348 0.145987
H8    H     H_    0.549694 0.288351 0.983680 0.145949
H9    H     H_    0.450315 0.211570 0.016341 0.147856
H10   H     H_    0.549698 0.211562 0.983689 0.147790
H11   H     H_    0.966700 0.711569 0.052497 0.148101
H12   H     H_    0.033314 0.711564 0.947527 0.147925
H13   H     H_    0.956542 0.211704 0.879511 0.145816
H14   H     H_    0.043441 0.211702 0.120472 0.145814
H15   H     H_    0.454496 0.711705 0.880107 0.145920
H16   H     H_    0.545494 0.711701 0.119884 0.145845
H17   H     H_    0.454495 0.788495 0.880108 0.144874
H18   H     H_    0.545498 0.788490 0.119884 0.144870
H19   H     H_    0.956540 0.288495 0.879511 0.144769
H20   H     H_    0.043444 0.288492 0.120471 0.144842
H21   H     H_    0.931541 0.952662 0.566809 0.158175
H22   H     H_    0.068427 0.952608 0.433150 0.158347
H23   H     H_    0.431668 0.452447 0.566973 0.158694
H24   H     H_    0.568048 0.451908 0.432642 0.159551
H25   H     H_    0.888183 0.903317 0.578672 0.157015
H26   H     H_    0.111743 0.903234 0.421238 0.157429
H27   H     H_    0.388502 0.402961 0.579049 0.158198
H28   H     H_    0.610746 0.402039 0.420040 0.159492
H29   H     H_    0.897117 0.893597 0.700273 0.144941
H30   H     H_    0.102813 0.893533 0.299639 0.144989
H31   H     H_    0.397444 0.393312 0.700666 0.145010
H32   H     H_    0.601743 0.392545 0.298347 0.145224
H33   H     H_    0.948517 0.934059 0.809576 0.153015
H34   H     H_    0.051450 0.934038 0.190378 0.153012
H35   H     H_    0.448691 0.433962 0.809798 0.152974
H36   H     H_    0.550852 0.433690 0.189621 0.152761
H37   H     H_    0.046407 0.043346 0.853425 0.163299
H38   H     H_    0.953625 0.043375 0.146610 0.163273
H39   H     H_    0.546264 0.543486 0.853281 0.163237
H40   H     H_    0.454078 0.543868 0.147060 0.162934
H41   H     H_    0.786491 0.008859 0.195910 0.179689
H42   H     H_    0.213504 0.009618 0.803914 0.179686
H43   H     H_    0.286492 0.511060 0.196474 0.179708
H44   H     H_    0.713511 0.514399 0.802514 0.179699
O1    O     O_R   0.939010 0.034430 0.439030 -0.610732
O2    O     O_R   0.060990 0.034430 0.560970 -0.610847
O3    O     O_R   0.439010 0.534430 0.439030 -0.610971
O4    O     O_R   0.560990 0.534430 0.560970 -0.611510
O5    O     O_R   0.560990 0.000040 0.112660 -0.629503
O6    O     O_R   0.439010 0.000040 0.887340 -0.629465
O7    O     O_R   0.060990 0.500040 0.112660 -0.629421
O8    O     O_R   0.939010 0.500040 0.887340 -0.629213
O9    O     O_R   0.561000 0.999980 0.009230 -0.593043
O10   O     O_R   0.439000 0.999980 0.990770 -0.593082
O11   O     O_R   0.061000 0.499980 0.009230 -0.593202
O12   O     O_R   0.939000 0.499980 0.990770 -0.593442
O13   O     O_R   0.499990 0.061030 0.051640 -0.612454
O14   O     O_R   0.500010 0.061030 0.948360 -0.612468
O15   O     O_R   0.999990 0.561030 0.051640 -0.612512
O16   O     O_R   0.000010 0.561030 0.948360 -0.612561
O17   O     O_R   0.939020 0.965580 0.438990 -0.619930
O18   O     O_R   0.060980 0.965580 0.561010 -0.619822
O19   O     O_R   0.439020 0.465580 0.438990 -0.619502
O20   O     O_R   0.560980 0.465580 0.561010 -0.619022
O21   O     O_R   0.999990 0.034430 0.591600 -0.615983
O22   O     O_R   0.000010 0.034430 0.408400 -0.616038
O23   O     O_R   0.499990 0.534430 0.591600 -0.616075
O24   O     O_R   0.500010 0.534430 0.408400 -0.616317
O25   O     O_R   0.000000 0.965580 0.591570 -0.626310
O26   O     O_R   0.000000 0.965580 0.408430 -0.626297
O27   O     O_R   0.500000 0.465580 0.591570 -0.626172
O28   O     O_R   0.500000 0.465580 0.408430 -0.626229
O29   O     O_R   0.034430 0.939010 0.034360 -0.621558
O30   O     O_R   0.965570 0.939010 0.965640 -0.621528
O31   O     O_R   0.534430 0.439010 0.034360 -0.621826
O32   O     O_R   0.465570 0.439010 0.965640 -0.621839
O33   O     O_R   0.034440 0.999990 0.942790 -0.618001
O34   O     O_R   0.965560 0.999990 0.057210 -0.617980
O35   O     O_R   0.534440 0.499990 0.942790 -0.617981
O36   O     O_R   0.465560 0.499990 0.057210 -0.617886
O37   O     O_R   0.965580 0.000000 0.873950 -0.621907
O38   O     O_R   0.034420 0.000000 0.126050 -0.621928
O39   O     O_R   0.465580 0.500000 0.873950 -0.621996
O40   O     O_R   0.534420 0.500000 0.126050 -0.621992
O41   O     O_R   0.034440 0.060980 0.034440 -0.610754
O42   O     O_R   0.965560 0.060980 0.965560 -0.610756
O43   O     O_R   0.534440 0.560980 0.034440 -0.610887
O44   O     O_R   0.465560 0.560980 0.965560 -0.610825
O45   O     O_R   0.500010 0.939050 0.051750 -0.613672
O46   O     O_R   0.499990 0.939050 0.948250 -0.613638
O47   O     O_R   0.000010 0.439050 0.051750 -0.614047
O48   O     O_R   0.999990 0.439050 0.948250 -0.613951
Zn1   Zn    Zn3+2 1.000000 0.045980 0.500000 0.984604
Zn2   Zn    Zn3+2 0.500000 0.545980 0.500000 0.984160
Zn3   Zn    Zn3+2 1.000000 0.954030 0.500000 0.970241
Zn4   Zn    Zn3+2 0.500000 0.454030 0.500000 0.971318
Zn5   Zn    Zn3+2 0.045980 0.999990 0.045940 0.977140
Zn6   Zn    Zn3+2 0.954020 0.999990 0.954060 0.977197
Zn7   Zn    Zn3+2 0.545980 0.499990 0.045940 0.976557
Zn8   Zn    Zn3+2 0.454020 0.499990 0.954060 0.976679
Zn9   Zn    Zn3+2 0.500000 0.000050 0.069040 0.989112
Zn10  Zn    Zn3+2 0.500000 0.000050 0.930960 0.989192
Zn11  Zn    Zn3+2 0.000000 0.500050 0.069040 0.988562
Zn12  Zn    Zn3+2 0.000000 0.500050 0.930960 0.988986
I1    I     I_    0.811539 0.985198 0.457281 -0.437499
I2    I     I_    0.188468 0.983994 0.542991 -0.438254
I3    I     I_    0.311526 0.481722 0.456415 -0.439626
I4    I     I_    0.688502 0.477011 0.545116 -0.441854
I5    I     I_    0.695932 0.012775 0.063252 -0.348494
I6    I     I_    0.304061 0.013877 0.936506 -0.348573
I7    I     I_    0.195933 0.515924 0.064042 -0.348435
I8    I     I_    0.804069 0.520770 0.934500 -0.348723
C145  C     C_3   0.710598 0.986891 0.341132 -0.386037
C146  C     C_3   0.663136 0.986418 0.301108 -0.356422
C147  C     C_3   0.651451 0.979979 0.356930 -0.851432
H45   H     H_    0.663800 0.949727 0.386594 0.264799
H46   H     H_    0.664162 0.005670 0.398782 0.266192
H47   H     H_    0.616986 0.979733 0.326429 0.255866
H48   H     H_    0.649819 0.016772 0.272614 0.241275
H49   H     H_    0.649404 0.960266 0.260256 0.237472
H50   H     H_    0.722515 0.956681 0.371332 0.230483
H51   H     H_    0.722916 0.012127 0.383893 0.233482
C148  C     C_3   0.289407 0.985758 0.659156 -0.385906
C149  C     C_3   0.336868 0.985184 0.699227 -0.356646
C150  C     C_3   0.348555 0.978114 0.643561 -0.851733
H52   H     H_    0.336206 0.947710 0.614511 0.264824
H53   H     H_    0.335848 0.003528 0.601189 0.266268
H54   H     H_    0.383019 0.977828 0.674089 0.255955
H55   H     H_    0.350194 0.015662 0.727115 0.241421
H56   H     H_    0.350590 0.959287 0.740606 0.237399
H57   H     H_    0.277476 0.955409 0.629491 0.230527
H58   H     H_    0.277108 0.010740 0.615945 0.233468
C151  C     C_3   0.210591 0.483345 0.340221 -0.385657
C152  C     C_3   0.163129 0.482327 0.300043 -0.357163
C153  C     C_3   0.151449 0.473890 0.355337 -0.853103
H59   H     H_    0.163960 0.443263 0.383263 0.264969
H60   H     H_    0.163999 0.498782 0.398611 0.266491
H61   H     H_    0.116985 0.473332 0.324749 0.256020
H62   H     H_    0.149631 0.512985 0.273291 0.241874
H63   H     H_    0.149576 0.456908 0.257717 0.237233
H64   H     H_    0.222692 0.452782 0.368943 0.230685
H65   H     H_    0.222722 0.507868 0.384194 0.233393
C154  C     C_3   0.789424 0.478761 0.661297 -0.385386
C155  C     C_3   0.836887 0.477151 0.701675 -0.357589
C156  C     C_3   0.848570 0.466039 0.647240 -0.853368
H66   H     H_    0.835935 0.434925 0.621836 0.264875
H67   H     H_    0.836147 0.489750 0.601973 0.266604
H68   H     H_    0.883035 0.465136 0.677941 0.256064
H69   H     H_    0.850542 0.508186 0.725976 0.242315
H70   H     H_    0.850280 0.452807 0.745987 0.236670
H71   H     H_    0.777167 0.447733 0.634799 0.230943
H72   H     H_    0.777449 0.502194 0.615596 0.233250

loop_
_geom_bond_atom_site_label_1
_geom_bond_atom_site_label_2
_ccdc_geom_bond_type
C18   C70   S    
C48   O28   A    
C67   C101  S    
C17   C69   S    
C55   C59   T    
C108  H20   S    
C2    O2    A    
C28   C52   S    
C14   C18   A    
C19   C71   S    
C146  H48   S    
C106  H18   S    
C133  C137  A    
C136  C140  A    
C147  H47   S    
O1    Zn1   S    
O20   Zn4   S    
C21   I5    S    
C7    C143  A    
O34   Zn6   S    
C23   C43   A    
C4    O4    A    
O33   Zn5   S    
C1    C57   S    
C130  H30   S    
C135  C139  A    
O32   Zn8   S    
C148  H57   S    
C1    O1    A    
C83   C103  S    
C65   C121  T    
C81   C123  T    
C126  H26   S    
C32   C36   A    
C108  C115  A    
C105  C113  A    
C68   O32   A    
C68   C102  S    
C38   C42   A    
C47   O23   A    
C26   C50   S    
C78   O6    A    
C95   C99   S    
C132  C136  A    
C44   H44   S    
C126  C130  A    
O10   Zn9   S    
C127  H27   S    
C112  H24   S    
C29   C33   A    
O9    Zn10  S    
C105  H17   S    
C156  H68   S    
C79   O7    A    
C154  H72   S    
C75   O46   A    
C18   C138  A    
C145  C146  S    
C132  H32   S    
C153  H61   S    
O47   Zn11  S    
O17   Zn3   S    
O48   Zn12  S    
C20   C72   S    
C24   I8    S    
C9    C13   A    
C36   I4    S    
C15   C19   A    
C11   C15   A    
C110  C142  A    
C39   C55   S    
C12   C16   A    
C112  C128  A    
O35   Zn7   S    
C40   C56   S    
C15   H39   S    
C149  H55   S    
C45   O25   A    
C153  H59   S    
C66   C122  T    
C75   O45   A    
O18   Zn3   S    
C2    O18   A    
C155  H70   S    
C8    C12   A    
C6    C142  A    
C1    O17   A    
C40   C44   A    
C150  H52   S    
O45   Zn9   S    
C111  C143  A    
C37   C53   S    
C42   H42   S    
O3    Zn2   S    
C140  C144  A    
C134  C138  A    
C152  H63   S    
C87   C92   A    
O8    Zn12  S    
C117  H16   S    
C37   C41   A    
C64   C80   S    
C129  H29   S    
C118  H15   S    
C130  C134  A    
O2    Zn1   S    
C139  C143  A    
C74   C82   S    
C83   O14   A    
O14   Zn10  S    
C128  C132  A    
O12   Zn11  S    
C73   C81   S    
C73   O42   A    
C14   H38   S    
C27   C51   S    
C4    O20   A    
C25   C49   S    
C23   C27   A    
C25   C29   A    
C80   O8    A    
C148  H58   S    
C98   C104  T    
C79   O11   A    
C30   C34   A    
C115  H14   S    
C27   C31   A    
O28   Zn4   S    
O22   Zn1   S    
C48   O24   A    
C36   C40   A    
C68   O31   A    
C145  H50   S    
C24   C44   A    
C23   I7    S    
C138  C142  A    
C117  C120  A    
C61   C77   S    
O39   Zn8   S    
C85   C89   A    
O36   Zn8   S    
O38   Zn5   S    
C39   C43   A    
C106  C113  A    
C147  H46   S    
C94   H7    S    
C46   O22   A    
C5    C45   S    
C11   H3    S    
C92   C95   A    
C45   O21   A    
C56   C60   T    
C47   O27   A    
C46   O26   A    
O29   Zn5   S    
C7    C47   S    
C145  H51   S    
C35   C39   A    
C8    C48   S    
C107  C114  A    
C5    C9    A    
O42   Zn6   S    
C86   C93   A    
C3    O3    A    
C97   C103  T    
O41   Zn5   S    
C85   C94   A    
C131  C135  A    
C7    C11   A    
C154  C155  S    
C38   C54   S    
C88   C91   A    
C28   C32   A    
C71   O35   A    
C16   C20   A    
C66   C76   S    
C4    C60   S    
C35   I3    S    
C156  H66   S    
C137  C141  A    
O23   Zn2   S    
C51   C63   T    
C8    C144  A    
C85   H9    S    
C155  H69   S    
C134  H34   S    
C94   C96   A    
O16   Zn12  S    
C109  H21   S    
O11   Zn12  S    
C10   H2    S    
C129  C133  A    
O19   Zn4   S    
C84   O15   A    
C74   O44   A    
C99   C101  T    
C100  C102  T    
C110  C126  A    
C30   C148  S    
C128  H28   S    
C93   C96   A    
C13   H37   S    
C152  H62   S    
C150  H53   S    
C106  C117  A    
C52   C64   T    
C84   C104  S    
C29   C145  S    
C21   C41   A    
C105  C118  A    
C87   C90   A    
C111  H23   S    
C107  H19   S    
C149  H56   S    
C147  H45   S    
C88   H12   S    
C113  C121  S    
C41   H41   S    
C67   O29   A    
C125  H25   S    
C131  H31   S    
C24   C28   A    
C33   C37   A    
C82   C124  T    
C54   C58   T    
C109  C125  A    
C21   C25   A    
C53   C57   T    
C6    C46   S    
C77   O5    A    
C34   C38   A    
C71   O39   A    
C62   C78   S    
C67   O30   A    
C146  H49   S    
C5    C141  A    
C70   O38   A    
C88   C90   A    
C74   O43   A    
O25   Zn3   S    
C86   C89   A    
C69   O37   A    
C43   H43   S    
C6    C10   A    
C91   H6    S    
C109  C141  A    
C148  C149  S    
C2    C58   S    
O21   Zn1   S    
O4    Zn2   S    
C63   C79   S    
C87   H11   S    
C119  C123  S    
O13   Zn9   S    
C151  H65   S    
C136  H36   S    
C115  C119  A    
C3    C59   S    
C65   C75   S    
C116  C119  A    
C13   C17   A    
C33   I1    S    
C108  C114  A    
C155  C156  S    
C20   C140  A    
C127  C131  A    
C146  C147  S    
O37   Zn6   S    
C3    O19   A    
C83   O13   A    
C12   H4    S    
O46   Zn10  S    
C153  H60   S    
C111  C127  A    
C110  H22   S    
C49   C61   T    
C133  H33   S    
C22   C42   A    
O40   Zn7   S    
O7    Zn11  S    
C112  C144  A    
C50   C62   T    
C96   C100  S    
C31   C35   A    
C9    H1    S    
C70   O34   A    
C72   O36   A    
C154  H71   S    
O26   Zn3   S    
C76   O47   A    
C69   O33   A    
O30   Zn6   S    
C86   H10   S    
C31   C151  S    
C118  C120  A    
C107  C116  A    
C22   I6    S    
C16   H40   S    
C32   C154  S    
C22   C26   A    
C114  C122  S    
C151  H64   S    
O43   Zn7   S    
C116  H13   S    
O15   Zn11  S    
C149  C150  S    
C135  H35   S    
C91   C95   A    
C19   C139  A    
C125  C129  A    
O6    Zn10  S    
C150  H54   S    
C89   C97   S    
C92   H5    S    
C34   I2    S    
O44   Zn8   S    
O5    Zn9   S    
C152  C153  S    
C156  H67   S    
C93   H8    S    
C17   C137  A    
O27   Zn4   S    
C78   O10   A    
O31   Zn7   S    
C84   O16   A    
C151  C152  S    
C77   O9    A    
C90   C98   S    
C76   O48   A    
O24   Zn2   S    
C73   O41   A    
C120  C124  S    
C10   C14   A    
C26   C30   A    
C72   O40   A    
C80   O12   A    
