data_mof_unit_42393.cif
_audit_creation_date              2012-12-10T20:01:13-0500
_audit_creation_method            fapswitch 2.2
_symmetry_space_group_name_H-M    P1
_symmetry_Int_Tables_number       1
_space_group_crystal_system       triclinic
_cell_length_a                    18.437182
_cell_length_b                    18.437215
_cell_length_c                    39.752389
_cell_angle_alpha                 90.001962
_cell_angle_beta                  89.99814
_cell_angle_gamma                 90.004596
_cell_volume                      13513.0410039

loop_
_atom_site_label
_atom_site_type_symbol
_atom_type_description
_atom_site_fract_x
_atom_site_fract_y
_atom_site_fract_z
_atom_type_partial_charge
C1    C     C_R   0.500000 0.000010 0.908956 0.930440
C2    C     C_R   0.499980 0.999335 0.800468 -0.272322
C3    C     C_R   0.730079 0.676117 0.012653 0.440585
C4    C     C_R   0.324716 0.270614 0.012250 0.448678
C5    C     C_R   0.271017 0.674861 0.011805 0.441711
C6    C     C_R   0.675294 0.729405 0.012267 0.447766
C7    C     C_R   0.729011 0.325111 0.011839 0.441223
C8    C     C_R   0.824189 0.229796 0.512354 0.431841
C9    C     C_R   0.770135 0.824113 0.512421 0.431449
C10   C     C_R   0.175829 0.770185 0.512377 0.432594
C11   C     C_R   0.229864 0.175887 0.512425 0.432700
C12   C     C_R   0.824895 0.770780 0.512067 0.449897
C13   C     C_R   0.500592 0.999891 0.300475 -0.272318
C14   C     C_R   0.770848 0.175033 0.512000 0.450721
C15   C     C_R   0.175104 0.229220 0.512066 0.450816
C16   C     C_R   0.229174 0.824942 0.512025 0.450139
C17   C     C_3   0.147397 0.789824 0.952994 0.695531
C18   C     C_3   0.210386 0.147637 0.952871 0.696473
C19   C     C_3   0.852492 0.210261 0.952906 0.696424
C20   C     C_3   0.789612 0.852437 0.952913 0.696820
C21   C     C_3   0.145540 0.202065 0.956705 0.675668
C22   C     C_3   0.201839 0.854660 0.956857 0.675154
C23   C     C_3   0.854474 0.798034 0.956752 0.676018
C24   C     C_R   0.000003 0.500020 0.300419 -0.277131
C25   C     C_3   0.798026 0.145437 0.956744 0.674703
C26   C     C_3   0.647515 0.289690 0.452937 0.696543
C27   C     C_3   0.710289 0.647492 0.452945 0.695695
C28   C     C_3   0.352495 0.710267 0.452956 0.696020
C29   C     C_3   0.289675 0.352399 0.452875 0.695862
C30   C     C_3   0.645440 0.701910 0.456795 0.675536
C31   C     C_3   0.701948 0.354532 0.456794 0.675436
C32   C     C_3   0.354506 0.297953 0.456707 0.675121
C33   C     C_3   0.298063 0.645427 0.456819 0.675382
C34   C     C_R   0.012871 0.434976 0.817984 0.305584
C35   C     C_1   0.998893 0.500138 0.764333 0.260944
C36   C     C_R   0.565105 0.012716 0.817995 0.305475
C37   C     C_R   0.986383 0.565216 0.818062 0.297545
C38   C     C_R   0.434819 0.986418 0.818050 0.297332
C39   C     C_R   0.513677 0.934782 0.318066 0.297782
C40   C     C_R   0.065309 0.512238 0.317988 0.301517
C41   C     C_R   0.487089 0.065004 0.317992 0.305612
C42   C     C_R   0.934699 0.487788 0.317989 0.301532
C43   C     C_R   0.019306 0.436848 0.853408 0.311644
C44   C     C_R   0.563208 0.019196 0.853416 0.311527
C45   C     C_R   0.980383 0.563265 0.853492 0.318780
C46   C     C_1   0.499990 0.998724 0.764334 0.260759
C47   C     C_R   0.436712 0.980486 0.853484 0.318813
C48   C     C_R   0.519656 0.936733 0.353496 0.318906
C49   C     C_R   0.063482 0.518571 0.353415 0.316800
C50   C     C_R   0.480645 0.063125 0.353415 0.311504
C51   C     C_R   0.936529 0.481435 0.353414 0.316771
C52   C     C_1   0.501157 0.999863 0.264342 0.261103
C53   C     C_1   0.000001 0.500027 0.264253 0.261553
C54   C     C_1   0.501743 0.999482 0.234154 0.208825
C55   C     C_1   0.999999 0.500029 0.234053 0.313320
C56   C     C_1   0.998314 0.500525 0.734144 0.209122
C57   C     C_R   0.000005 0.499999 0.908957 0.930367
C58   C     C_1   0.499639 0.998096 0.734145 0.208925
C59   C     C_R   0.555730 0.959103 0.180194 0.354268
C60   C     C_R   0.041533 0.448506 0.180708 0.343371
C61   C     C_R   0.449797 0.039374 0.181020 0.394121
C62   C     C_R   0.958457 0.551534 0.180707 0.343348
C63   C     C_R   0.050683 0.461199 0.681003 0.394532
C64   C     C_R   0.539010 0.050441 0.681011 0.394469
C65   C     C_R   0.943900 0.540336 0.680187 0.354625
C66   C     C_R   0.459789 0.943701 0.680178 0.354978
C67   C     C_R   0.557522 0.963214 0.144908 0.366809
C68   C     C_R   0.000001 0.499999 0.408949 0.929530
C69   C     C_R   0.037194 0.444495 0.145277 0.274831
C70   C     C_R   0.445515 0.035967 0.145595 0.270286
C71   C     C_R   0.962790 0.555529 0.145276 0.274603
C72   C     C_R   0.054899 0.464631 0.645574 0.270110
C73   C     C_R   0.535494 0.054749 0.645589 0.270741
C74   C     C_R   0.942152 0.536204 0.644901 0.367165
C75   C     C_R   0.463783 0.942081 0.644885 0.366524
C76   C     C_R   0.501125 0.999820 0.127570 -0.422316
C77   C     C_R   0.999994 0.500010 0.127567 -0.376994
C78   C     C_R   0.998910 0.500183 0.627561 -0.421832
C79   C     C_R   0.499993 0.999997 0.408958 0.930514
C80   C     C_R   0.499831 0.998847 0.627560 -0.421814
C81   C     C_R   0.502378 0.998559 0.198039 -0.210086
C82   C     C_R   0.999998 0.500025 0.197953 -0.133120
C83   C     C_R   0.997672 0.501449 0.698028 -0.209616
C84   C     C_R   0.498753 0.997417 0.698029 -0.209709
C85   C     C_R   0.500284 0.999973 0.090694 1.039861
C86   C     C_R   0.999998 0.500003 0.090694 1.044339
C87   C     C_R   0.999727 0.500028 0.590691 1.041155
C88   C     C_R   0.499972 0.999720 0.590691 1.041068
C89   C     C_R   0.637799 0.858000 0.998713 0.855480
C90   C     C_R   0.999898 0.500025 0.871393 -0.230814
C91   C     C_R   0.142056 0.637738 0.998659 0.840812
C92   C     C_R   0.362203 0.142006 0.998709 0.856135
C93   C     C_R   0.857943 0.362261 0.998659 0.840669
C94   C     C_R   0.638945 0.141207 0.999328 0.848143
C95   C     C_R   0.141146 0.360997 0.999378 0.864828
C96   C     C_R   0.361050 0.858798 0.999331 0.848884
C97   C     C_R   0.858858 0.639011 0.999383 0.864696
C98   C     C_R   0.137780 0.357978 0.498692 0.855414
C99   C     C_R   0.642027 0.137774 0.498688 0.855092
C100  C     C_R   0.862218 0.642017 0.498696 0.854618
C101  C     C_R   0.499982 0.999900 0.871393 -0.230885
C102  C     C_R   0.357978 0.862217 0.498693 0.854830
C103  C     C_R   0.138962 0.641189 0.499344 0.849630
C104  C     C_R   0.641180 0.861029 0.499350 0.848766
C105  C     C_R   0.861040 0.358807 0.499341 0.848692
C106  C     C_R   0.358814 0.138962 0.499346 0.849807
C107  C     C_R   0.248807 0.802412 0.976378 -0.221864
C108  C     C_R   0.197658 0.248890 0.976378 -0.223528
C109  C     C_R   0.751133 0.197637 0.976336 -0.221899
C110  C     C_R   0.802368 0.751163 0.976411 -0.223519
C111  C     C_R   0.252446 0.199737 0.974406 -0.240155
C112  C     C_R   0.500100 0.999965 0.371397 -0.230875
C113  C     C_R   0.199642 0.747628 0.974389 -0.238378
C114  C     C_R   0.747567 0.800297 0.974430 -0.240289
C115  C     C_R   0.800312 0.252413 0.974359 -0.238059
C116  C     C_R   0.748927 0.302298 0.476315 -0.221018
C117  C     C_R   0.697603 0.748807 0.476406 -0.221088
C118  C     C_R   0.251078 0.697686 0.476325 -0.221076
C119  C     C_R   0.302364 0.251129 0.476368 -0.221076
C120  C     C_R   0.752390 0.699655 0.474428 -0.240516
C121  C     C_R   0.699755 0.247511 0.474343 -0.240393
C122  C     C_R   0.247590 0.300299 0.474399 -0.240413
C123  C     C_R   0.000004 0.500001 0.371371 -0.231112
C124  C     C_R   0.300250 0.752471 0.474352 -0.240092
C125  C     C_R   0.311029 0.797708 0.996179 -0.217411
C126  C     C_R   0.202155 0.310889 0.996339 -0.219943
C127  C     C_R   0.688957 0.202302 0.996173 -0.217093
C128  C     C_R   0.797861 0.689140 0.996356 -0.220192
C129  C     C_R   0.313500 0.203913 0.994866 -0.238741
C130  C     C_R   0.204029 0.686361 0.994702 -0.235021
C131  C     C_R   0.686505 0.796103 0.994881 -0.239337
C132  C     C_R   0.795967 0.313641 0.994703 -0.235028
C133  C     C_R   0.811016 0.297720 0.496212 -0.217860
C134  C     C_R   0.999435 0.500102 0.800468 -0.272329
C135  C     C_R   0.702220 0.810948 0.496266 -0.217575
C136  C     C_R   0.188992 0.702269 0.496224 -0.218431
C137  C     C_R   0.297765 0.189027 0.496253 -0.217486
C138  C     C_R   0.813546 0.703942 0.494814 -0.239184
C139  C     C_R   0.703995 0.186401 0.494766 -0.239067
C140  C     C_R   0.186448 0.296044 0.494802 -0.238538
C141  C     C_R   0.296016 0.813580 0.494779 -0.239706
C142  C     C_R   0.324340 0.729657 0.012184 0.434208
C143  C     C_R   0.269932 0.323905 0.012640 0.441012
C144  C     C_R   0.675687 0.270319 0.012218 0.433108
H1    H     H_    0.428360 0.727949 0.012003 0.333492
H2    H     H_    0.772176 0.928108 0.512355 0.333846
H3    H     H_    0.071830 0.772155 0.512339 0.333544
H4    H     H_    0.227818 0.071892 0.512389 0.333622
H5    H     H_    0.929129 0.772061 0.512713 0.332716
H6    H     H_    0.772042 0.070797 0.512651 0.332573
H7    H     H_    0.070872 0.227931 0.512715 0.332507
H8    H     H_    0.227952 0.929176 0.512692 0.332586
H9    H     H_    0.091257 0.785628 0.864992 0.406321
H10   H     H_    0.215047 0.092167 0.864796 0.405747
H11   H     H_    0.909135 0.215411 0.864911 0.405801
H12   H     H_    0.272291 0.427869 0.012774 0.331339
H13   H     H_    0.784351 0.908604 0.864867 0.406460
H14   H     H_    0.092764 0.217818 0.867802 0.395794
H15   H     H_    0.217030 0.910541 0.868220 0.396865
H16   H     H_    0.909008 0.782386 0.867992 0.396288
H17   H     H_    0.782557 0.093017 0.867815 0.395526
H18   H     H_    0.590572 0.284535 0.364970 0.406458
H19   H     H_    0.714026 0.592537 0.364862 0.406050
H20   H     H_    0.408671 0.714526 0.364955 0.406198
H21   H     H_    0.285798 0.407181 0.364777 0.405401
H22   H     H_    0.590722 0.717439 0.368055 0.396301
H23   H     H_    0.571670 0.272074 0.012080 0.333938
H24   H     H_    0.716941 0.411511 0.368259 0.396975
H25   H     H_    0.406152 0.282198 0.367723 0.395203
H26   H     H_    0.283109 0.588347 0.368293 0.397135
H27   H     H_    0.085625 0.802918 0.993117 0.320265
H28   H     H_    0.196985 0.085629 0.992894 0.321427
H29   H     H_    0.914338 0.197008 0.992992 0.320096
H30   H     H_    0.802953 0.914423 0.992950 0.321097
H31   H     H_    0.103452 0.172357 0.000379 0.316348
H32   H     H_    0.172372 0.896405 0.000635 0.315383
H33   H     H_    0.896518 0.827736 0.000435 0.316155
H34   H     H_    0.727705 0.572155 0.012774 0.331262
H35   H     H_    0.827577 0.103515 0.000471 0.315002
H36   H     H_    0.585720 0.302803 0.493053 0.320996
H37   H     H_    0.697069 0.585548 0.493002 0.321012
H38   H     H_    0.414279 0.697201 0.493076 0.320971
H39   H     H_    0.303013 0.414405 0.492905 0.321379
H40   H     H_    0.603527 0.672229 0.500507 0.314948
H41   H     H_    0.672475 0.396263 0.500576 0.315044
H42   H     H_    0.396544 0.327698 0.500384 0.315493
H43   H     H_    0.327519 0.603753 0.500613 0.315171
H44   H     H_    0.011853 0.236926 0.808052 0.397712
H45   H     H_    0.428928 0.272145 0.012992 0.332566
H46   H     H_    0.763177 0.011642 0.808099 0.397882
H47   H     H_    0.989411 0.763189 0.808477 0.399845
H48   H     H_    0.236859 0.989698 0.808377 0.399771
H49   H     H_    0.510706 0.736811 0.308475 0.399484
H50   H     H_    0.263367 0.508045 0.308188 0.397693
H51   H     H_    0.487754 0.263063 0.308076 0.397493
H52   H     H_    0.736640 0.491981 0.308202 0.397839
H53   H     H_    0.082409 0.353776 0.857052 0.389258
H54   H     H_    0.646346 0.082221 0.857067 0.389173
H55   H     H_    0.917775 0.646734 0.857303 0.390360
H56   H     H_    0.271963 0.570595 0.012285 0.334560
H57   H     H_    0.353070 0.918089 0.857303 0.390746
H58   H     H_    0.582273 0.853267 0.357310 0.390623
H59   H     H_    0.147419 0.580502 0.357126 0.389596
H60   H     H_    0.417443 0.146119 0.357063 0.389241
H61   H     H_    0.852601 0.419488 0.357119 0.389429
H62   H     H_    0.597592 0.913874 0.220615 0.371958
H63   H     H_    0.127886 0.389809 0.185828 0.402763
H64   H     H_    0.390289 0.125037 0.186723 0.398797
H65   H     H_    0.872093 0.610213 0.185831 0.403579
H66   H     H_    0.111156 0.376211 0.686695 0.399176
H67   H     H_    0.571083 0.727855 0.013014 0.332672
H68   H     H_    0.624054 0.110852 0.686698 0.398894
H69   H     H_    0.901549 0.585102 0.720612 0.371353
H70   H     H_    0.415913 0.900636 0.720662 0.371117
H71   H     H_    0.740054 0.885772 0.133716 0.387739
H72   H     H_    0.100327 0.256642 0.136399 0.395390
H73   H     H_    0.256853 0.097277 0.137520 0.395461
H74   H     H_    0.899481 0.743321 0.136407 0.395384
H75   H     H_    0.244344 0.405886 0.637324 0.398561
H76   H     H_    0.594354 0.244182 0.637417 0.397705
H77   H     H_    0.758744 0.611442 0.633633 0.390204
H78   H     H_    0.728018 0.429372 0.012355 0.334757
H79   H     H_    0.388251 0.758790 0.633541 0.391169
H80   H     H_    0.928189 0.227852 0.512305 0.333806
O1    O     O_3   0.500000 0.000000 0.000020 -0.575998
O2    O     O_R   0.500000 0.939230 0.425200 -0.554887
O3    O     O_2   0.396388 0.825760 0.415490 -0.218308
O4    O     O_3   0.418973 0.700426 0.388504 -0.399911
O5    O     O_2   0.238843 0.291174 0.394592 -0.269962
O6    O     O_2   0.174022 0.396254 0.415499 -0.216581
O7    O     O_3   0.299223 0.418431 0.388318 -0.402096
O8    O     O_2   0.536818 0.777102 0.428407 -0.099480
O9    O     O_2   0.659270 0.806927 0.409455 -0.300177
O10   O     O_3   0.598796 0.687105 0.388253 -0.447692
O11   O     O_2   0.776908 0.463348 0.428442 -0.100465
O12   O     O_2   0.806785 0.341056 0.409299 -0.299421
O13   O     O_R   0.060770 0.500000 0.425200 -0.554821
O14   O     O_3   0.686772 0.401433 0.388316 -0.446007
O15   O     O_2   0.463038 0.222638 0.428275 -0.097860
O16   O     O_2   0.340524 0.192805 0.409433 -0.301337
O17   O     O_3   0.400997 0.312557 0.388120 -0.447216
O18   O     O_2   0.223126 0.536565 0.428480 -0.100312
O19   O     O_2   0.193248 0.658837 0.409314 -0.299252
O20   O     O_3   0.313270 0.598440 0.388351 -0.446798
O21   O     O_3   0.079546 0.802361 0.968303 -0.626076
O22   O     O_3   0.197699 0.079701 0.968073 -0.625666
O23   O     O_3   0.920367 0.197638 0.968175 -0.625922
O24   O     O_R   0.500000 0.060770 0.425200 -0.554885
O25   O     O_3   0.802248 0.920369 0.968129 -0.625889
O26   O     O_3   0.088306 0.174136 0.976420 -0.659621
O27   O     O_3   0.174032 0.911743 0.976702 -0.660557
O28   O     O_3   0.911681 0.825979 0.976479 -0.659627
O29   O     O_3   0.825852 0.088267 0.976526 -0.660281
O30   O     O_3   0.579655 0.302238 0.468237 -0.626043
O31   O     O_3   0.697671 0.579581 0.468182 -0.625879
O32   O     O_3   0.420349 0.697732 0.468260 -0.626029
O33   O     O_3   0.302366 0.420328 0.468083 -0.625647
O34   O     O_3   0.588274 0.674021 0.476564 -0.660215
O35   O     O_R   0.500000 0.939250 0.074840 -0.581583
O36   O     O_3   0.674127 0.411603 0.476642 -0.660660
O37   O     O_3   0.411737 0.325851 0.476433 -0.659838
O38   O     O_3   0.325873 0.588381 0.476683 -0.660723
O39   O     O_2   0.970949 0.349190 0.766060 -0.249113
O40   O     O_2   0.097842 0.342664 0.784093 -0.236422
O41   O     O_3   0.999451 0.280881 0.821172 -0.533566
O42   O     O_2   0.650916 0.970544 0.766129 -0.247601
O43   O     O_2   0.657480 0.097515 0.784044 -0.238009
O44   O     O_3   0.719212 0.999281 0.821221 -0.532751
O45   O     O_2   0.026571 0.650896 0.765718 -0.254527
O46   O     O_R   0.060750 0.500000 0.074840 -0.583658
O47   O     O_2   0.900809 0.658904 0.785320 -0.275471
O48   O     O_3   0.002054 0.718921 0.821318 -0.523229
O49   O     O_2   0.349289 0.026636 0.765661 -0.255547
O50   O     O_2   0.341065 0.900917 0.785295 -0.273289
O51   O     O_3   0.281118 0.002290 0.821237 -0.524228
O52   O     O_2   0.473616 0.849091 0.265699 -0.256771
O53   O     O_2   0.599336 0.841105 0.285358 -0.273940
O54   O     O_3   0.498021 0.781078 0.321309 -0.523737
O55   O     O_2   0.150584 0.468508 0.266251 -0.230989
O56   O     O_2   0.159034 0.595477 0.284008 -0.259408
O57   O     O_R   0.500000 0.060750 0.074840 -0.583927
O58   O     O_3   0.219195 0.496524 0.321325 -0.530295
O59   O     O_2   0.528989 0.150856 0.266092 -0.248967
O60   O     O_2   0.402046 0.157183 0.284068 -0.236507
O61   O     O_3   0.500253 0.219131 0.321192 -0.533167
O62   O     O_2   0.849418 0.531544 0.266263 -0.229742
O63   O     O_2   0.840971 0.404566 0.284002 -0.261244
O64   O     O_3   0.780815 0.503499 0.321337 -0.529793
O65   O     O_3   0.045001 0.377882 0.870988 -0.613006
O66   O     O_3   0.622200 0.044831 0.871000 -0.612697
O67   O     O_3   0.955066 0.622274 0.871168 -0.613316
O68   O     O_R   0.939250 0.500000 0.074840 -0.583897
O69   O     O_3   0.377615 0.955349 0.871157 -0.613299
O70   O     O_3   0.544982 0.877732 0.371174 -0.613274
O71   O     O_3   0.122827 0.543327 0.371016 -0.612395
O72   O     O_3   0.454887 0.122065 0.370996 -0.612774
O73   O     O_3   0.877189 0.456658 0.371014 -0.612462
O74   O     O_3   0.607235 0.916711 0.196204 -0.615080
O75   O     O_3   0.084488 0.402125 0.199335 -0.643841
O76   O     O_3   0.402847 0.081242 0.199904 -0.633998
O77   O     O_3   0.915500 0.597918 0.199334 -0.642632
O78   O     O_3   0.098096 0.419853 0.699882 -0.634123
O79   O     O_R   1.000000 0.439250 0.574840 -0.584185
O80   O     O_3   0.580431 0.097790 0.699897 -0.634866
O81   O     O_3   0.891950 0.582181 0.696199 -0.615691
O82   O     O_3   0.417955 0.891716 0.696176 -0.614533
O83   O     O_2   0.607260 0.847934 0.111046 -0.205616
O84   O     O_2   0.651841 0.966765 0.092750 -0.350938
O85   O     O_3   0.704370 0.912677 0.147551 -0.429870
O86   O     O_2   0.030241 0.349889 0.092980 -0.326963
O87   O     O_2   0.150617 0.384580 0.113609 -0.234854
O88   O     O_3   0.073807 0.294477 0.149117 -0.485371
O89   O     O_2   0.383907 0.149273 0.114553 -0.237056
O90   O     O_R   0.560750 0.000000 0.574840 -0.583990
O91   O     O_2   0.350220 0.028921 0.093549 -0.322678
O92   O     O_3   0.295104 0.070846 0.150007 -0.484195
O93   O     O_2   0.969721 0.650119 0.092975 -0.326953
O94   O     O_2   0.849353 0.615386 0.113601 -0.234295
O95   O     O_3   0.926112 0.705539 0.149106 -0.483414
O96   O     O_2   0.117659 0.351893 0.614584 -0.237813
O97   O     O_2   0.149952 0.472519 0.593453 -0.323805
O98   O     O_3   0.205673 0.431452 0.649919 -0.483176
O99   O     O_2   0.648226 0.117523 0.614594 -0.238642
O100  O     O_2   0.527589 0.149927 0.593521 -0.323739
O101  O     O_R   1.000000 0.560750 0.574840 -0.581427
O102  O     O_3   0.568784 0.205495 0.650002 -0.484757
O103  O     O_2   0.891274 0.651002 0.611065 -0.207418
O104  O     O_2   0.847970 0.531746 0.592708 -0.351821
O105  O     O_3   0.794802 0.585174 0.647518 -0.429961
O106  O     O_2   0.348875 0.891423 0.611053 -0.206636
O107  O     O_2   0.468048 0.847998 0.592651 -0.351903
O108  O     O_3   0.414587 0.794778 0.647442 -0.428362
O109  O     O_3   0.000000 0.500000 0.000020 -0.575979
O110  O     O_R   0.439250 0.000000 0.574840 -0.581584
O111  O     O_R   0.646140 0.914530 0.980400 -0.576172
O112  O     O_R   0.085470 0.646140 0.980400 -0.573236
O113  O     O_R   0.353860 0.085470 0.980400 -0.576102
O114  O     O_R   0.914530 0.353860 0.980400 -0.573174
O115  O     O_R   0.646140 0.085470 0.980400 -0.578099
O116  O     O_R   0.085470 0.353860 0.980400 -0.581633
O117  O     O_R   0.353860 0.914530 0.980400 -0.578309
O118  O     O_R   0.914530 0.646140 0.980400 -0.581486
O119  O     O_R   0.146140 0.414530 0.480400 -0.576035
O120  O     O_3   1.000000 0.500000 0.500020 -0.575994
O121  O     O_R   0.585470 0.146140 0.480400 -0.576017
O122  O     O_R   0.853860 0.585470 0.480400 -0.576041
O123  O     O_R   0.414530 0.853860 0.480400 -0.576079
O124  O     O_R   0.146140 0.585470 0.480400 -0.578511
O125  O     O_R   0.585470 0.853860 0.480400 -0.578069
O126  O     O_R   0.853860 0.414530 0.480400 -0.578198
O127  O     O_R   0.414530 0.146140 0.480400 -0.578499
O128  O     O_R   0.414550 0.146130 0.019630 -0.616227
O129  O     O_R   0.853870 0.414550 0.019630 -0.634970
O130  O     O_R   0.585450 0.853870 0.019630 -0.615984
O131  O     O_3   0.500000 0.000000 0.500020 -0.576041
O132  O     O_R   0.146130 0.585450 0.019630 -0.634820
O133  O     O_R   0.414550 0.853870 0.019630 -0.635246
O134  O     O_R   0.853870 0.585450 0.019630 -0.617535
O135  O     O_R   0.585450 0.146130 0.019630 -0.637066
O136  O     O_R   0.146130 0.414550 0.019630 -0.617504
O137  O     O_R   0.914550 0.646130 0.519630 -0.616283
O138  O     O_R   0.353870 0.914550 0.519630 -0.616162
O139  O     O_R   0.085450 0.353870 0.519630 -0.616535
O140  O     O_R   0.646130 0.085450 0.519630 -0.616524
O141  O     O_R   0.914550 0.353870 0.519630 -0.636703
O142  O     O_R   0.439230 0.000000 0.925200 -0.554840
O143  O     O_R   0.353870 0.085450 0.519630 -0.634991
O144  O     O_R   0.085450 0.646130 0.519630 -0.634880
O145  O     O_R   0.646130 0.914550 0.519630 -0.636729
O146  O     O_3   0.389165 0.713685 0.027729 -0.633134
O147  O     O_3   0.285617 0.388407 0.028531 -0.623121
O148  O     O_3   0.610897 0.286262 0.027803 -0.634933
O149  O     O_3   0.714393 0.611611 0.028539 -0.622722
O150  O     O_3   0.389020 0.287063 0.028185 -0.624695
O151  O     O_3   0.287740 0.610266 0.027425 -0.634761
O152  O     O_3   0.610994 0.712959 0.028208 -0.623103
O153  O     O_R   0.000000 0.439230 0.925200 -0.554887
O154  O     O_3   0.712320 0.389674 0.027497 -0.635212
O155  O     O_3   0.888883 0.213939 0.528039 -0.633295
O156  O     O_3   0.785997 0.888808 0.528108 -0.632685
O157  O     O_3   0.111144 0.786037 0.528073 -0.630901
O158  O     O_3   0.214014 0.111216 0.528133 -0.631404
O159  O     O_3   0.889313 0.787336 0.527882 -0.624481
O160  O     O_3   0.787399 0.110607 0.527806 -0.626123
O161  O     O_3   0.110688 0.212675 0.527886 -0.625675
O162  O     O_3   0.212641 0.889354 0.527850 -0.624135
O163  O     O_2   0.208294 0.739472 0.894539 -0.267271
O164  O     O_R   0.560770 0.000000 0.925200 -0.554778
O165  O     O_2   0.103464 0.674345 0.915518 -0.217450
O166  O     O_3   0.080928 0.799693 0.888544 -0.399860
O167  O     O_2   0.261223 0.208867 0.894588 -0.269247
O168  O     O_2   0.326068 0.103808 0.915505 -0.217988
O169  O     O_3   0.200891 0.081597 0.888313 -0.401373
O170  O     O_2   0.791520 0.260841 0.894514 -0.270356
O171  O     O_2   0.896436 0.325828 0.915504 -0.218713
O172  O     O_3   0.918827 0.200564 0.888418 -0.399560
O173  O     O_2   0.738864 0.791237 0.894598 -0.269113
O174  O     O_2   0.673940 0.896232 0.915536 -0.219669
O175  O     O_R   0.000000 0.560770 0.925200 -0.554931
O176  O     O_3   0.799122 0.918533 0.888364 -0.398565
O177  O     O_2   0.036988 0.277314 0.928270 -0.098604
O178  O     O_2   0.159495 0.307227 0.909432 -0.301397
O179  O     O_3   0.099122 0.187436 0.888117 -0.446278
O180  O     O_2   0.276913 0.963421 0.928489 -0.099966
O181  O     O_2   0.306688 0.841045 0.909418 -0.299867
O182  O     O_3   0.186781 0.901535 0.888361 -0.446438
O183  O     O_2   0.963044 0.722832 0.928336 -0.099722
O184  O     O_2   0.840559 0.692932 0.909455 -0.301289
O185  O     O_3   0.900939 0.812745 0.888183 -0.445852
O186  O     O_R   0.939230 0.500000 0.425200 -0.554761
O187  O     O_2   0.722818 0.036808 0.928317 -0.098166
O188  O     O_2   0.693031 0.159268 0.909391 -0.301163
O189  O     O_3   0.812866 0.098803 0.888191 -0.445175
O190  O     O_2   0.708431 0.239325 0.394490 -0.268135
O191  O     O_2   0.603639 0.174157 0.415497 -0.220015
O192  O     O_3   0.581040 0.299454 0.388482 -0.397925
O193  O     O_2   0.760948 0.708646 0.394609 -0.267962
O194  O     O_2   0.825895 0.603660 0.415521 -0.216816
O195  O     O_3   0.700648 0.581336 0.388414 -0.401294
O196  O     O_2   0.291579 0.760588 0.394508 -0.267124
S1    S     S_3+6 0.136625 0.748226 0.912037 0.173524
S2    S     S_3+6 0.752056 0.636889 0.412015 0.173030
S3    S     S_3+6 0.363256 0.751866 0.412002 0.173203
S4    S     S_3+6 0.247826 0.362960 0.411965 0.171680
S5    S     S_3+6 0.609802 0.746200 0.420010 0.185500
S6    S     S_3+6 0.746050 0.390367 0.419992 0.185597
S7    S     S_3+6 0.390039 0.253555 0.419919 0.185806
S8    S     S_3+6 0.253981 0.609542 0.420021 0.185577
S9    S     S_3+6 0.020877 0.350904 0.795945 0.078490
S10   S     S_3+6 0.649205 0.020605 0.795968 0.078667
S11   S     S_3+6 0.978308 0.649486 0.796189 0.058445
S12   S     S_3+6 0.252257 0.137085 0.911964 0.171603
S13   S     S_3+6 0.350572 0.978419 0.796148 0.058617
S14   S     S_3+6 0.521811 0.850514 0.296192 0.057850
S15   S     S_3+6 0.149573 0.518769 0.296019 0.071549
S16   S     S_3+6 0.478998 0.149068 0.295955 0.078417
S17   S     S_3+6 0.850433 0.481268 0.296023 0.071619
S18   S     S_3+6 0.630954 0.921736 0.122766 0.115354
S19   S     S_3+6 0.073970 0.367664 0.123825 0.065223
S20   S     S_3+6 0.367960 0.072266 0.124516 0.067085
S21   S     S_3+6 0.925990 0.632340 0.123819 0.065921
S22   S     S_3+6 0.132778 0.429114 0.624470 0.067144
S23   S     S_3+6 0.863214 0.251985 0.911976 0.171202
S24   S     S_3+6 0.571031 0.132658 0.624513 0.066227
S25   S     S_3+6 0.868335 0.576939 0.622748 0.114281
S26   S     S_3+6 0.422913 0.868359 0.622709 0.115242
S27   S     S_3+6 0.747771 0.863000 0.911998 0.171687
S28   S     S_3+6 0.110012 0.246451 0.919916 0.185479
S29   S     S_3+6 0.245992 0.890453 0.920063 0.185806
S30   S     S_3+6 0.890032 0.753694 0.919964 0.185140
S31   S     S_3+6 0.753752 0.109797 0.919944 0.186353
S32   S     S_3+6 0.636761 0.248051 0.411990 0.172311
Zn1   Zn    Zn3+2 0.500000 0.913220 0.028040 1.088167
Zn2   Zn    Zn3+2 0.000000 0.586730 0.971990 1.119586
Zn3   Zn    Zn3+2 0.413270 0.000000 0.971990 1.119813
Zn4   Zn    Zn3+2 1.000000 0.413270 0.971990 1.119584
Zn5   Zn    Zn3+2 0.086730 0.500000 0.471990 1.119832
Zn6   Zn    Zn3+2 0.500000 0.086730 0.471990 1.119855
Zn7   Zn    Zn3+2 0.913270 0.500000 0.471990 1.119214
Zn8   Zn    Zn3+2 0.500000 0.913270 0.471990 1.119320
Zn9   Zn    Zn3+2 0.086780 0.500000 0.028040 1.086906
Zn10  Zn    Zn3+2 0.500000 0.086780 0.028040 1.084610
Zn11  Zn    Zn3+2 0.913220 0.500000 0.028040 1.086581
Zn12  Zn    Zn3+2 0.000000 0.413220 0.528040 1.084854
Zn13  Zn    Zn3+2 0.586780 0.000000 0.528040 1.084874
Zn14  Zn    Zn3+2 0.000000 0.586780 0.528040 1.088701
Zn15  Zn    Zn3+2 0.413220 0.000000 0.528040 1.088653
Zn16  Zn    Zn3+2 0.586730 0.000000 0.971990 1.119208

loop_
_geom_bond_atom_site_label_1
_geom_bond_atom_site_label_2
_ccdc_geom_bond_type
O92   S20   S    
C104  C135  S    
C18   C21   S    
C51   C123  A    
C51   O73   S    
O54   S14   S    
O140  Zn13  S    
C48   O70   S    
C94   O115  A    
C89   O111  A    
H55   O67   S    
H17   O189  S    
C94   O135  A    
C1    O142  A    
C126  C143  A    
C93   O114  A    
C105  O141  A    
C107  C113  A    
C11   C15   A    
C109  C127  A    
H2    O156  S    
O61   S16   S    
H47   O48   S    
C102  C141  S    
O120  Zn5   S    
H34   O149  S    
O193  S2    D    
C89   O130  A    
C61   O76   S    
C85   O57   A    
H9    O166  S    
O178  S28   D    
C102  O123  A    
O14   S6    S    
C35   C134  S    
O191  S32   D    
O10   S5    S    
C116  C121  A    
C27   S2    S    
C104  O145  A    
O195  S2    S    
C18   C111  S    
O169  S12   S    
H31   O26   S    
C116  C133  A    
C33   O38   S    
C29   O33   S    
C38   C47   A    
C119  C137  A    
O114  Zn4   S    
C23   O28   S    
O165  S1    D    
O128  Zn10  S    
C1    O164  A    
C29   C122  S    
O13   Zn5   S    
C118  C124  A    
O129  Zn11  S    
C45   C90   A    
C7    C132  A    
O94   S21   D    
C5    C130  A    
C28   C33   S    
C68   O186  A    
H73   O92   S    
C36   C44   A    
C120  C138  A    
H64   O76   S    
C37   C45   A    
C117  C135  A    
C1    C101  S    
O104  S25   D    
C9    O156  S    
C118  C136  A    
O99   S24   D    
C56   C83   S    
C105  C133  S    
C23   C110  S    
C28   S3    S    
C3    C128  A    
C62   O77   S    
O196  S3    D    
C106  O127  A    
O8    S5    D    
H18   O192  S    
C44   C101  A    
C22   S29   S    
O1    Zn16  S    
C97   O134  A    
C89   C131  S    
C108  C111  A    
O47   S11   D    
C80   C88   S    
C10   C16   A    
C96   O133  A    
C66   O82   S    
O9    S5    D    
C95   O116  A    
O39   S9    D    
C49   O71   S    
O120  Zn7   S    
O143  Zn15  S    
C142  O146  S    
O137  Zn14  S    
H7    O161  S    
H57   O69   S    
H21   O7    S    
H59   O71   S    
H80   O155  S    
C108  C126  A    
O110  Zn15  S    
C54   C81   S    
C98   O139  A    
C99   O121  A    
C110  C128  A    
C78   C87   S    
O131  Zn8   S    
C40   S15   S    
C87   O79   A    
C69   C77   A    
C15   O161  S    
C3    C6    A    
O186  Zn7   S    
C17   C113  S    
O7    S4    S    
O182  S29   S    
C94   C127  S    
O116  Zn4   S    
C72   S22   S    
H27   O21   S    
C32   S7    S    
C77   C86   S    
H72   O88   S    
C66   C75   A    
C22   C107  S    
C95   O136  A    
O125  Zn8   S    
C72   C78   A    
C59   C67   A    
O106  S26   D    
H13   O176  S    
O117  Zn3   S    
C64   C84   A    
O185  S30   S    
C64   C73   A    
C31   O36   S    
C26   C121  S    
C93   C132  S    
H77   O105  S    
O134  Zn11  S    
C110  C114  A    
O55   S15   D    
C25   C109  S    
C127  C144  A    
C33   C118  S    
O120  Zn14  S    
C46   C58   T    
C99   C139  S    
O120  Zn12  S    
C97   C128  S    
O171  S23   D    
C68   C123  S    
O93   S21   D    
C102  O138  A    
C143  O147  S    
C115  C132  A    
O111  Zn16  S    
C113  C130  A    
O187  S31   D    
C107  C125  A    
H69   O81   S    
C21   O26   S    
C25   O29   S    
O40   S9    D    
C106  C137  S    
H24   O14   S    
H33   O28   S    
H40   O34   S    
C65   C74   A    
O68   Zn11  S    
H65   O77   S    
C103  C136  S    
C59   O74   S    
C2    C38   A    
H41   O36   S    
H11   O172  S    
C20   C23   S    
C17   O21   S    
O179  S28   S    
C26   S32   S    
O56   S15   D    
C45   O67   S    
O166  S1    S    
C12   O159  S    
O136  Zn9   S    
C85   O35   A    
O20   S8    S    
C92   O113  A    
C9    C135  A    
C48   C112  A    
H53   O65   S    
O98   S22   S    
O131  Zn6   S    
C12   C138  A    
C124  C141  A    
C32   C119  S    
H16   O185  S    
C71   C77   A    
O44   S10   S    
O45   S11   D    
C35   C56   T    
C30   O34   S    
C96   O117  A    
H25   O17   S    
O11   S6    D    
H71   O85   S    
C28   C124  S    
H30   O25   S    
H4    O158  S    
H12   O147  S    
C10   O157  S    
O184  S30   D    
H44   O41   S    
C121  C139  A    
C91   O112  A    
C122  C140  A    
H14   O179  S    
C61   C81   A    
C95   C126  S    
C4    O150  S    
C5    C142  A    
C60   C69   A    
C43   O65   S    
O2    Zn8   S    
O35   Zn1   S    
C62   C71   A    
H60   O72   S    
C42   S17   S    
O91   S20   D    
C47   O69   S    
C9    C12   A    
O16   S7    D    
C57   O175  A    
H35   O29   S    
C75   S26   S    
C63   O78   S    
C34   S9    S    
O86   S19   D    
C17   S1    S    
O126  Zn7   S    
H46   O44   S    
H79   O108  S    
H52   O64   S    
O96   S22   D    
O124  Zn5   S    
C103  O144  A    
C61   C70   A    
O42   S10   D    
O168  S12   D    
C67   S18   S    
O1    Zn10  S    
C24   C42   A    
C114  C131  A    
O135  Zn10  S    
C103  O124  A    
C13   C41   A    
O131  Zn15  S    
C27   C120  S    
O127  Zn6   S    
C79   C112  S    
O183  S30   D    
O84   S18   D    
C29   C32   S    
C68   O13   A    
O90   Zn13  S    
C64   O80   S    
C7    O154  S    
C49   C123  A    
O1    Zn1   S    
H58   O70   S    
H63   O75   S    
C76   C85   S    
C30   C117  S    
C111  C129  A    
H19   O195  S    
O50   S13   D    
O173  S27   D    
C8    O155  S    
C79   O2    A    
O123  Zn8   S    
O83   S18   D    
O121  Zn6   S    
C62   C82   A    
H32   O27   S    
H76   O102  S    
C43   C90   A    
C34   C43   A    
C57   O153  A    
C28   O32   S    
O64   S17   S    
O107  S26   D    
O59   S16   D    
H61   O73   S    
C57   C90   S    
C117  C120  A    
H36   O30   S    
O6    S4    D    
C24   C53   S    
C60   O75   S    
C63   C83   A    
C18   S12   S    
O141  Zn12  S    
H22   O10   S    
O109  Zn9   S    
H5    O159  S    
C13   C52   S    
C41   S16   S    
H28   O22   S    
O132  Zn9   S    
O188  S31   D    
C88   O90   A    
H51   O61   S    
O60   S16   D    
C100  C138  S    
O118  Zn2   S    
C144  O148  S    
O48   S11   S    
O176  S27   S    
O177  S28   D    
O57   Zn10  S    
C41   C50   A    
H70   O82   S    
C14   O160  S    
C15   C140  A    
O131  Zn13  S    
O49   S13   D    
H49   O54   S    
O97   S22   D    
O130  Zn1   S    
O189  S31   S    
O172  S23   S    
C59   C81   A    
O142  Zn3   S    
C6    C131  A    
H67   O152  S    
C4    C129  A    
C91   O132  A    
O24   Zn6   S    
O1    Zn3   S    
H43   O38   S    
H6    O160  S    
C17   C22   S    
H10   O169  S    
O167  S12   D    
C92   C129  S    
C11   C137  A    
O145  Zn13  S    
C22   O27   S    
C20   C114  S    
C33   S8    S    
C70   S20   S    
C20   O25   S    
O138  Zn15  S    
H54   O66   S    
C16   C141  A    
H74   O95   S    
O108  S26   S    
C104  O125  A    
C63   C72   A    
C74   C78   A    
H75   O98   S    
C34   C134  A    
C21   S28   S    
C27   O31   S    
O89   S20   D    
C40   C49   A    
C74   S25   S    
C88   O110  A    
C39   C48   A    
C30   S5    S    
C47   C101  A    
C37   S11   S    
C73   S24   S    
C4    C143  A    
C19   O23   S    
C91   C130  S    
O58   S15   S    
C2    C46   S    
C44   O66   S    
O79   Zn12  S    
C69   S19   S    
H56   O151  S    
H26   O20   S    
C10   C136  A    
O3    S3    D    
O109  Zn11  S    
H48   O51   S    
O133  Zn1   S    
C65   C83   A    
C93   O129  A    
C39   S14   S    
H23   O148  S    
C6    O152  S    
H15   O182  S    
H37   O31   S    
O181  S29   D    
O194  S2    D    
C60   C82   A    
O95   S21   S    
O5    S4    D    
O41   S9    S    
C31   S6    S    
O109  Zn2   S    
O51   S13   S    
O115  Zn16  S    
O102  S24   S    
C42   C51   A    
C106  O143  A    
H29   O23   S    
C26   C31   S    
C27   C30   S    
O170  S23   D    
C32   O37   S    
C23   S30   S    
C7    C144  A    
C52   C54   T    
C53   C55   T    
H42   O37   S    
C86   O68   A    
C105  O126  A    
C21   C108  S    
C86   O46   A    
C26   O30   S    
C87   O101  A    
O52   S14   D    
H39   O33   S    
O190  S32   D    
C98   C140  S    
O19   S8    D    
O144  Zn14  S    
O153  Zn4   S    
C36   S10   S    
C58   C84   S    
C18   O22   S    
C19   C115  S    
C125  C142  A    
O112  Zn2   S    
C11   O158  S    
C20   S27   S    
C50   C112  A    
C100  O137  A    
C100  O122  A    
H20   O4    S    
O103  S25   D    
C55   C82   S    
C99   O140  A    
O100  S24   D    
O139  Zn12  S    
C65   O81   S    
C29   S4    S    
O53   S14   D    
C5    O151  S    
H1    O146  S    
O15   S7    D    
O180  S29   D    
C70   C76   A    
O62   S17   D    
H8    O162  S    
C31   C116  S    
H62   O74   S    
H50   O58   S    
O122  Zn7   S    
C75   C80   A    
C119  C122  A    
C2    C36   A    
O175  Zn2   S    
O43   S10   D    
C8    C14   A    
C3    O149  S    
C19   S23   S    
C8    C133  A    
C37   C134  A    
H3    O157  S    
H66   O78   S    
O113  Zn3   S    
C98   O119  A    
C67   C76   A    
O88   S19   S    
O12   S6    D    
C16   O162  S    
O192  S32   S    
C79   O24   A    
O17   S7    S    
C38   S13   S    
O85   S18   S    
O18   S8    D    
C71   S21   S    
O4    S3    S    
H78   O154  S    
C24   C40   A    
C73   C80   A    
C96   C125  S    
C97   O118  A    
C50   O72   S    
C19   C25   S    
O109  Zn4   S    
O105  S25   S    
O164  Zn16  S    
C13   C39   A    
C109  C115  A    
C66   C84   A    
C25   S31   S    
C14   C139  A    
O163  S1    D    
C92   O128  A    
O46   Zn9   S    
O87   S19   D    
O101  Zn14  S    
H45   O150  S    
H68   O80   S    
H38   O32   S    
O119  Zn5   S    
O174  S27   D    
O63   S17   D    
