data_mof_unit_65127.cif
_audit_creation_date              2012-12-10T18:23:23-0500
_audit_creation_method            fapswitch 2.2
_symmetry_space_group_name_H-M    P1
_symmetry_Int_Tables_number       1
_space_group_crystal_system       triclinic
_cell_length_a                    23.395943
_cell_length_b                    23.39582
_cell_length_c                    60.352041
_cell_angle_alpha                 89.999984
_cell_angle_beta                  89.999989
_cell_angle_gamma                 90.015694
_cell_volume                      33034.7307517

loop_
_atom_site_label
_atom_site_type_symbol
_atom_type_description
_atom_site_fract_x
_atom_site_fract_y
_atom_site_fract_z
_atom_type_partial_charge
C1    C     C_R   0.500000 0.000000 0.189140 0.495517
C2    C     C_R   0.500000 0.000000 0.547173 -0.027137
C3    C     C_R   0.895484 0.395483 0.750000 0.494936
C4    C     C_R   0.395481 0.104519 0.250000 0.501281
C5    C     C_R   0.604519 0.895481 0.750000 0.501271
C6    C     C_R   0.895484 0.395483 0.250000 0.494953
C7    C     C_R   0.104516 0.604517 0.750000 0.494936
C8    C     C_R   0.604516 0.104516 0.750000 0.494942
C9    C     C_R   0.395484 0.895484 0.250000 0.494950
C10   C     C_R   0.104519 0.395481 0.750000 0.501262
C11   C     C_R   0.895481 0.604519 0.250000 0.501284
C12   C     C_R   0.395484 0.895483 0.750000 0.494943
C13   C     C_R   0.999999 0.500000 0.452833 -0.027146
C14   C     C_R   0.604516 0.104516 0.250000 0.494950
C15   C     C_R   0.895481 0.604519 0.750000 0.501262
C16   C     C_R   0.104519 0.395481 0.250000 0.501284
C17   C     C_1   0.350433 0.850433 0.250000 -0.023120
C18   C     C_1   0.649567 0.149567 0.750000 -0.023110
C19   C     C_1   0.149571 0.350428 0.250000 -0.011823
C20   C     C_1   0.850429 0.649572 0.750000 -0.011805
C21   C     C_1   0.649567 0.149567 0.250000 -0.023120
C22   C     C_1   0.350433 0.850433 0.750000 -0.023110
C23   C     C_1   0.850429 0.649572 0.250000 -0.011823
C24   C     C_R   0.000000 0.500000 0.547192 -0.027144
C25   C     C_1   0.149571 0.350428 0.750000 -0.011805
C26   C     C_1   0.350429 0.149572 0.750000 -0.011810
C27   C     C_1   0.649571 0.850428 0.250000 -0.011821
C28   C     C_1   0.149567 0.649567 0.750000 -0.023105
C29   C     C_1   0.850433 0.350433 0.250000 -0.023122
C30   C     C_1   0.649571 0.850428 0.750000 -0.011810
C31   C     C_1   0.350429 0.149572 0.250000 -0.011821
C32   C     C_1   0.850433 0.350433 0.750000 -0.023105
C33   C     C_1   0.149567 0.649567 0.250000 -0.023122
C34   C     C_1   0.312999 0.813000 0.250000 -0.044459
C35   C     C_R   0.000000 0.500000 0.952821 -0.027142
C36   C     C_1   0.687000 0.187001 0.750000 -0.044449
C37   C     C_1   0.187003 0.312997 0.250000 -0.032877
C38   C     C_1   0.812997 0.687003 0.750000 -0.032859
C39   C     C_1   0.687000 0.187000 0.250000 -0.044459
C40   C     C_1   0.313000 0.812999 0.750000 -0.044449
C41   C     C_1   0.812997 0.687003 0.250000 -0.032877
C42   C     C_1   0.187002 0.312997 0.750000 -0.032859
C43   C     C_1   0.312997 0.187003 0.750000 -0.032862
C44   C     C_1   0.687003 0.812997 0.250000 -0.032875
C45   C     C_1   0.187000 0.687001 0.750000 -0.044446
C46   C     C_R   1.000000 0.500000 0.047181 -0.027139
C47   C     C_1   0.813000 0.312999 0.250000 -0.044460
C48   C     C_1   0.687002 0.812997 0.750000 -0.032863
C49   C     C_1   0.312997 0.187003 0.250000 -0.032875
C50   C     C_1   0.813000 0.312999 0.750000 -0.044446
C51   C     C_1   0.187000 0.687001 0.250000 -0.044460
C52   C     C_1   0.268717 0.768717 0.250000 -0.006133
C53   C     C_1   0.731283 0.231283 0.750000 -0.006124
C54   C     C_1   0.231285 0.268715 0.250000 0.003586
C55   C     C_1   0.768715 0.731285 0.750000 0.003600
C56   C     C_1   0.731283 0.231283 0.250000 -0.006132
C57   C     C_R   0.500000 0.000000 0.952809 -0.027144
C58   C     C_1   0.268717 0.768717 0.750000 -0.006124
C59   C     C_1   0.768715 0.731285 0.250000 0.003586
C60   C     C_1   0.231285 0.268715 0.750000 0.003600
C61   C     C_1   0.268715 0.231285 0.750000 0.003599
C62   C     C_1   0.731285 0.768715 0.250000 0.003586
C63   C     C_1   0.231283 0.731283 0.750000 -0.006123
C64   C     C_1   0.768717 0.268717 0.250000 -0.006133
C65   C     C_1   0.731285 0.768715 0.750000 0.003599
C66   C     C_1   0.268715 0.231285 0.250000 0.003586
C67   C     C_1   0.768717 0.268717 0.750000 -0.006123
C68   C     C_R   0.500000 0.000000 0.047168 -0.027144
C69   C     C_1   0.231283 0.731283 0.250000 -0.006133
C70   C     C_R   0.452784 0.018988 0.417585 0.395789
C71   C     C_R   0.547420 0.981525 0.582403 0.395781
C72   C     C_R   0.018444 0.452568 0.417604 0.395783
C73   C     C_R   0.980515 0.547013 0.582421 0.395804
C74   C     C_R   0.547216 0.981011 0.417585 0.395789
C75   C     C_R   0.452580 0.018475 0.582403 0.395781
C76   C     C_R   0.981554 0.547432 0.417604 0.395784
C77   C     C_R   0.019486 0.452987 0.582421 0.395804
C78   C     C_R   0.952661 0.518678 0.917592 0.395785
C79   C     C_R   0.451895 0.019196 0.440939 0.023741
C80   C     C_R   0.047298 0.481216 0.082410 0.395785
C81   C     C_R   0.519324 0.952920 0.917580 0.395800
C82   C     C_R   0.481597 0.047448 0.082397 0.395781
C83   C     C_R   0.047339 0.481322 0.917592 0.395785
C84   C     C_R   0.952702 0.518784 0.082410 0.395784
C85   C     C_R   0.480676 0.047080 0.917580 0.395800
C86   C     C_R   0.518403 0.952552 0.082397 0.395781
C87   C     C_R   0.537334 0.035596 0.370766 -0.045656
C88   C     C_R   0.462869 0.964195 0.629227 -0.045690
C89   C     C_R   0.035817 0.537118 0.370777 -0.045698
C90   C     C_R   0.548310 0.981328 0.559048 0.023781
C91   C     C_R   0.964615 0.462465 0.629237 -0.045626
C92   C     C_R   0.462665 0.964404 0.370766 -0.045656
C93   C     C_R   0.537131 0.035806 0.629227 -0.045689
C94   C     C_R   0.964181 0.462882 0.370777 -0.045698
C95   C     C_R   0.035386 0.537535 0.629237 -0.045626
C96   C     C_R   0.037210 0.535724 0.870770 -0.045674
C97   C     C_R   0.962746 0.464321 0.129231 -0.045672
C98   C     C_R   0.535454 0.037470 0.870764 -0.045634
C99   C     C_R   0.464161 0.962903 0.129224 -0.045701
C100  C     C_R   0.962790 0.464276 0.870770 -0.045674
C101  C     C_R   0.018647 0.451680 0.440959 0.023783
C102  C     C_R   0.037254 0.535679 0.129231 -0.045672
C103  C     C_R   0.464546 0.962529 0.870764 -0.045635
C104  C     C_R   0.535839 0.037097 0.129224 -0.045701
C105  C     C_R   0.538443 0.036140 0.347400 -0.034773
C106  C     C_R   0.461746 0.963660 0.652593 -0.034840
C107  C     C_R   0.036353 0.538241 0.347410 -0.034842
C108  C     C_R   0.964061 0.461371 0.652604 -0.034703
C109  C     C_R   0.461557 0.963860 0.347400 -0.034774
C110  C     C_R   0.538254 0.036340 0.652593 -0.034840
C111  C     C_R   0.963647 0.461758 0.347410 -0.034841
C112  C     C_R   0.500000 0.000000 0.810857 0.495459
C113  C     C_R   0.980291 0.547899 0.559066 0.023704
C114  C     C_R   0.035939 0.538629 0.652604 -0.034702
C115  C     C_R   0.038327 0.536263 0.847404 -0.034813
C116  C     C_R   0.961632 0.463780 0.152598 -0.034801
C117  C     C_R   0.536004 0.038569 0.847397 -0.034725
C118  C     C_R   0.463626 0.961778 0.152590 -0.034849
C119  C     C_R   0.961672 0.463737 0.847404 -0.034813
C120  C     C_R   0.038368 0.536220 0.152598 -0.034801
C121  C     C_R   0.463996 0.961431 0.847397 -0.034725
C122  C     C_R   0.536374 0.038222 0.152590 -0.034849
C123  C     C_R   0.500000 1.000000 0.382402 0.208240
C124  C     C_R   0.548104 0.980803 0.440939 0.023741
C125  C     C_R   0.500000 0.000000 0.617590 0.208064
C126  C     C_R   0.999999 0.500000 0.382415 0.208049
C127  C     C_R   0.000001 0.500000 0.617602 0.208404
C128  C     C_R   1.000000 0.500000 0.882407 0.208141
C129  C     C_R   1.000000 0.500000 0.117595 0.208170
C130  C     C_R   0.500000 1.000000 0.882399 0.208352
C131  C     C_R   0.500000 0.000000 0.117586 0.208039
C132  C     C_3   0.419425 0.926112 0.334740 -0.243136
C133  C     C_3   0.373576 0.895820 0.348722 -0.317180
C134  C     C_3   0.331722 0.863093 0.334022 -0.443540
C135  C     C_R   0.451690 0.018672 0.559048 0.023781
C136  C     C_3   0.580212 0.074296 0.665247 -0.243065
C137  C     C_3   0.625947 0.104753 0.651264 -0.317233
C138  C     C_3   0.667676 0.137646 0.665962 -0.443525
C139  C     C_3   0.925678 0.419812 0.334756 -0.243064
C140  C     C_3   0.895207 0.374086 0.348740 -0.317235
C141  C     C_3   0.862302 0.332366 0.334042 -0.443527
C142  C     C_3   0.073478 0.580936 0.665269 -0.243208
C143  C     C_3   0.103602 0.626899 0.651290 -0.317125
C144  C     C_3   0.136157 0.668880 0.665992 -0.443551
C145  C     C_3   0.580575 0.073888 0.334741 -0.243136
C146  C     C_R   0.981351 0.548320 0.440959 0.023782
C147  C     C_3   0.626424 0.104180 0.348722 -0.317180
C148  C     C_3   0.668277 0.136907 0.334022 -0.443541
C149  C     C_3   0.419788 0.925704 0.665247 -0.243066
C150  C     C_3   0.374054 0.895246 0.651264 -0.317234
C151  C     C_3   0.332325 0.862353 0.665961 -0.443525
C152  C     C_3   0.074324 0.580186 0.334757 -0.243064
C153  C     C_3   0.104797 0.625910 0.348740 -0.317234
C154  C     C_3   0.137706 0.667627 0.334043 -0.443525
C155  C     C_3   0.926521 0.419065 0.665269 -0.243208
C156  C     C_3   0.896396 0.373104 0.651290 -0.317125
C157  C     C_R   0.019710 0.452101 0.559066 0.023703
C158  C     C_3   0.863837 0.331124 0.665992 -0.443550
C159  C     C_3   0.919647 0.425860 0.834748 -0.243089
C160  C     C_3   0.873866 0.395466 0.848730 -0.317206
C161  C     C_3   0.832089 0.362636 0.834032 -0.443526
C162  C     C_3   0.080431 0.574051 0.165255 -0.243108
C163  C     C_3   0.126234 0.604409 0.151273 -0.317202
C164  C     C_3   0.168038 0.637202 0.165972 -0.443536
C165  C     C_3   0.426388 0.919181 0.834734 -0.243183
C166  C     C_3   0.396208 0.873255 0.848714 -0.317142
C167  C     C_3   0.363595 0.831317 0.834012 -0.443545
C168  C     C_R   0.951771 0.518881 0.940946 0.023767
C169  C     C_3   0.574366 0.080149 0.165243 -0.243055
C170  C     C_3   0.604855 0.125862 0.151260 -0.317240
C171  C     C_3   0.637781 0.167566 0.165957 -0.443524
C172  C     C_3   0.080353 0.574140 0.834748 -0.243089
C173  C     C_3   0.126134 0.604534 0.848730 -0.317207
C174  C     C_3   0.167911 0.637363 0.834032 -0.443526
C175  C     C_3   0.919569 0.425949 0.165255 -0.243109
C176  C     C_3   0.873766 0.395591 0.151273 -0.317203
C177  C     C_3   0.831962 0.362798 0.165972 -0.443536
C178  C     C_3   0.573612 0.080819 0.834734 -0.243184
C179  C     C_R   0.048187 0.481013 0.059056 0.023756
C180  C     C_3   0.603792 0.126744 0.848714 -0.317142
C181  C     C_3   0.636405 0.168683 0.834012 -0.443546
C182  C     C_3   0.425634 0.919851 0.165243 -0.243056
C183  C     C_3   0.395144 0.874138 0.151260 -0.317241
C184  C     C_3   0.362218 0.832434 0.165957 -0.443524
C185  C     C_R   0.519543 0.952033 0.940935 0.023717
C186  C     C_R   0.481398 0.048337 0.059042 0.023785
C187  C     C_R   0.048228 0.481119 0.940946 0.023767
C188  C     C_R   0.000000 0.500000 0.189142 0.495499
C189  C     C_R   0.951813 0.518987 0.059056 0.023756
C190  C     C_R   0.480457 0.047967 0.940935 0.023717
C191  C     C_R   0.518602 0.951663 0.059043 0.023786
C192  C     C_R   0.404013 0.038368 0.452569 -0.114173
C193  C     C_R   0.596427 0.962755 0.547419 -0.114161
C194  C     C_R   0.037164 0.403540 0.452590 -0.114147
C195  C     C_R   0.960567 0.595557 0.547436 -0.114172
C196  C     C_R   0.595987 0.961631 0.452569 -0.114173
C197  C     C_R   0.403573 0.037245 0.547419 -0.114161
C198  C     C_R   0.962833 0.596460 0.452590 -0.114146
C199  C     C_R   1.000000 0.500000 0.810859 0.495517
C200  C     C_R   0.039433 0.404443 0.547436 -0.114173
C201  C     C_R   0.903745 0.537694 0.952576 -0.114161
C202  C     C_R   0.096164 0.462080 0.047427 -0.114170
C203  C     C_R   0.539090 0.904302 0.952565 -0.114171
C204  C     C_R   0.462921 0.096493 0.047412 -0.114151
C205  C     C_R   0.096255 0.462306 0.952576 -0.114161
C206  C     C_R   0.903836 0.537920 0.047427 -0.114170
C207  C     C_R   0.460910 0.095698 0.952565 -0.114171
C208  C     C_R   0.537079 0.903507 0.047412 -0.114151
C209  C     C_R   0.500000 1.000000 0.335562 0.026366
C210  C     C_R   0.000000 0.500000 0.689143 0.495444
C211  C     C_R   0.500000 0.000000 0.664434 0.026234
C212  C     C_R   1.000000 0.500000 0.335569 0.026209
C213  C     C_R   1.000000 0.500000 0.664440 0.026484
C214  C     C_R   1.000000 0.500000 0.835564 0.026287
C215  C     C_R   1.000000 0.500000 0.164436 0.026313
C216  C     C_R   0.500000 1.000000 0.835560 0.026447
C217  C     C_R   0.500000 1.000000 0.164432 0.026201
C218  C     C_R   0.950849 0.519329 0.011829 0.017590
C219  C     C_R   0.049169 0.480717 0.988173 0.017592
C220  C     C_R   0.519240 0.950816 0.011816 0.017585
C221  C     C_R   1.000000 0.500000 0.310860 0.495507
C222  C     C_R   0.480342 0.049018 0.988161 0.017575
C223  C     C_R   0.049150 0.480671 0.011829 0.017590
C224  C     C_R   0.950831 0.519283 0.988173 0.017592
C225  C     C_R   0.480760 0.049183 0.011816 0.017585
C226  C     C_R   0.519658 0.950982 0.988161 0.017576
C227  C     C_R   0.450795 0.019189 0.511822 0.017590
C228  C     C_R   0.549113 0.980577 0.488166 0.017585
C229  C     C_R   0.019795 0.451038 0.511840 0.017571
C230  C     C_R   0.980675 0.549150 0.488185 0.017583
C231  C     C_R   0.549204 0.980811 0.511822 0.017591
C232  C     C_R   0.500000 0.000000 0.689140 0.495520
C233  C     C_R   0.450887 0.019423 0.488166 0.017585
C234  C     C_R   0.980205 0.548962 0.511840 0.017571
C235  C     C_R   0.019324 0.450850 0.488185 0.017583
C236  C     C_R   1.000000 0.500000 0.023508 0.033749
C237  C     C_R   1.000000 0.500000 0.976494 0.033746
C238  C     C_R   0.500000 0.000000 0.023496 0.033755
C239  C     C_R   0.500000 0.000000 0.976482 0.033765
C240  C     C_R   0.500000 1.000000 0.523501 0.033751
C241  C     C_R   0.500000 1.000000 0.476486 0.033756
C242  C     C_R   1.000000 0.500000 0.523520 0.033770
C243  C     C_R   0.500000 1.000000 0.310858 0.495486
C244  C     C_R   0.999999 0.500000 0.476506 0.033758
C245  C     C_R   0.903225 0.538130 0.024381 -0.140475
C246  C     C_R   0.096856 0.462075 0.975621 -0.140471
C247  C     C_R   0.537395 0.902940 0.024366 -0.140487
C248  C     C_R   0.460777 0.096337 0.975612 -0.140498
C249  C     C_R   0.096774 0.461870 0.024381 -0.140476
C250  C     C_R   0.903144 0.537925 0.975621 -0.140471
C251  C     C_R   0.462605 0.097060 0.024366 -0.140486
C252  C     C_R   0.539223 0.903663 0.975612 -0.140499
C253  C     C_R   0.402987 0.037516 0.524373 -0.140477
C254  C     C_R   0.500000 1.000000 0.452814 -0.027139
C255  C     C_R   0.596612 0.961461 0.475615 -0.140484
C256  C     C_R   0.039556 0.403801 0.524389 -0.140504
C257  C     C_R   0.962503 0.597020 0.475636 -0.140489
C258  C     C_R   0.597013 0.962484 0.524373 -0.140477
C259  C     C_R   0.403388 0.038538 0.475615 -0.140484
C260  C     C_R   0.960444 0.596199 0.524389 -0.140504
C261  C     C_R   0.037495 0.402980 0.475636 -0.140489
C262  C     C_R   0.604519 0.895481 0.250000 0.501281
C263  C     C_R   0.395481 0.104519 0.750000 0.501271
C264  C     C_R   0.104516 0.604516 0.250000 0.494953
H1    H     H_    0.366428 0.053478 0.443870 0.164869
H2    H     H_    0.133841 0.447204 0.056126 0.164861
H3    H     H_    0.105584 0.635383 0.139830 0.163114
H4    H     H_    0.055772 0.607256 0.174301 0.177549
H5    H     H_    0.102949 0.546945 0.177627 0.152367
H6    H     H_    0.330808 0.854233 0.824095 0.160781
H7    H     H_    0.393443 0.808880 0.822644 0.157718
H8    H     H_    0.341831 0.798987 0.844516 0.150251
H9    H     H_    0.428274 0.848969 0.858523 0.181019
H10   H     H_    0.365145 0.893781 0.860154 0.163173
H11   H     H_    0.393090 0.943679 0.825673 0.177524
H12   H     H_    0.453622 0.896779 0.822372 0.152185
H13   H     H_    0.554539 0.866854 0.943867 0.164877
H14   H     H_    0.608104 0.190219 0.177328 0.157730
H15   H     H_    0.670409 0.144415 0.175871 0.160826
H16   H     H_    0.659769 0.199738 0.155450 0.150255
H17   H     H_    0.635763 0.105119 0.139815 0.163082
H18   H     H_    0.572953 0.150375 0.141455 0.181282
H19   H     H_    0.547354 0.102753 0.177623 0.152499
H20   H     H_    0.607502 0.055372 0.174280 0.177569
H21   H     H_    0.190497 0.607634 0.822661 0.157716
H22   H     H_    0.144834 0.670042 0.824117 0.160826
H23   H     H_    0.200132 0.659282 0.844537 0.150250
H24   H     H_    0.448517 0.134354 0.056110 0.164834
H25   H     H_    0.105460 0.635490 0.860174 0.163114
H26   H     H_    0.150577 0.572580 0.858536 0.181199
H27   H     H_    0.102894 0.547062 0.822373 0.152404
H28   H     H_    0.055662 0.607328 0.825705 0.177558
H29   H     H_    0.855014 0.330102 0.175887 0.160799
H30   H     H_    0.809401 0.392548 0.177342 0.157731
H31   H     H_    0.799724 0.340904 0.155467 0.150256
H32   H     H_    0.849349 0.427564 0.141467 0.181181
H33   H     H_    0.894416 0.364617 0.139830 0.163114
H34   H     H_    0.944228 0.392744 0.174301 0.177549
H35   H     H_    0.133980 0.447548 0.943877 0.164846
H36   H     H_    0.897051 0.453055 0.177627 0.152368
H37   H     H_    0.669192 0.145767 0.824095 0.160782
H38   H     H_    0.606557 0.191120 0.822644 0.157719
H39   H     H_    0.658169 0.201013 0.844515 0.150252
H40   H     H_    0.571726 0.151030 0.858523 0.181019
H41   H     H_    0.634855 0.106219 0.860154 0.163173
H42   H     H_    0.606910 0.056321 0.825673 0.177524
H43   H     H_    0.546378 0.103221 0.822372 0.152185
H44   H     H_    0.391895 0.809781 0.177328 0.157730
H45   H     H_    0.329591 0.855585 0.175871 0.160826
H46   H     H_    0.866159 0.552796 0.056126 0.164861
H47   H     H_    0.340230 0.800263 0.155450 0.150255
H48   H     H_    0.364236 0.894881 0.139815 0.163082
H49   H     H_    0.427047 0.849625 0.141455 0.181282
H50   H     H_    0.452646 0.897247 0.177623 0.152499
H51   H     H_    0.392498 0.944628 0.174280 0.177570
H52   H     H_    0.434757 0.937257 0.380386 0.129287
H53   H     H_    0.564878 0.063120 0.619608 0.129533
H54   H     H_    0.936857 0.435144 0.380395 0.129546
H55   H     H_    0.062367 0.565603 0.619616 0.129053
H56   H     H_    0.565243 0.062742 0.380386 0.129287
H57   H     H_    0.445461 0.133146 0.943867 0.164877
H58   H     H_    0.435122 0.936881 0.619608 0.129533
H59   H     H_    0.063141 0.564856 0.380396 0.129545
H60   H     H_    0.937635 0.434397 0.619616 0.129053
H61   H     H_    0.934980 0.437026 0.880389 0.129436
H62   H     H_    0.065098 0.562892 0.119612 0.129385
H63   H     H_    0.437512 0.934512 0.880384 0.129131
H64   H     H_    0.563180 0.064819 0.119605 0.129560
H65   H     H_    0.065020 0.562973 0.880389 0.129436
H66   H     H_    0.934902 0.437107 0.119612 0.129385
H67   H     H_    0.562488 0.065488 0.880384 0.129131
H68   H     H_    0.551483 0.865646 0.056110 0.164835
H69   H     H_    0.436820 0.935182 0.119605 0.129560
H70   H     H_    0.864323 0.553500 0.017002 0.110018
H71   H     H_    0.135822 0.446863 0.983000 0.110005
H72   H     H_    0.552099 0.863786 0.016982 0.110004
H73   H     H_    0.634241 0.948229 0.556117 0.164843
H74   H     H_    0.444677 0.134938 0.982996 0.110072
H75   H     H_    0.135677 0.446500 0.017002 0.110018
H76   H     H_    0.864178 0.553137 0.983000 0.110005
H77   H     H_    0.447900 0.136214 0.016982 0.110004
H78   H     H_    0.555323 0.865062 0.982996 0.110072
H79   H     H_    0.363904 0.052416 0.516992 0.109999
H80   H     H_    0.635388 0.945780 0.482995 0.110039
H81   H     H_    0.055832 0.365275 0.517003 0.110086
H82   H     H_    0.947799 0.636173 0.483022 0.110006
H83   H     H_    0.636096 0.947584 0.516992 0.110000
H84   H     H_    0.051585 0.365685 0.443892 0.164831
H85   H     H_    0.364612 0.054220 0.482995 0.110039
H86   H     H_    0.944168 0.634725 0.517003 0.110086
H87   H     H_    0.052200 0.363827 0.483022 0.110006
H88   H     H_    0.309208 0.892879 0.322652 0.157725
H89   H     H_    0.354724 0.830363 0.324106 0.160793
H90   H     H_    0.299450 0.841248 0.344526 0.150254
H91   H     H_    0.394180 0.864812 0.360164 0.163135
H92   H     H_    0.349208 0.927827 0.358529 0.181120
H93   H     H_    0.396950 0.953264 0.322372 0.152299
H94   H     H_    0.444024 0.892871 0.325689 0.177540
H95   H     H_    0.944967 0.632942 0.556134 0.164883
H96   H     H_    0.644549 0.170291 0.675876 0.160840
H97   H     H_    0.690306 0.107951 0.677333 0.157717
H98   H     H_    0.699863 0.159612 0.655455 0.150255
H99   H     H_    0.650436 0.072834 0.641459 0.181260
H100  H     H_    0.605227 0.135678 0.639820 0.163099
H101  H     H_    0.555463 0.107449 0.674285 0.177570
H102  H     H_    0.602795 0.047262 0.677625 0.152470
H103  H     H_    0.829666 0.355502 0.324127 0.160831
H104  H     H_    0.891992 0.309726 0.322672 0.157723
H105  H     H_    0.840327 0.300186 0.344549 0.150255
H106  H     H_    0.633572 0.946522 0.443870 0.164868
H107  H     H_    0.927119 0.349588 0.358545 0.181270
H108  H     H_    0.864288 0.394816 0.360184 0.163090
H109  H     H_    0.892532 0.444572 0.325719 0.177566
H110  H     H_    0.952703 0.397220 0.322378 0.152480
H111  H     H_    0.106277 0.691278 0.677360 0.157721
H112  H     H_    0.168972 0.646007 0.675911 0.160770
H113  H     H_    0.157881 0.701238 0.655489 0.150254
H114  H     H_    0.134694 0.606412 0.639851 0.163187
H115  H     H_    0.071507 0.651143 0.641479 0.180976
H116  H     H_    0.046204 0.603301 0.677627 0.152132
H117  H     H_    0.365759 0.051771 0.556117 0.164843
H118  H     H_    0.106804 0.556487 0.674334 0.177512
H119  H     H_    0.690792 0.107120 0.322652 0.157726
H120  H     H_    0.645276 0.169637 0.324106 0.160793
H121  H     H_    0.700550 0.158752 0.344526 0.150254
H122  H     H_    0.605820 0.135187 0.360164 0.163135
H123  H     H_    0.650792 0.072173 0.358529 0.181120
H124  H     H_    0.603050 0.046735 0.322372 0.152299
H125  H     H_    0.555976 0.107129 0.325689 0.177540
H126  H     H_    0.355452 0.829709 0.675876 0.160840
H127  H     H_    0.309695 0.892048 0.677333 0.157717
H128  H     H_    0.948412 0.634315 0.443892 0.164831
H129  H     H_    0.300138 0.840387 0.655455 0.150255
H130  H     H_    0.349564 0.927166 0.641459 0.181260
H131  H     H_    0.394774 0.864322 0.639820 0.163100
H132  H     H_    0.444538 0.892551 0.674285 0.177571
H133  H     H_    0.397205 0.952737 0.677625 0.152470
H134  H     H_    0.170342 0.644489 0.324129 0.160830
H135  H     H_    0.108020 0.690268 0.322671 0.157723
H136  H     H_    0.159682 0.699807 0.344549 0.150254
H137  H     H_    0.072886 0.650411 0.358545 0.181267
H138  H     H_    0.135713 0.605179 0.360185 0.163090
H139  H     H_    0.055034 0.367058 0.556134 0.164883
H140  H     H_    0.107468 0.555424 0.325719 0.177568
H141  H     H_    0.047300 0.602779 0.322378 0.152480
H142  H     H_    0.893716 0.308725 0.677360 0.157721
H143  H     H_    0.831023 0.353999 0.675910 0.160770
H144  H     H_    0.842113 0.298766 0.655489 0.150253
H145  H     H_    0.865305 0.393592 0.639850 0.163187
H146  H     H_    0.928490 0.348858 0.641480 0.180974
H147  H     H_    0.953793 0.396699 0.677627 0.152132
H148  H     H_    0.893195 0.443515 0.674334 0.177513
H149  H     H_    0.809503 0.392366 0.822661 0.157715
H150  H     H_    0.866020 0.552452 0.943877 0.164846
H151  H     H_    0.855166 0.329958 0.824117 0.160825
H152  H     H_    0.799868 0.340718 0.844537 0.150250
H153  H     H_    0.894540 0.364510 0.860174 0.163114
H154  H     H_    0.849423 0.427420 0.858536 0.181200
H155  H     H_    0.897106 0.452938 0.822373 0.152404
H156  H     H_    0.944338 0.392672 0.825705 0.177558
H157  H     H_    0.144986 0.669898 0.175887 0.160799
H158  H     H_    0.190599 0.607452 0.177342 0.157731
H159  H     H_    0.200276 0.659096 0.155467 0.150256
H160  H     H_    0.150651 0.572436 0.141467 0.181181
N1    N     N_R   0.500000 1.000000 0.406350 -0.396710
N2    N     N_R   0.500000 0.000000 0.593640 -0.396649
N3    N     N_R   0.999999 0.500000 0.406366 -0.396639
N4    N     N_R   0.000001 0.500000 0.593655 -0.396762
N5    N     N_R   0.000000 0.500000 0.906356 -0.396669
N6    N     N_R   1.000000 0.500000 0.093646 -0.396685
N7    N     N_R   0.500000 1.000000 0.906346 -0.396745
N8    N     N_R   0.500000 0.000000 0.093635 -0.396638
O1    O     O_3   0.500000 1.000000 0.250000 -0.384645
O2    O     O_R   0.455820 1.000000 0.799650 -0.544091
O3    O     O_R   1.000000 0.544180 0.200350 -0.544164
O4    O     O_R   1.000000 0.455820 0.799650 -0.544170
O5    O     O_R   0.955820 0.500000 0.700350 -0.544067
O6    O     O_R   0.044180 0.500000 0.299650 -0.544196
O7    O     O_R   0.500000 0.955820 0.700350 -0.544193
O8    O     O_R   0.500000 0.044180 0.299650 -0.544138
O9    O     O_R   0.044180 0.500000 0.700350 -0.544066
O10   O     O_R   0.955820 0.500000 0.299650 -0.544194
O11   O     O_R   0.500000 0.044180 0.700350 -0.544194
O12   O     O_3   0.500000 1.000000 0.750000 -0.384671
O13   O     O_R   0.500000 0.955820 0.299650 -0.544139
O14   O     O_R   0.605910 0.938190 0.237190 -0.523604
O15   O     O_R   0.394090 0.061810 0.762810 -0.523550
O16   O     O_R   0.061810 0.605910 0.237190 -0.529368
O17   O     O_R   0.938190 0.394090 0.762810 -0.529392
O18   O     O_R   0.394090 0.061810 0.237190 -0.523604
O19   O     O_R   0.605910 0.938190 0.762810 -0.523551
O20   O     O_R   0.938190 0.394090 0.237190 -0.529368
O21   O     O_R   0.061810 0.605910 0.762810 -0.529392
O22   O     O_R   0.605910 0.061810 0.762810 -0.529339
O23   O     O_3   0.000000 0.500000 0.250000 -0.384637
O24   O     O_R   0.394090 0.938190 0.237190 -0.529394
O25   O     O_R   0.061810 0.394090 0.762810 -0.523600
O26   O     O_R   0.938190 0.605910 0.237190 -0.523578
O27   O     O_R   0.394090 0.938190 0.762810 -0.529339
O28   O     O_R   0.605910 0.061810 0.237190 -0.529394
O29   O     O_R   0.938190 0.605910 0.762810 -0.523600
O30   O     O_R   0.061810 0.394090 0.237190 -0.523578
O31   O     O_R   0.105910 0.438190 0.737190 -0.523548
O32   O     O_R   0.894090 0.561810 0.262810 -0.523594
O33   O     O_R   0.561810 0.105910 0.737190 -0.529397
O34   O     O_3   0.000000 0.500000 0.750000 -0.384689
O35   O     O_R   0.438190 0.894090 0.262810 -0.529354
O36   O     O_R   0.894090 0.561810 0.737190 -0.523548
O37   O     O_R   0.105910 0.438190 0.262810 -0.523595
O38   O     O_R   0.438190 0.894090 0.737190 -0.529397
O39   O     O_R   0.561810 0.105910 0.262810 -0.529354
O40   O     O_R   0.105910 0.561810 0.262810 -0.529384
O41   O     O_R   0.894090 0.438190 0.737190 -0.529336
O42   O     O_R   0.561810 0.894090 0.262810 -0.523565
O43   O     O_R   0.438190 0.105910 0.737190 -0.523606
O44   O     O_R   0.894090 0.438190 0.262810 -0.529384
O45   O     O_R   0.455820 0.000000 0.200350 -0.544203
O46   O     O_R   0.105910 0.561810 0.737190 -0.529336
O47   O     O_R   0.438190 0.105910 0.262810 -0.523565
O48   O     O_R   0.561810 0.894090 0.737190 -0.523606
O49   O     O_2   0.406946 0.038094 0.406214 -0.505803
O50   O     O_2   0.593460 0.962903 0.593771 -0.505990
O51   O     O_2   0.037033 0.406514 0.406236 -0.505996
O52   O     O_2   0.960940 0.592649 0.593793 -0.505616
O53   O     O_2   0.593053 0.961905 0.406214 -0.505802
O54   O     O_2   0.406540 0.037097 0.593771 -0.505990
O55   O     O_2   0.962964 0.593486 0.406236 -0.505996
O56   O     O_R   0.544180 1.000000 0.799650 -0.544091
O57   O     O_2   0.039062 0.407351 0.593793 -0.505615
O58   O     O_2   0.906700 0.537490 0.906222 -0.505916
O59   O     O_2   0.093217 0.462303 0.093780 -0.505879
O60   O     O_2   0.538746 0.907218 0.906208 -0.505677
O61   O     O_2   0.463046 0.093518 0.093765 -0.506010
O62   O     O_2   0.093300 0.462510 0.906222 -0.505916
O63   O     O_2   0.906783 0.537697 0.093780 -0.505879
O64   O     O_2   0.461254 0.092782 0.906208 -0.505677
O65   O     O_2   0.536954 0.906482 0.093765 -0.506010
O66   O     O_R   1.000000 0.455820 0.200350 -0.544163
O67   O     O_R   1.000000 0.544180 0.799650 -0.544170
O68   O     O_R   0.544180 0.000000 0.200350 -0.544204
Zn1   Zn    Zn3+2 0.500000 0.937230 0.268990 0.943086
Zn2   Zn    Zn3+2 0.000000 0.562770 0.231010 0.943060
Zn3   Zn    Zn3+2 0.562770 0.000000 0.768990 0.943121
Zn4   Zn    Zn3+2 0.437230 1.000000 0.231010 0.943003
Zn5   Zn    Zn3+2 0.000000 0.562770 0.768990 0.943016
Zn6   Zn    Zn3+2 0.000000 0.437230 0.231010 0.943060
Zn7   Zn    Zn3+2 0.437230 0.000000 0.768990 0.943121
Zn8   Zn    Zn3+2 0.562770 1.000000 0.231010 0.943003
Zn9   Zn    Zn3+2 0.500000 0.062770 0.731010 0.943002
Zn10  Zn    Zn3+2 0.062770 0.500000 0.268990 0.943020
Zn11  Zn    Zn3+2 0.937230 0.500000 0.731010 0.943131
Zn12  Zn    Zn3+2 0.500000 0.062770 0.268990 0.943086
Zn13  Zn    Zn3+2 0.500000 0.937230 0.731010 0.943002
Zn14  Zn    Zn3+2 0.937230 0.500000 0.268990 0.943021
Zn15  Zn    Zn3+2 0.062770 0.500000 0.731010 0.943131
Zn16  Zn    Zn3+2 1.000000 0.437230 0.768990 0.943016

loop_
_geom_bond_atom_site_label_1
_geom_bond_atom_site_label_2
_ccdc_geom_bond_type
C75   O54   S    
C92   H52   S    
C153  H138  S    
C1    O68   A    
C93   H53   S    
C199  C214  S    
C110  C211  A    
C192  C259  A    
C95   H55   S    
C83   C187  A    
C199  O67   A    
C75   N2    A    
C111  C139  S    
C227  C253  A    
C136  H101  S    
C117  C178  S    
C145  H124  S    
C234  C260  A    
C125  N2    S    
C257  H82   S    
C91   C127  A    
C6    O44   A    
C14   C21   S    
C161  H149  S    
C155  H147  S    
C92   C109  A    
C72   C101  A    
C143  C144  S    
C94   C111  A    
C181  H39   S    
O12   Zn3   S    
C2    C90   A    
C182  C183  S    
C36   C53   S    
C19   C37   T    
O23   Zn2   S    
C85   N7    A    
C206  C245  A    
O47   Zn12  S    
C164  H159  S    
C38   C55   S    
C196  H106  S    
C87   H56   S    
O7    Zn13  S    
C24   C242  A    
C126  N3    S    
C48   C65   S    
C4    O47   A    
C221  O6    A    
C57   C185  A    
C108  C213  A    
C93   C110  A    
C263  O43   A    
C76   C146  A    
C177  H30   S    
C225  C251  A    
C103  H63   S    
C137  H100  S    
C220  C238  A    
O37   Zn10  S    
C147  H122  S    
C86   O65   S    
C109  C209  A    
C55   C65   T    
C188  C215  S    
C118  C182  S    
C15   C20   S    
C227  C233  A    
C10   O25   A    
C40   C58   S    
C211  C232  S    
C176  H33   S    
O66   Zn6   S    
C170  H17   S    
C140  C141  S    
C233  C259  A    
C92   C123  A    
C47   C64   S    
C232  O11   A    
C159  H156  S    
C247  H72   S    
C151  H126  S    
O34   Zn15  S    
C7    C28   S    
C73   N4    A    
C46   C236  A    
O12   Zn7   S    
C198  H128  S    
C183  C184  S    
C80   C179  A    
O23   Zn6   S    
C175  C176  S    
C179  C202  A    
C189  C206  A    
O31   Zn15  S    
C262  O14   A    
C118  C217  A    
C193  C258  A    
C165  H11   S    
C91   H60   S    
C104  H64   S    
C158  H143  S    
C178  H43   S    
C260  H86   S    
C81   N7    A    
C16   O30   A    
C182  H51   S    
C250  H76   S    
C17   C34   T    
C98   C130  A    
C103  C121  A    
C82   O61   S    
C101  C194  A    
C43   C61   S    
C148  H119  S    
C204  H24   S    
C74   N1    A    
C226  C239  A    
O68   Zn8   S    
C70   C79   A    
C193  H73   S    
C46   C179  A    
C161  H151  S    
C115  C172  S    
C23   C41   T    
C135  C197  A    
C139  C140  S    
C180  H40   S    
C68   C191  A    
C219  C237  A    
C156  C158  S    
O25   Zn16  S    
C229  C242  A    
O35   Zn1   S    
C108  C155  S    
C152  H140  S    
C227  C240  A    
C11   C23   S    
C230  C234  A    
C159  H155  S    
C103  C130  A    
C138  H98   S    
O29   Zn5   S    
O28   Zn8   S    
C72   N3    A    
C119  C159  S    
C155  C156  S    
C51   C69   S    
C127  N4    S    
C228  C231  A    
C76   N3    A    
C10   O31   A    
C110  C136  S    
C147  C148  S    
C35   C237  A    
C3    O41   A    
C76   O55   S    
C77   O57   S    
O16   Zn2   S    
C141  H103  S    
C156  H146  S    
C90   C193  A    
C33   C264  S    
C15   O29   A    
C29   C47   T    
C154  H136  S    
C30   C48   T    
O12   Zn9   S    
C178  H42   S    
C99   H69   S    
C147  H123  S    
C71   O50   S    
C129  N6    S    
C104  C122  A    
C11   O32   A    
C8    O33   A    
C174  H22   S    
C12   C22   S    
C222  C239  A    
C88   C106  A    
C184  H44   S    
C111  C212  A    
C166  H10   S    
O5    Zn11  S    
C139  H110  S    
C27   C44   T    
C140  H108  S    
C104  C131  A    
O12   Zn13  S    
C73   O52   S    
C183  H48   S    
C56   C64   T    
O38   Zn13  S    
O11   Zn9   S    
C50   C67   S    
O34   Zn5   S    
C112  O56   A    
C120  C162  S    
C164  H158  S    
C68   C186  A    
O18   Zn4   S    
C124  C196  A    
C9    O35   A    
C261  H87   S    
C86   N8    A    
C144  H112  S    
C16   O37   A    
C49   C66   S    
O13   Zn1   S    
C218  C245  A    
C230  C244  A    
C167  H8    S    
C245  H70   S    
C24   C157  A    
C26   C263  S    
C172  H28   S    
C222  C225  A    
C27   C262  S    
O19   Zn3   S    
C256  H81   S    
C133  H91   S    
C231  C240  A    
C169  H19   S    
C146  C198  A    
C88   C125  A    
C150  H130  S    
C87   C105  A    
C230  C257  A    
C151  H127  S    
C181  H37   S    
C100  H61   S    
C187  C205  A    
O14   Zn8   S    
C35   C168  A    
C219  C246  A    
C197  H117  S    
C84   C189  A    
C100  C119  A    
C202  H2    S    
C128  N5    S    
C57   C239  A    
C200  C256  A    
C10   C25   S    
C184  H47   S    
C234  C242  A    
C182  H50   S    
C255  H80   S    
C142  H116  S    
C152  H141  S    
C37   C54   S    
C46   C189  A    
C232  O7    A    
C1    O45   A    
C5    C30   S    
C233  C241  A    
C164  H157  S    
C153  H137  S    
C116  C175  S    
C100  C128  A    
C136  C137  S    
O23   Zn10  S    
C54   C66   T    
C136  H102  S    
C210  C213  S    
C121  C165  S    
C78   C168  A    
C2    C135  A    
C207  H57   S    
C9    O24   A    
C5    O19   A    
O56   Zn3   S    
C132  H93   S    
O23   Zn14  S    
C87   C123  A    
C253  H79   S    
C80   O59   S    
C71   C90   A    
O10   Zn14  S    
C106  C211  A    
C162  H4    S    
O39   Zn12  S    
C83   N5    A    
C181  H38   S    
C192  H1    S    
C112  C216  S    
C53   C67   T    
O34   Zn11  S    
C223  C236  A    
O4    Zn16  S    
C190  C207  A    
C202  C249  A    
C152  C153  S    
C119  C214  A    
C184  H45   S    
O20   Zn6   S    
C7    O46   A    
C150  C151  S    
C195  H95   S    
C171  H16   S    
O48   Zn13  S    
C74   C124  A    
C162  H5    S    
C177  H29   S    
C122  C217  A    
C137  H99   S    
C167  H6    S    
C173  H26   S    
C209  C243  S    
C77   N4    A    
C81   O60   S    
C120  C215  A    
C226  C252  A    
C123  N1    S    
C82   C186  A    
C170  H18   S    
C82   N8    A    
C251  H77   S    
C75   C135  A    
O1    Zn4   S    
C95   C114  A    
O34   Zn16  S    
C73   C113  A    
C96   C128  A    
C52   C69   T    
O33   Zn9   S    
C204  C251  A    
C222  C248  A    
C201  H150  S    
C228  C241  A    
C195  C260  A    
C142  H118  S    
C199  O4    A    
C194  H84   S    
C161  H152  S    
C143  H114  S    
C158  H144  S    
O46   Zn15  S    
C78   O58   S    
C160  H153  S    
C96   H65   S    
C235  C261  A    
C154  H134  S    
C207  C248  A    
C225  C238  A    
C31   C49   T    
C116  C215  A    
C134  H90   S    
C145  C147  S    
C14   O39   A    
C148  H120  S    
C89   C126  A    
C145  H125  S    
O24   Zn4   S    
O42   Zn1   S    
O32   Zn14  S    
C124  C254  A    
C205  C246  A    
C155  H148  S    
C203  H13   S    
C85   C190  A    
O1    Zn8   S    
C151  H129  S    
C8    C18   S    
C60   C61   T    
C89   H59   S    
C229  C235  A    
C200  H139  S    
C8    O22   A    
C159  C160  S    
C196  C255  A    
C12   O38   A    
O22   Zn3   S    
C122  C169  S    
C105  C145  S    
C5    O48   A    
C6    O20   A    
C175  H36   S    
C252  H78   S    
C97   C116  A    
C4    O18   A    
O6    Zn10  S    
C3    O17   A    
C171  H14   S    
O27   Zn7   S    
C172  H27   S    
C70   N1    A    
C177  H31   S    
C79   C192  A    
C133  C134  S    
C105  C209  A    
C88   H58   S    
C131  N8    S    
C229  C256  A    
C102  C120  A    
C180  C181  S    
C162  C163  S    
C12   O27   A    
C173  H25   S    
O43   Zn9   S    
C163  H3    S    
C91   C108  A    
C264  O40   A    
C25   C42   T    
C178  C180  S    
C144  H113  S    
C218  C224  A    
C107  C212  A    
C13   C244  A    
C33   C51   T    
C34   C52   S    
C148  H121  S    
C185  C203  A    
O36   Zn11  S    
C246  H71   S    
C218  C236  A    
C149  C150  S    
C188  O3    A    
C210  O5    A    
C2    C240  A    
C208  H68   S    
C264  O16   A    
C16   C19   S    
C174  H23   S    
C220  C226  A    
C79   C254  A    
O8    Zn12  S    
C165  H12   S    
C248  H74   S    
C3    C32   S    
O30   Zn6   S    
C93   C125  A    
C235  C244  A    
C158  H142  S    
C4    C31   S    
C219  C223  A    
C89   C107  A    
C139  H109  S    
C95   C127  A    
C57   C190  A    
C6    C29   S    
C35   C187  A    
C170  C171  S    
C142  C143  S    
C1    C217  S    
C18   C36   T    
C198  C257  A    
C11   O26   A    
C7    O21   A    
C165  C166  S    
O67   Zn5   S    
C194  C261  A    
C169  C170  S    
C163  C164  S    
C176  H32   S    
C102  C129  A    
C205  H35   S    
C249  H75   S    
C221  O10   A    
O17   Zn16  S    
C138  H96   S    
C71   N2    A    
C173  C174  S    
C86   C191  A    
C114  C142  S    
C167  H7    S    
C74   O53   S    
O41   Zn11  S    
C84   O63   S    
C210  O9    A    
C228  C255  A    
C98   H67   S    
C175  H34   S    
C168  C201  A    
C112  O2    A    
C138  H97   S    
C262  O42   A    
C150  H131  S    
O9    Zn15  S    
O1    Zn1   S    
O2    Zn7   S    
C39   C56   S    
C132  C133  S    
O15   Zn7   S    
C70   O49   S    
C96   C115  A    
O21   Zn5   S    
C130  N7    S    
C224  C237  A    
C97   H66   S    
C85   O64   S    
C223  C249  A    
C183  H49   S    
C163  H160  S    
C197  C253  A    
C24   C113  A    
C106  C149  S    
C113  C195  A    
C114  C213  A    
C263  O15   A    
C143  H115  S    
C13   C146  A    
C109  C132  S    
C81   C185  A    
C26   C43   T    
C141  H104  S    
C212  C221  S    
C94   C126  A    
C156  H145  S    
O26   Zn2   S    
C231  C258  A    
C141  H105  S    
C28   C45   T    
C154  H135  S    
C121  C216  A    
C41   C59   S    
C42   C60   S    
C44   C62   S    
C174  H21   S    
C45   C63   S    
C115  C214  A    
C132  H94   S    
C117  C216  A    
O44   Zn14  S    
C166  H9    S    
C20   C38   T    
C188  O66   A    
C21   C39   T    
C140  H107  S    
C22   C40   T    
C94   H54   S    
C149  H133  S    
C259  H85   S    
C32   C50   T    
C107  C152  S    
C9    C17   S    
C176  C177  S    
C166  C167  S    
C13   C101  A    
C243  O13   A    
C186  C204  A    
O3    Zn2   S    
C171  H15   S    
C172  C173  S    
C98   C117  A    
C144  H111  S    
C58   C63   T    
O1    Zn12  S    
C180  H41   S    
C59   C62   T    
O40   Zn10  S    
C149  H132  S    
C220  C247  A    
C72   O51   S    
C14   O28   A    
C78   N5    A    
O45   Zn4   S    
C224  C250  A    
C83   O62   S    
C137  C138  S    
C133  H92   S    
C99   C131  A    
C169  H20   S    
C160  C161  S    
C243  O8    A    
C208  C247  A    
C97   C129  A    
C134  H89   S    
C68   C238  A    
C99   C118  A    
C15   O36   A    
C84   N6    A    
C134  H88   S    
C191  C208  A    
C102  H62   S    
C258  H83   S    
C80   N6    A    
C203  C252  A    
C201  C250  A    
C241  C254  A    
C157  C200  A    
C153  C154  S    
C77   C157  A    
C206  H46   S    
C160  H154  S    
