data_mof_unit_60724.cif
_audit_creation_date              2012-12-10T21:35:50-0500
_audit_creation_method            fapswitch 2.2
_symmetry_space_group_name_H-M    P1
_symmetry_Int_Tables_number       1
_space_group_crystal_system       triclinic
_cell_length_a                    16.146672
_cell_length_b                    15.745577
_cell_length_c                    16.750542
_cell_angle_alpha                 90.314766
_cell_angle_beta                  87.463499
_cell_angle_gamma                 92.405777
_cell_volume                      4250.68491868

loop_
_atom_site_label
_atom_site_type_symbol
_atom_type_description
_atom_site_fract_x
_atom_site_fract_y
_atom_site_fract_z
_atom_type_partial_charge
C1    C     C_R   0.511502 0.500052 0.346932 0.969495
C2    C     C_R   0.467508 0.425596 0.226855 -0.296034
C3    C     C_R   0.476669 0.406504 0.146232 0.426308
C4    C     C_R   0.500181 0.338206 0.499874 0.904300
C5    C     C_R   0.538939 0.450014 0.099402 0.169873
C6    C     C_R   0.594238 0.508102 0.134240 -0.263443
C7    C     C_R   0.585382 0.527164 0.215161 0.381080
C8    C     C_R   0.542468 0.435254 0.857044 -0.152998
C9    C     C_R   0.545277 0.446937 0.775457 -0.258973
C10   C     C_R   0.475893 0.465690 0.904391 0.317321
C11   C     C_R   0.481627 0.488131 0.739317 -0.045449
C12   C     C_3   0.578524 0.953296 0.450492 -0.372154
C13   C     C_R   0.412705 0.515868 0.785595 0.079711
C14   C     C_R   0.410584 0.503816 0.868385 -0.194309
C15   C     C_R   0.240521 0.547245 0.535221 -0.125887
C16   C     C_R   0.488677 0.498703 0.653155 0.858246
C17   C     C_R   0.153467 0.550009 0.534212 0.330899
C18   C     C_R   0.108876 0.490758 0.485985 0.185994
C19   C     C_R   0.154831 0.432850 0.440543 -0.358170
C20   C     C_R   0.241426 0.432759 0.443334 0.512995
C21   C     C_R   0.851810 0.469765 0.460863 -0.291550
C22   C     C_R   0.765115 0.466573 0.456389 0.048119
C23   C     C_3   0.499859 0.917379 0.497246 0.160629
C24   C     C_R   0.889957 0.518610 0.521193 0.320476
C25   C     C_R   0.751799 0.558166 0.568222 -0.033665
C26   C     C_R   0.838592 0.563456 0.575382 0.003655
C27   C     C_R   0.499823 0.661800 0.500004 0.907875
C28   C     C_3   0.578673 0.051584 0.449047 0.250329
C29   C     C_3   0.422240 0.046649 0.458490 -0.484032
C30   C     C_3   0.420551 0.948281 0.458687 0.251210
C31   C     C_1   0.499591 0.750632 0.499203 -0.118190
C32   C     C_3   0.501391 0.082674 0.497947 0.158492
C33   C     C_3   0.501379 0.951181 0.584235 -0.478803
C34   C     C_3   0.501220 0.049126 0.584742 -0.360686
C35   C     C_1   0.499593 0.825903 0.498302 -0.008613
C36   C     C_1   0.500927 0.174126 0.498581 -0.001363
C37   C     C_1   0.500557 0.249386 0.499219 -0.102526
C38   C     C_R   0.520582 0.486562 0.261441 -0.207704
Cl1   Cl    Cl    0.674367 0.096297 0.484868 -0.590665
Cl2   Cl    Cl    0.653321 0.605532 0.254774 -0.554042
Cl3   Cl    Cl    0.409860 0.327941 0.105548 -0.515474
Cl4   Cl    Cl    0.294520 0.358188 0.384926 -0.569839
Cl5   Cl    Cl    0.106731 0.631016 0.591060 -0.573546
Cl6   Cl    Cl    0.409178 0.907289 0.359274 -0.555853
H1    H     H_    0.580832 0.928407 0.388182 0.211364
H2    H     H_    0.736173 0.428754 0.410378 0.157277
H3    H     H_    0.888212 0.433818 0.417828 0.182512
H4    H     H_    0.122977 0.387381 0.402602 0.214295
H5    H     H_    0.711805 0.592306 0.609547 0.138691
H6    H     H_    0.274748 0.592266 0.571580 0.191620
H7    H     H_    0.365878 0.068830 0.491754 0.190876
H8    H     H_    0.420424 0.071321 0.396462 0.235648
H9    H     H_    0.364899 0.924506 0.494810 0.139402
H10   H     H_    0.556294 0.075359 0.615684 0.232049
H11   H     H_    0.445200 0.070139 0.619321 0.182183
H12   H     H_    0.634818 0.931272 0.478891 0.218320
H13   H     H_    0.557686 0.930132 0.613320 0.213638
H14   H     H_    0.371301 0.617310 0.728857 0.178655
H15   H     H_    0.299327 0.570537 0.791200 0.206710
H16   H     H_    0.828697 0.639361 0.674873 0.182510
H17   H     H_    0.908212 0.664830 0.610547 0.241876
H18   H     H_    0.446367 0.925153 0.619947 0.186516
H19   H     H_    0.597602 0.423433 0.740437 0.183255
H20   H     H_    0.593301 0.403937 0.882916 0.173389
H21   H     H_    0.641732 0.541532 0.097379 0.202338
H22   H     H_    0.359537 0.526839 0.905483 0.160062
H23   H     H_    0.575585 0.072678 0.385950 0.143164
H24   H     H_    0.419864 0.391554 0.262802 0.249725
N1    N     N_2   0.541610 0.443913 0.015985 -0.156746
N2    N     N_2   0.474899 0.464405 0.988571 -0.120814
N3    N     N_R   0.283090 0.489740 0.490280 -0.147303
N4    N     N_2   0.020514 0.487064 0.477486 -0.145368
N5    N     N_2   0.978135 0.523558 0.530549 -0.072329
N6    N     N_R   0.716930 0.510260 0.509710 -0.101344
N7    N     N_3   0.347032 0.558249 0.748992 -0.414962
N8    N     N_3   0.874986 0.613531 0.637692 -0.393252
O1    O     O_R   0.577460 0.503670 0.387340 -0.585226
O2    O     O_R   0.438160 0.497080 0.381100 -0.579359
O3    O     O_R   0.569680 0.380440 0.503120 -0.616271
O4    O     O_R   0.430380 0.373850 0.496890 -0.568631
O5    O     O_R   0.561840 0.502920 0.618900 -0.637623
O6    O     O_R   0.422540 0.496330 0.612660 -0.597988
O7    O     O_R   0.569620 0.626150 0.503110 -0.604119
O8    O     O_R   0.430320 0.619560 0.496880 -0.615092
Zn1   Zn    Zn3+2 0.593020 0.504400 0.504170 0.992998
Zn2   Zn    Zn3+2 0.406980 0.495600 0.495830 1.024320

loop_
_geom_bond_atom_site_label_1
_geom_bond_atom_site_label_2
_ccdc_geom_bond_type
C8    C9    A    
C1    O1    A    
C19   C20   A    
C12   C23   S    
C12   C28   S    
C32   C36   S    
C36   C37   T    
C24   C26   A    
C4    O4    A    
C29   C32   S    
C2    H24   S    
C5    C6    A    
C24   N5    S    
C18   C19   A    
C25   N6    A    
C15   H6    S    
O4    Zn2   S    
C6    H21   S    
C3    Cl3   S    
C13   N7    S    
C33   H18   S    
C23   C33   S    
C26   N8    S    
C7    Cl2   S    
C20   N3    A    
O2    Zn2   S    
O1    Zn1   S    
C34   H11   S    
C13   C14   A    
C1    O2    A    
C30   Cl6   S    
H14   N7    S    
C17   C18   A    
H17   N8    S    
C18   N4    S    
C30   H9    S    
C27   C31   S    
C23   C30   S    
C28   C32   S    
C28   H23   S    
C4    O3    A    
C10   C14   A    
C19   H4    S    
N4    N5    D    
C28   Cl1   S    
C25   C26   A    
O6    Zn2   S    
C5    N1    S    
H16   N8    S    
C32   C34   S    
C17   Cl5   S    
C29   C30   S    
N3    Zn2   S    
C11   C16   S    
C2    C38   A    
C16   O6    A    
C33   C34   S    
C14   H22   S    
C9    C11   A    
C12   H12   S    
C1    C38   S    
C8    H20   S    
C10   N2    S    
O7    Zn1   S    
C34   H10   S    
C23   C35   S    
C31   C35   T    
C22   N6    A    
H15   N7    S    
O3    Zn1   S    
C29   H7    S    
C15   C17   A    
C27   O8    A    
C33   H13   S    
C22   H2    S    
C9    H19   S    
O8    Zn2   S    
C12   H1    S    
C3    C5    A    
C20   Cl4   S    
C6    C7    A    
C15   N3    A    
C27   O7    A    
C2    C3    A    
C11   C13   A    
C16   O5    A    
C7    C38   A    
N6    Zn1   S    
N1    N2    D    
C25   H5    S    
C4    C37   S    
C8    C10   A    
C21   C24   A    
C21   C22   A    
O5    Zn1   S    
C21   H3    S    
C29   H8    S    
