data_mof_unit_24808.cif
_audit_creation_date              2012-12-10T16:47:50-0500
_audit_creation_method            fapswitch 2.2
_symmetry_space_group_name_H-M    P1
_symmetry_Int_Tables_number       1
_space_group_crystal_system       triclinic
_cell_length_a                    7.93412
_cell_length_b                    8.554646
_cell_length_c                    10.767344
_cell_angle_alpha                 93.734517
_cell_angle_beta                  85.410971
_cell_angle_gamma                 92.695873
_cell_volume                      726.285677504

loop_
_atom_site_label
_atom_site_type_symbol
_atom_type_description
_atom_site_fract_x
_atom_site_fract_y
_atom_site_fract_z
_atom_type_partial_charge
C1    C     C_R   0.544176 0.794100 0.505490 0.880586
C2    C     C_2   0.563917 0.956931 0.535873 -0.188735
C3    C     C_2   0.763227 0.658897 0.102498 0.387157
C4    C     C_3   0.374165 0.226455 0.081655 -0.766250
C5    C     C_3   0.871765 0.315047 0.950536 -0.718444
C6    C     C_2   0.711581 0.013881 0.606472 0.395217
C7    C     C_3   0.925019 0.228676 0.329002 -0.675219
C8    C     C_3   0.071959 0.725573 0.710158 -0.741382
C9    C     C_2   0.435284 0.043392 0.511389 -0.373628
C10   C     C_R   0.502513 0.504133 0.736535 0.950287
C11   C     C_R   0.456274 0.206865 0.508246 0.980840
C12   C     C_R   0.499155 0.501152 0.263768 0.934355
C13   C     C_2   0.632128 0.540837 0.059953 -0.071983
C14   C     C_2   0.497300 0.485643 0.131582 0.003455
C15   C     C_2   0.642624 0.495455 0.928452 0.171753
C16   C     C_2   0.512710 0.536494 0.866875 -0.346965
H1    H     H_    0.409586 0.601463 0.915298 0.136025
H2    H     H_    0.783567 0.241236 0.009408 0.243884
H3    H     H_    0.950392 0.393625 0.010886 0.203014
H4    H     H_    0.830803 0.956187 0.590000 0.080763
H5    H     H_    0.145165 0.339477 0.374458 0.277782
H6    H     H_    0.996822 0.163366 0.250962 0.200229
H7    H     H_    0.805285 0.259699 0.293532 0.267724
H8    H     H_    0.901154 0.150286 0.407121 0.235296
H9    H     H_    0.855055 0.656049 0.629984 0.260914
H10   H     H_    0.999597 0.819112 0.763949 0.196346
H11   H     H_    0.195830 0.779394 0.679856 0.280806
H12   H     H_    0.319623 0.992493 0.474758 0.164944
H13   H     H_    0.087060 0.631251 0.773672 0.231788
H14   H     H_    0.883138 0.671612 0.047301 0.057134
H15   H     H_    0.243535 0.429907 0.115305 0.238947
H16   H     H_    0.264521 0.166333 0.038062 0.240711
H17   H     H_    0.373794 0.191251 0.179280 0.215849
H18   H     H_    0.491327 0.188434 0.027324 0.268969
H19   H     H_    0.858344 0.464958 0.808476 0.244244
H20   H     H_    0.956966 0.236541 0.891282 0.251438
N1    N     N_2   0.950320 0.457950 0.466680 0.033106
N2    N     N_2   0.049680 0.542050 0.533320 0.031304
N3    N     N_2   0.361110 0.394316 0.079726 -0.316368
N4    N     N_2   0.779498 0.405544 0.871383 -0.236952
N5    N     N_2   0.023659 0.366508 0.368097 -0.235711
N6    N     N_2   0.980409 0.666696 0.604953 -0.234348
O1    O     O_R   0.389250 0.738570 0.508180 -0.616630
O2    O     O_2   0.698500 0.119618 0.688038 -0.538245
O3    O     O_R   0.678390 0.711630 0.486820 -0.626201
O4    O     O_R   0.355470 0.513470 0.691600 -0.628087
O5    O     O_R   0.644610 0.486520 0.670240 -0.633693
O6    O     O_R   0.321610 0.288370 0.513180 -0.660907
O7    O     O_R   0.610750 0.261430 0.491820 -0.588506
O8    O     O_R   0.355390 0.513480 0.329760 -0.653393
O9    O     O_R   0.644530 0.486530 0.308400 -0.596151
O10   O     O_2   0.735363 0.749314 0.193576 -0.570061
Zn1   Zn    Zn3+2 0.306940 0.517990 0.514260 0.958279
Zn2   Zn    Zn3+2 0.693060 0.482010 0.485740 0.994711

loop_
_geom_bond_atom_site_label_1
_geom_bond_atom_site_label_2
_ccdc_geom_bond_type
H9    N6    S    
C10   O4    A    
C3    H14   S    
C12   O8    A    
C3    O10   D    
N1    N2    D    
C5    H3    S    
C7    H8    S    
C4    H16   S    
C7    H6    S    
C6    H4    S    
C3    C13   S    
C4    N3    S    
O9    Zn2   S    
C7    N5    S    
H19   N4    S    
C6    O2    D    
C13   C14   D    
C9    C11   S    
C1    O3    A    
C11   O6    A    
C2    C6    S    
N2    Zn1   S    
O5    Zn2   S    
C11   O7    A    
N1    Zn2   S    
O4    Zn1   S    
C12   C14   S    
O3    Zn2   S    
N2    N6    S    
C4    H18   S    
C13   C15   S    
N1    N5    S    
O6    Zn1   S    
C7    H7    S    
C15   N4    S    
O8    Zn1   S    
C8    H13   S    
O7    Zn2   S    
C5    H20   S    
C12   O9    A    
C8    H10   S    
C1    C2    S    
H5    N5    S    
C5    N4    S    
C10   O5    A    
H15   N3    S    
C8    H11   S    
C4    H17   S    
C10   C16   S    
C5    H2    S    
C14   N3    S    
C2    C9    D    
O1    Zn1   S    
C1    O1    A    
C15   C16   D    
C9    H12   S    
C8    N6    S    
C16   H1    S    
