data_mof_unit_5889.cif
_audit_creation_date              2012-10-26T18:28:19-0400
_audit_creation_method            fapswitch 2.2
_symmetry_space_group_name_H-M    P1
_symmetry_Int_Tables_number       1
_space_group_crystal_system       triclinic
_cell_length_a                    27.705508
_cell_length_b                    10.962825
_cell_length_c                    9.938115
_cell_angle_alpha                 111.856386
_cell_angle_beta                  97.356009
_cell_angle_gamma                 92.380041
_cell_volume                      2765.407337

loop_
_atom_site_label
_atom_site_type_symbol
_atom_type_description
_atom_site_fract_x
_atom_site_fract_y
_atom_site_fract_z
_atom_type_partial_charge
C1    C     C_R   0.495410 0.253357 0.438987 0.583516
C2    C     C_R   0.866454 0.364239 0.371984 -0.043085
C3    C     C_R   0.354487 0.483691 0.501494 -0.030551
C4    C     C_R   0.646090 0.496536 0.491968 -0.074645
C5    C     C_R   0.968999 0.362823 0.393348 0.045148
C6    C     C_R   0.029671 0.597445 0.562847 -0.005337
C7    C     C_R   0.978808 0.603382 0.523426 0.001207
C8    C     C_R   0.020247 0.357722 0.427012 0.059522
C9    C     C_R   0.948304 0.483905 0.451942 -0.029333
C10   C     C_R   0.050505 0.477225 0.502247 -0.032885
C11   C     C_R   0.937954 0.252853 0.292761 0.425716
C12   C     C_R   0.506025 0.746296 0.560835 0.632734
C13   C     C_R   0.059510 0.703719 0.674422 0.377674
C14   C     C_R   0.887256 0.248514 0.289659 0.036065
C15   C     C_R   0.110626 0.704875 0.694873 0.018766
C16   C     C_R   0.407626 0.495499 0.500503 0.654185
C17   C     C_R   0.592659 0.500048 0.498297 0.556225
C18   C     C_R   0.042202 0.237410 0.402182 0.024058
C19   C     C_R   0.957765 0.724080 0.543467 0.035955
C20   C     C_2   0.487332 0.110954 0.401989 -0.018164
C21   C     C_2   0.516746 0.887902 0.598292 0.069498
C22   C     C_2   0.513317 0.057152 0.486073 -0.078227
C23   C     C_R   0.101942 0.476404 0.520419 -0.063652
C24   C     C_2   0.490273 0.947318 0.520680 -0.037867
C25   C     C_2   0.508991 0.504029 0.081736 0.179316
C26   C     C_2   0.510565 0.466508 0.918975 0.165202
C27   C     C_R   0.173089 0.366745 0.441148 0.483707
C28   C     C_R   0.824609 0.601841 0.489238 0.447380
C29   C     C_R   0.183100 0.594176 0.600884 0.474985
C30   C     C_R   0.816453 0.366360 0.386573 0.490577
C31   C     C_R   0.274986 0.550272 0.440275 0.473762
C32   C     C_R   0.710549 0.435110 0.341251 0.480401
C33   C     C_R   0.324728 0.550999 0.432983 0.397514
C34   C     C_R   0.896818 0.485094 0.437684 -0.050419
C35   C     C_R   0.661300 0.437684 0.353894 0.376333
C36   C     C_R   0.333205 0.408102 0.571965 -0.108274
C37   C     C_R   0.682161 0.546551 0.620408 -0.101360
C38   C     C_R   0.282916 0.413222 0.585677 -0.053033
C39   C     C_R   0.732404 0.535020 0.607310 -0.010229
C40   C     C_R   0.253940 0.483974 0.517683 0.176413
C41   C     C_R   0.746316 0.482909 0.465946 0.171781
C42   C     C_2   0.362353 0.319987 0.626358 0.303837
C43   C     C_2   0.667678 0.612648 0.767439 0.263012
C44   C     C_2   0.556153 0.961922 0.723218 0.304222
C45   C     C_R   0.122839 0.358147 0.450953 0.055151
C46   C     C_2   0.452838 0.027587 0.267843 0.256950
C47   C     C_2   0.519367 0.327708 0.842316 0.289854
C48   C     C_2   0.552600 0.590626 0.174988 0.278805
C49   C     C_2   0.514437 0.688817 0.944634 0.438250
C50   C     C_2   0.432412 0.381699 0.056223 0.492109
C51   C     C_2   0.260154 0.341671 0.666678 0.324305
C52   C     C_2   0.770400 0.580908 0.740710 0.364575
C53   C     C_2   0.114845 0.108200 0.363280 0.300180
C54   C     C_2   0.885056 0.853470 0.558366 0.386158
C55   C     C_2   0.857742 0.122893 0.194210 0.392576
C56   C     C_R   0.875792 0.606378 0.489384 0.019666
C57   C     C_2   0.139615 0.817760 0.817789 0.376631
C58   C     C_2   0.014998 0.120792 0.411224 0.347006
C59   C     C_2   0.989069 0.842708 0.554902 0.372688
C60   C     C_2   0.435475 0.919707 0.494547 0.280200
C61   C     C_2   0.567264 0.094671 0.517608 0.232031
C62   C     C_R   0.093124 0.236257 0.399916 -0.012488
C63   C     C_R   0.906335 0.726377 0.532711 0.008265
C64   C     C_R   0.132340 0.593998 0.606103 -0.055375
Cu1   Cu    Cu3+1 0.508480 0.521810 0.644910 1.065854
Cu2   Cu    Cu3+1 0.491520 0.478190 0.355090 1.136650
F1    F     F_    0.628497 0.379421 0.229234 -0.586484
F2    F     F_    0.343970 0.618775 0.359366 -0.518667
F3    F     F_    0.723717 0.385629 0.205535 -0.516122
F4    F     F_    0.246806 0.614408 0.371197 -0.518574
F5    F     F_    0.956737 0.150245 0.194477 -0.574468
F6    F     F_    0.038626 0.798547 0.775873 -0.558726
H1    H     H_    0.353569 0.299233 0.719155 0.160014
H2    H     H_    0.765119 0.663115 0.838690 0.167316
H3    H     H_    0.098898 0.023875 0.265842 0.132417
H4    H     H_    0.870042 0.902319 0.658482 0.187770
H5    H     H_    0.832907 0.074102 0.238347 0.177250
H6    H     H_    0.172295 0.802279 0.879750 0.161593
H7    H     H_    0.024486 0.021490 0.354999 0.111859
H8    H     H_    0.019722 0.830329 0.494574 0.095069
H9    H     H_    0.412210 0.982732 0.459743 0.166294
H10   H     H_    0.581808 0.196212 0.546971 0.121759
H11   H     H_    0.643251 0.690122 0.785131 0.174734
H12   H     H_    0.559486 0.068786 0.771063 0.154029
H13   H     H_    0.452504 0.920896 0.226217 0.175395
H14   H     H_    0.550407 0.305569 0.784075 0.106205
H15   H     H_    0.588362 0.554801 0.166002 0.166978
H16   H     H_    0.542067 0.766378 0.955666 0.144100
H17   H     H_    0.412636 0.314035 0.090994 0.150758
H18   H     H_    0.272204 0.248217 0.664424 0.136251
N1    N     N_R   0.202024 0.481988 0.519019 -0.344500
N2    N     N_R   0.797133 0.483594 0.447432 -0.336970
N3    N     N_2   0.478780 0.445430 0.137360 -0.264115
N4    N     N_2   0.521220 0.554570 0.862640 -0.316662
O1    O     O_R   0.504520 0.332330 0.577400 -0.522236
O2    O     O_2   0.802128 0.713737 0.533621 -0.483329
O3    O     O_2   0.787312 0.253030 0.344672 -0.441659
O4    O     O_2   0.213336 0.705786 0.671869 -0.437474
O5    O     O_2   0.395139 0.264584 0.563914 -0.478473
O6    O     O_2   0.681776 0.578523 0.868425 -0.451559
O7    O     O_2   0.585299 0.903906 0.774218 -0.483785
O8    O     O_2   0.424471 0.077057 0.203131 -0.439894
O9    O     O_2   0.493527 0.237361 0.847870 -0.510625
O10   O     O_2   0.549732 0.706190 0.249923 -0.462392
O11   O     O_2   0.476670 0.718297 0.995218 -0.463271
O12   O     O_R   0.495480 0.667670 0.422600 -0.442189
O13   O     O_2   0.413240 0.407107 0.953373 -0.485310
O14   O     O_2   0.227912 0.387282 0.738413 -0.426039
O15   O     O_2   0.807691 0.525738 0.743501 -0.443224
O16   O     O_2   0.149043 0.094489 0.445408 -0.401040
O17   O     O_2   0.884087 0.903411 0.466972 -0.423990
O18   O     O_2   0.862133 0.070457 0.064971 -0.392217
O19   O     O_2   0.126857 0.929284 0.852621 -0.371045
O20   O     O_2   0.982554 0.135521 0.486706 -0.412879
O21   O     O_2   0.982496 0.953625 0.636403 -0.355853
O22   O     O_2   0.415284 0.831623 0.520606 -0.414105
O23   O     O_R   0.490210 0.295500 0.332650 -0.471625
O24   O     O_2   0.595944 0.010449 0.499899 -0.420664
O25   O     O_R   0.509790 0.704500 0.667350 -0.502469
O26   O     O_R   0.437420 0.518430 0.622370 -0.445700
O27   O     O_R   0.562580 0.481570 0.377630 -0.465207
O28   O     O_R   0.423110 0.481600 0.377610 -0.473708
O29   O     O_R   0.576890 0.518400 0.622390 -0.536681
O30   O     O_2   0.192953 0.262600 0.351564 -0.417551

loop_
_geom_bond_atom_site_label_1
_geom_bond_atom_site_label_2
_ccdc_geom_bond_type
C53   O16   D    
C26   N4    D    
C38   C40   A    
C25   N3    D    
C23   C45   A    
C55   O18   D    
C43   H11   S    
C36   C42   S    
C28   C56   A    
C39   C41   A    
C34   C56   A    
C46   O8    D    
C30   O3    S    
C29   O4    S    
C52   O15   D    
C5    C11   A    
C52   H2    S    
C61   H10   S    
C16   O26   A    
C51   H18   S    
C55   H5    S    
C11   C14   A    
C11   F5    S    
C54   C63   S    
C3    C33   A    
C21   C44   S    
C45   C62   A    
C31   C40   A    
C60   H9    S    
C16   O28   A    
C18   C58   S    
C31   F4    S    
C19   C63   A    
C51   O14   D    
C1    C20   S    
Cu2   O23   S    
C15   C64   A    
C31   C33   A    
C27   N1    A    
C44   O7    D    
C49   N4    S    
C1    O1    A    
C46   H13   S    
C2    C34   A    
C14   C55   S    
C29   C64   A    
C15   C57   S    
C49   H16   S    
C53   H3    S    
Cu2   O12   S    
C17   O29   A    
C56   C63   A    
C47   O9    D    
C47   H14   S    
C43   O6    D    
C30   N2    A    
C18   C62   A    
Cu2   O27   S    
C38   C51   S    
C19   C59   S    
C25   C26   S    
C12   C21   S    
C8    C18   A    
C37   C43   S    
C32   C35   A    
C5    C9    A    
C12   O25   A    
C53   C62   S    
C50   H17   S    
C35   F1    S    
C24   C60   S    
Cu2   O28   S    
Cu1   O25   S    
C48   H15   S    
C28   N2    A    
C1    O23   A    
C25   C48   S    
C6    C7    A    
C58   H7    S    
Cu2   N3    S    
C54   H4    S    
C4    C17   S    
C26   C47   S    
C17   O27   A    
C23   C64   A    
C20   C22   D    
C7    C19   A    
C13   C15   A    
C9    C34   A    
C22   C24   S    
C60   O22   D    
C32   C41   A    
C29   N1    A    
C7    C9    A    
Cu1   N4    S    
C42   H1    S    
C61   O24   D    
C57   H6    S    
C8    C10   A    
C49   O11   D    
C44   H12   S    
C59   H8    S    
C6    C10   A    
C5    C8    A    
C57   O19   D    
C27   O30   S    
C50   N3    S    
C32   F3    S    
C13   F6    S    
C10   C23   A    
C2    C30   A    
C28   O2    S    
C36   C38   A    
C37   C39   A    
C42   O5    D    
C22   C61   S    
C12   O12   A    
C27   C45   A    
C50   O13   D    
C3    C36   A    
Cu1   O26   S    
C54   O17   D    
C39   C52   S    
Cu1   O29   S    
C40   N1    S    
C2    C14   A    
C4    C35   A    
Cu1   O1    S    
C41   N2    S    
C4    C37   A    
C59   O21   D    
Cu1   Cu2   S    
C21   C24   D    
C58   O20   D    
C20   C46   S    
C3    C16   S    
C33   F2    S    
C6    C13   A    
C48   O10   D    
