data_mof_unit_9671.cif
_audit_creation_date              2012-12-11T14:45:28-0500
_audit_creation_method            fapswitch 2.2
_symmetry_space_group_name_H-M    P1
_symmetry_Int_Tables_number       1
_space_group_crystal_system       triclinic
_cell_length_a                    25.150526
_cell_length_b                    7.166588
_cell_length_c                    14.412336
_cell_angle_alpha                 90.158896
_cell_angle_beta                  102.982004
_cell_angle_gamma                 89.88316
_cell_volume                      2531.32065227

loop_
_atom_site_label
_atom_site_type_symbol
_atom_type_description
_atom_site_fract_x
_atom_site_fract_y
_atom_site_fract_z
_atom_type_partial_charge
O1    O     O_R   0.319150 0.364170 0.330530 -0.529651
O2    O     O_R   0.680850 0.635830 0.669470 -0.535099
O3    O     O_R   0.180850 0.864170 0.169470 -0.529000
O4    O     O_R   0.819150 0.135830 0.830530 -0.527934
O5    O     O_R   0.210330 0.696850 0.354180 -0.531543
O6    O     O_R   0.789670 0.303150 0.645820 -0.538348
O7    O     O_R   0.289670 0.196850 0.145820 -0.535682
O8    O     O_R   0.710330 0.803150 0.854180 -0.534898
C1    C     C_R   0.195980 0.524853 0.376613 0.736643
C2    C     C_R   0.803687 0.475177 0.622835 0.756183
C3    C     C_R   0.304093 0.024367 0.123533 0.753859
C4    C     C_R   0.696388 0.975895 0.877337 0.757473
O9    O     O_R   0.320550 0.694110 0.341970 -0.530289
O10   O     O_R   0.679450 0.305890 0.658030 -0.542539
O11   O     O_R   0.179450 0.194110 0.158030 -0.541263
O12   O     O_R   0.820550 0.805890 0.841970 -0.529129
O13   O     O_R   0.291860 0.861000 0.157170 -0.539620
O14   O     O_R   0.708140 0.139000 0.842830 -0.537738
O15   O     O_R   0.208140 0.361000 0.342830 -0.541775
O16   O     O_R   0.791860 0.639000 0.657170 -0.536325
C5    C     C_R   0.341722 0.524988 0.362414 0.758185
C6    C     C_R   0.658487 0.475102 0.636804 0.742946
C7    C     C_R   0.158153 0.025072 0.138107 0.763737
C8    C     C_R   0.841711 0.974872 0.862491 0.763061
O17   O     O_3   0.240460 0.529330 0.189380 -0.369526
O18   O     O_3   0.759540 0.470670 0.810620 -0.360030
O19   O     O_3   0.259540 0.029330 0.310620 -0.363237
O20   O     O_3   0.740460 0.970670 0.689380 -0.378387
V1    V     V_3+5 0.251770 0.805510 0.261240 1.623151
V2    V     V_3+5 0.748230 0.194490 0.738760 1.578827
V3    V     V_3+5 0.248230 0.305510 0.238760 1.598493
V4    V     V_3+5 0.751770 0.694490 0.761240 1.597851
C9    C     C_R   0.102762 0.011881 0.074220 -0.234584
C10   C     C_R   0.896986 0.987470 0.927066 -0.231726
C11   C     C_R   0.397104 0.511620 0.426501 -0.229317
C12   C     C_R   0.603126 0.488227 0.572479 -0.230355
C13   C     C_R   0.955699 0.101127 0.074432 -0.168858
C14   C     C_R   0.044154 0.901617 0.925966 -0.176911
C15   C     C_R   0.544050 0.596738 0.424469 -0.169600
C16   C     C_R   0.456059 0.401593 0.574270 -0.172585
C17   C     C_R   0.903680 0.076349 0.016435 0.424510
C18   C     C_R   0.096254 0.931781 0.982840 0.424547
C19   C     C_R   0.596234 0.572207 0.481998 0.360654
C20   C     C_R   0.403918 0.426430 0.516559 0.429158
C21   C     C_R   0.943581 0.918805 0.897952 -0.093477
C22   C     C_R   0.055808 0.061866 0.107645 -0.097151
C23   C     C_R   0.556588 0.422412 0.602455 -0.085703
C24   C     C_R   0.443611 0.577538 0.396633 -0.094897
C25   C     C_R   0.996755 0.949020 0.957022 0.035733
C26   C     C_R   0.002773 0.036576 0.047350 0.043046
C27   C     C_R   0.503263 0.453956 0.544115 0.039598
C28   C     C_R   0.496901 0.545242 0.454873 0.046158
H1    H     H_    0.958912 0.175110 0.140744 0.209532
H2    H     H_    0.041243 0.845449 0.855523 0.210287
H3    H     H_    0.540862 0.654169 0.354377 0.208088
H4    H     H_    0.459132 0.343142 0.644121 0.209939
C29   C     C_R   0.664497 0.995434 0.951149 -0.106856
C30   C     C_R   0.336614 0.005607 0.050901 -0.112331
C31   C     C_R   0.835952 0.492305 0.549685 -0.123907
C32   C     C_R   0.163863 0.507490 0.449865 -0.105111
C33   C     C_R   0.655388 0.141581 0.099141 0.401586
C34   C     C_R   0.345910 0.862532 0.902734 0.427839
C35   C     C_R   0.844648 0.633523 0.400918 0.414125
C36   C     C_R   0.155159 0.366569 0.598417 0.426201
C37   C     C_R   0.685855 0.101636 0.031971 -0.221713
C38   C     C_R   0.315013 0.904008 0.968845 -0.221270
C39   C     C_R   0.813471 0.586938 0.465883 -0.159898
C40   C     C_R   0.185523 0.404596 0.531239 -0.212203
C41   C     C_R   0.609797 0.941117 0.932878 -0.183392
C42   C     C_R   0.391746 0.055485 0.071112 -0.184401
C43   C     C_R   0.891567 0.448903 0.571057 -0.192001
C44   C     C_R   0.109008 0.561107 0.431126 -0.194728
C45   C     C_R   0.575143 0.998075 0.993556 0.051103
C46   C     C_R   0.426495 0.999365 0.010439 0.047066
C47   C     C_R   0.925992 0.504248 0.509928 0.049321
C48   C     C_R   0.074559 0.506959 0.492486 0.058119
C49   C     C_R   0.599188 0.095151 0.079126 -0.002457
C50   C     C_R   0.402381 0.904870 0.924124 -0.004193
C51   C     C_R   0.901469 0.595915 0.423181 -0.013254
C52   C     C_R   0.098882 0.412152 0.578393 0.002104
C53   C     C_R   0.517282 0.967097 0.970466 0.082602
C54   C     C_R   0.484420 0.029384 0.033879 0.084554
C55   C     C_R   0.984016 0.476150 0.533403 0.089565
C56   C     C_R   0.016658 0.537901 0.469747 0.084294
C57   C     C_R   0.510634 0.117905 0.119217 -0.170306
C58   C     C_R   0.491072 0.879197 0.884961 -0.172968
C59   C     C_R   0.990198 0.625236 0.384427 -0.170586
C60   C     C_R   0.010499 0.389093 0.618814 -0.167741
C61   C     C_R   0.566266 0.150151 0.140890 -0.071469
C62   C     C_R   0.435390 0.848873 0.862718 -0.063460
C63   C     C_R   0.934364 0.653160 0.361979 -0.048333
C64   C     C_R   0.066181 0.358138 0.640468 -0.060740
H5    H     H_    0.582639 0.223521 0.206585 0.213428
H6    H     H_    0.419009 0.776831 0.796631 0.215506
H7    H     H_    0.917723 0.723471 0.295640 0.220303
H8    H     H_    0.082740 0.286015 0.706307 0.215024
H9    H     H_    0.406473 0.128133 0.137322 0.122060
H10   H     H_    0.595218 0.864466 0.867865 0.119127
H11   H     H_    0.094175 0.634644 0.365374 0.119736
H12   H     H_    0.906778 0.381388 0.638404 0.126309
H13   H     H_    0.274058 0.851252 0.957723 0.234478
H14   H     H_    0.726227 0.158847 0.041421 0.235692
H15   H     H_    0.226082 0.348300 0.541045 0.234040
H16   H     H_    0.771641 0.631325 0.452700 0.259817
H17   H     H_    0.489342 0.167007 0.171469 0.142520
H18   H     H_    0.512314 0.830409 0.832590 0.142404
H19   H     H_    0.011365 0.675190 0.332357 0.154050
H20   H     H_    0.989410 0.339778 0.671112 0.143320
C65   C     C_2   0.063292 0.132271 0.207099 0.348193
H21   H     H_    0.095011 0.233137 0.234870 0.051158
O21   O     O_2   0.036074 0.070794 0.260356 -0.523875
C66   C     C_2   0.935422 0.817490 0.805441 0.386937
H22   H     H_    0.905968 0.868534 0.743736 0.024662
O22   O     O_2   0.959102 0.670854 0.798774 -0.530173
C67   C     C_2   0.435181 0.678512 0.304254 0.385869
H23   H     H_    0.405996 0.626276 0.242431 0.023102
O23   O     O_2   0.458227 0.826155 0.297889 -0.529540
C68   C     C_2   0.565006 0.322603 0.695145 0.378286
H24   H     H_    0.593945 0.376151 0.756942 0.028205
O24   O     O_2   0.542254 0.174516 0.701836 -0.528764
S1    S     S_3+6 0.153217 0.875310 0.935776 0.056836
O25   O     O_2   0.184498 0.717607 0.991388 -0.309328
O26   O     O_2   0.135518 0.817786 0.833083 -0.272412
O27   O     O_3   0.192826 0.066295 0.945831 -0.504728
H25   H     H_    0.209622 0.062488 0.890132 0.405179
S2    S     S_3+6 0.846862 0.139679 0.062414 0.058270
O28   O     O_2   0.864531 0.199153 0.164864 -0.273170
O29   O     O_2   0.816377 0.297399 0.005548 -0.306171
O30   O     O_3   0.806499 0.950688 0.053406 -0.509209
H26   H     H_    0.792274 0.950679 0.111963 0.406150
S3    S     S_3+6 0.347139 0.366163 0.563057 0.061530
O31   O     O_2   0.316149 0.209311 0.506067 -0.304872
O32   O     O_2   0.364948 0.306352 0.665272 -0.272972
O33   O     O_3   0.307198 0.556567 0.554722 -0.506381
H27   H     H_    0.291730 0.554034 0.611926 0.406826
S4    S     S_3+6 0.652604 0.632897 0.434231 0.062178
O34   O     O_2   0.686757 0.460786 0.434168 -0.299282
O35   O     O_2   0.634399 0.703622 0.333994 -0.265665
O36   O     O_3   0.689968 0.799236 0.501039 -0.484203
H28   H     H_    0.664880 0.906925 0.497964 0.350139
S5    S     S_3+6 0.688695 0.260650 0.204061 0.087824
O37   O     O_2   0.664982 0.453270 0.202976 -0.271267
O38   O     O_2   0.679839 0.156574 0.289768 -0.283276
O39   O     O_3   0.756067 0.277185 0.210283 -0.426357
H29   H     H_    0.772108 0.316503 0.276590 0.415143
S6    S     S_3+6 0.312615 0.747257 0.797037 0.035780
O40   O     O_2   0.322639 0.853023 0.712643 -0.295962
O41   O     O_2   0.335623 0.553644 0.797677 -0.304207
O42   O     O_3   0.245030 0.733739 0.789335 -0.428113
H30   H     H_    0.229429 0.689618 0.723690 0.401451
S7    S     S_3+6 0.811325 0.750697 0.295871 0.048988
O43   O     O_2   0.834469 0.944038 0.297522 -0.307722
O44   O     O_2   0.821188 0.646019 0.210731 -0.294399
O45   O     O_3   0.743776 0.765610 0.288355 -0.410399
H31   H     H_    0.728469 0.817758 0.224325 0.398337
S8    S     S_3+6 0.188737 0.250695 0.703479 0.037647
O46   O     O_2   0.179501 0.357402 0.788465 -0.295743
O47   O     O_2   0.165313 0.058057 0.702750 -0.301205
O48   O     O_3   0.256159 0.234361 0.709965 -0.429127
H32   H     H_    0.271843 0.186387 0.774740 0.402373

loop_
_geom_bond_atom_site_label_1
_geom_bond_atom_site_label_2
_ccdc_geom_bond_type
O17   V3    S    
O1    C5    A    
S2    O28   D    
C59   C63   A    
O19   V1    S    
O13   V1    S    
O3    C7    A    
C56   C59   A    
O1    V3    S    
C44   C48   A    
S3    O33   S    
O15   V3    S    
C48   C56   A    
C66   O22   D    
C53   C54   A    
C21   C66   S    
O42   H30   S    
C14   C25   A    
C35   C51   A    
C50   C62   A    
C20   S3    S    
O7    C3    A    
C49   C61   A    
O5    C1    A    
C9    C18   A    
C36   C40   A    
O9    V1    S    
S8    O46   D    
O10   V2    S    
C14   C18   A    
S5    O38   D    
O48   H32   S    
O4    C8    A    
C32   C44   A    
C67   H23   S    
C64   H8    S    
C12   C23   A    
O2    V4    S    
S7    O45   S    
O3    V1    S    
C68   H24   S    
S1    O27   S    
C65   O21   D    
C31   C39   A    
C1    O15   A    
C23   C68   S    
C15   H3    S    
C60   C64   A    
C2    O16   A    
C67   O23   D    
C42   C46   A    
S7    O43   D    
C40   H15   S    
C41   C45   A    
O14   V2    S    
C3    C30   S    
C16   C20   A    
S6    O41   D    
C53   C58   A    
C42   H9    S    
C13   H1    S    
C41   H10   S    
O11   C7    A    
C55   C60   A    
O12   C8    A    
C16   H4    S    
C61   H5    S    
C9    C22   A    
C36   C52   A    
C38   H13   S    
C58   H18   S    
C10   C17   A    
C37   H14   S    
C46   C54   A    
S4    O36   S    
C57   H17   S    
C11   C24   A    
C45   C53   A    
C66   H22   S    
C30   C38   A    
C39   H16   S    
C62   H6    S    
O5    V1    S    
C35   C39   A    
O7    V3    S    
C34   C38   A    
C27   C28   A    
O8    V4    S    
S4    O35   D    
C58   C62   A    
S5    O39   S    
C33   C49   A    
C57   C61   A    
O18   V4    S    
C30   C42   A    
C15   C19   A    
S2    O30   S    
C7    C9    S    
C8    C10   S    
C52   C64   A    
O2    C6    A    
S6    O42   S    
C55   C56   A    
C14   H2    S    
C21   C25   A    
O8    C4    A    
O45   H31   S    
O9    C5    A    
C10   C21   A    
C11   C20   A    
C35   S7    S    
S1    O25   D    
C24   C67   S    
C4    C29   S    
C33   S5    S    
O6    V2    S    
C34   S6    S    
S3    O31   D    
C54   C57   A    
S6    O40   D    
O16   V4    S    
C36   S8    S    
C3    O13   A    
S2    O29   D    
C51   C63   A    
C17   S2    S    
C34   C50   A    
S8    O48   S    
C48   C52   A    
C29   C37   A    
S4    O34   D    
S3    O32   D    
O6    C2    A    
C23   C27   A    
O36   H28   S    
O11   V3    S    
O33   H27   S    
C5    C11   S    
O12   V4    S    
C16   C27   A    
C6    C12   S    
C43   H12   S    
C22   C26   A    
O39   H29   S    
C1    C32   S    
O10   C6    A    
S8    O47   D    
C2    C31   S    
O30   H26   S    
S5    O37   D    
C43   C47   A    
C13   C26   A    
C47   C55   A    
C60   H20   S    
O20   V2    S    
C15   C28   A    
S7    O44   D    
C13   C17   A    
C19   S4    S    
C68   O24   D    
S1    O26   D    
C63   H7    S    
C33   C37   A    
C24   C28   A    
C59   H19   S    
C32   C40   A    
C25   C26   A    
C46   C50   A    
C22   C65   S    
C4    O14   A    
C45   C49   A    
C12   C19   A    
C29   C41   A    
C65   H21   S    
C47   C51   A    
O4    V2    S    
C18   S1    S    
C31   C43   A    
O27   H25   S    
C44   H11   S    
