data_mof_unit_29793.cif
_audit_creation_date              2012-10-26T19:07:29-0400
_audit_creation_method            fapswitch 2.2
_symmetry_space_group_name_H-M    P1
_symmetry_Int_Tables_number       1
_space_group_crystal_system       triclinic
_cell_length_a                    15.003666
_cell_length_b                    13.871327
_cell_length_c                    10.612462
_cell_angle_alpha                 89.846485
_cell_angle_beta                  87.714373
_cell_angle_gamma                 89.975892
_cell_volume                      2206.9084453

loop_
_atom_site_label
_atom_site_type_symbol
_atom_type_description
_atom_site_fract_x
_atom_site_fract_y
_atom_site_fract_z
_atom_type_partial_charge
C1    C     C_R   0.329361 0.499990 0.498751 0.526748
C2    C     C_R   0.955220 0.531733 0.272547 0.059466
C3    C     C_R   0.446642 0.793844 0.586338 0.144604
C4    C     C_R   0.553472 0.206170 0.413803 0.141828
C5    C     C_R   0.553577 0.794148 0.413904 0.142102
C6    C     C_R   0.446269 0.205872 0.585914 0.134434
C7    C     C_R   0.554936 0.896992 0.413023 -0.010507
C8    C     C_R   0.445004 0.103033 0.586925 -0.010343
C9    C     C_R   0.445138 0.896669 0.587046 -0.010527
C10   C     C_R   0.554923 0.103351 0.413043 -0.009052
C11   C     C_R   0.499999 0.948337 0.499999 0.028326
C12   C     C_R   0.670624 0.499885 0.501602 0.529787
C13   C     C_R   0.500013 0.051686 0.500038 0.029994
C14   C     C_R   0.610935 0.950032 0.328447 -0.120887
C15   C     C_R   0.389036 0.049998 0.671538 -0.117299
C16   C     C_R   0.389150 0.949364 0.671654 -0.120374
C17   C     C_R   0.610901 0.050660 0.328427 -0.120235
C18   C     C_R   0.499651 0.500181 0.259491 0.556190
C19   C     C_R   0.500448 0.499812 0.740500 0.554174
C20   C     C_3   0.481181 0.589442 0.041164 -0.065751
C21   C     C_3   0.519002 0.410504 0.958805 -0.064677
C22   C     C_3   0.562508 0.561808 0.954726 -0.101066
C23   C     C_R   0.953009 0.488299 0.497720 -0.021179
C24   C     C_3   0.437679 0.438135 0.045246 -0.101507
C25   C     C_3   0.419530 0.526903 0.961633 -0.117686
C26   C     C_3   0.580654 0.473038 0.038350 -0.115710
C27   C     C_3   0.500770 0.499349 0.877462 0.029903
C28   C     C_3   0.499407 0.500605 0.122517 0.025223
C29   C     C_R   0.814781 0.522182 0.395320 -0.137386
C30   C     C_R   0.185480 0.469968 0.601809 -0.142248
C31   C     C_R   0.766870 0.498659 0.504810 -0.002771
C32   C     C_R   0.233160 0.499159 0.494490 -0.003255
C33   C     C_R   0.809338 0.469204 0.613610 0.089127
C34   C     C_R   0.047224 0.488609 0.493546 -0.021312
C35   C     C_R   0.190662 0.522156 0.383164 0.093732
C36   C     C_R   0.904042 0.464058 0.612089 0.060412
C37   C     C_R   0.096125 0.516418 0.380508 0.065150
C38   C     C_2   0.090764 0.393742 0.825784 0.241084
C39   C     C_2   0.909446 0.544471 0.151393 0.229801
C40   C     C_2   0.390616 0.740944 0.680683 0.273176
C41   C     C_2   0.609641 0.259084 0.319631 0.279515
C42   C     C_2   0.610891 0.741600 0.321045 0.273737
C43   C     C_2   0.388541 0.258443 0.678232 0.289921
C44   C     C_R   0.907514 0.513654 0.387693 -0.005454
C45   C     C_R   0.092754 0.462307 0.603218 -0.007171
C46   C     C_R   0.951638 0.434373 0.719286 0.079495
C47   C     C_R   0.048643 0.535683 0.269302 0.090404
C48   C     C_R   0.045050 0.431300 0.713471 0.052633
Cu1   Cu    Cu3+1 0.500000 0.597420 0.500000 0.958059
Cu2   Cu    Cu3+1 0.500000 0.402580 0.500000 0.964368
H1    H     H_    0.353628 0.548834 0.927063 0.141747
H2    H     H_    0.343867 0.085504 0.738474 0.163705
H3    H     H_    0.344069 0.913556 0.738656 0.151365
H4    H     H_    0.656014 0.086465 0.261466 0.152583
H5    H     H_    0.713673 0.389728 0.707228 0.255121
H6    H     H_    0.716471 0.508037 0.748920 0.231858
H7    H     H_    0.289449 0.495592 0.251105 0.231932
H8    H     H_    0.279891 0.612984 0.295724 0.252450
H9    H     H_    0.871937 0.461372 0.875636 0.295693
H10   H     H_    0.867239 0.344160 0.819394 0.279010
H11   H     H_    0.126926 0.621293 0.153234 0.267305
H12   H     H_    0.646545 0.451083 0.072931 0.177021
H13   H     H_    0.134702 0.498592 0.122945 0.269672
H14   H     H_    0.067592 0.414982 0.919855 0.151394
H15   H     H_    0.933593 0.597637 0.083014 0.133866
H16   H     H_    0.332006 0.702237 0.653091 0.111440
H17   H     H_    0.668339 0.297567 0.347355 0.125442
H18   H     H_    0.669400 0.703316 0.350186 0.112614
H19   H     H_    0.329695 0.295866 0.648669 0.144103
H20   H     H_    0.464691 0.662643 0.077009 0.196418
H21   H     H_    0.535461 0.337302 0.922928 0.196797
H22   H     H_    0.613563 0.612399 0.914728 0.150481
H23   H     H_    0.386628 0.387524 0.085212 0.154604
H24   H     H_    0.777765 0.547295 0.316199 0.156875
H25   H     H_    0.222592 0.455770 0.685199 0.152663
H26   H     H_    0.656105 0.914539 0.261504 0.152322
N1    N     N_R   0.500000 0.743810 0.500000 -0.276657
N2    N     N_R   0.500000 0.256190 0.500000 -0.278584
N3    N     N_3   0.755570 0.447844 0.725226 -0.655431
N4    N     N_3   0.244290 0.550776 0.274350 -0.659073
N5    N     N_3   0.907719 0.403835 0.835392 -0.614198
N6    N     N_3   0.092731 0.555834 0.149386 -0.661477
O1    O     O_R   0.370260 0.582280 0.500030 -0.533197
O2    O     O_2   0.847835 0.492067 0.123911 -0.536321
O3    O     O_2   0.408071 0.743747 0.792026 -0.524221
O4    O     O_2   0.592222 0.256508 0.208272 -0.516383
O5    O     O_2   0.595206 0.744996 0.209126 -0.532567
O6    O     O_2   0.404206 0.255899 0.790172 -0.516887
O7    O     O_R   0.629740 0.417720 0.499970 -0.529077
O8    O     O_R   0.629740 0.582280 0.499970 -0.527659
O9    O     O_R   0.370260 0.417720 0.500030 -0.522303
O10   O     O_R   0.499980 0.582260 0.316850 -0.487633
O11   O     O_R   0.500020 0.417740 0.683150 -0.490991
O12   O     O_R   0.500020 0.582260 0.683150 -0.475675
O13   O     O_R   0.499980 0.417740 0.316850 -0.475012
O14   O     O_2   0.150887 0.334644 0.814546 -0.512132

loop_
_geom_bond_atom_site_label_1
_geom_bond_atom_site_label_2
_ccdc_geom_bond_type
C5    C42   S    
C8    C13   A    
C34   C37   A    
C30   C45   A    
H7    N4    S    
Cu1   O8    S    
C21   C26   S    
C41   H17   S    
C7    C11   A    
C41   O4    D    
H6    N3    S    
C21   H21   S    
C43   O6    D    
C12   O8    A    
C35   C37   A    
C9    C16   A    
C39   O2    D    
H11   N6    S    
C24   H23   S    
C6    N2    A    
C4    C41   S    
C10   C17   A    
C15   C16   A    
C35   N4    S    
C33   C36   A    
C47   N6    S    
C16   H3    S    
C2    C39   S    
C7    C14   A    
C2    C44   A    
C31   C33   A    
C36   C46   A    
Cu1   O12   S    
C37   C47   A    
C19   C27   S    
C38   C48   S    
C12   C31   S    
C19   O11   A    
H8    N4    S    
C21   C27   S    
C1    O9    A    
C40   H16   S    
C42   H18   S    
C18   O13   A    
C39   H15   S    
C14   C17   A    
C20   H20   S    
Cu2   N2    S    
C22   H22   S    
C38   H14   S    
C46   C48   A    
H13   N6    S    
C32   C35   A    
C24   C28   S    
C12   O7    A    
C18   C28   S    
C24   C25   S    
C5    C7    A    
C33   N3    S    
C6    C8    A    
C29   H24   S    
C20   C28   S    
C1    C32   S    
C23   C44   A    
C14   H26   S    
C40   O3    D    
C25   H1    S    
C4    N2    A    
C3    C9    A    
C46   N5    S    
H5    N3    S    
H10   N5    S    
Cu2   O7    S    
C23   C34   A    
C34   C45   A    
C15   H2    S    
C9    C11   A    
C19   O12   A    
C20   C22   S    
C3    C40   S    
C23   C36   A    
C8    C15   A    
C6    C43   S    
C29   C44   A    
C22   C26   S    
C1    O1    A    
Cu1   O10   S    
C4    C10   A    
C3    N1    A    
C45   C48   A    
H9    N5    S    
C10   C13   A    
Cu2   O11   S    
C2    C47   A    
C25   C27   S    
C26   C28   S    
C22   C27   S    
C18   O10   A    
Cu1   O1    S    
C26   H12   S    
C29   C31   A    
C30   C32   A    
C30   H25   S    
C11   C13   A    
Cu1   N1    S    
Cu2   O13   S    
Cu2   O9    S    
C43   H19   S    
Cu1   Cu2   S    
C20   C25   S    
C21   C24   S    
C38   O14   D    
C42   O5    D    
C5    N1    A    
C17   H4    S    
