data_mof_unit_60487.cif
_audit_creation_date              2012-12-10T19:16:31-0500
_audit_creation_method            fapswitch 2.2
_symmetry_space_group_name_H-M    P1
_symmetry_Int_Tables_number       1
_space_group_crystal_system       triclinic
_cell_length_a                    13.929095
_cell_length_b                    14.780432
_cell_length_c                    16.021302
_cell_angle_alpha                 90.037839
_cell_angle_beta                  89.982364
_cell_angle_gamma                 84.746084
_cell_volume                      3284.5755303

loop_
_atom_site_label
_atom_site_type_symbol
_atom_type_description
_atom_site_fract_x
_atom_site_fract_y
_atom_site_fract_z
_atom_type_partial_charge
C1    C     C_R   0.499967 0.500031 0.659039 0.820598
C2    C     C_R   0.500033 0.499969 0.340961 0.820598
C3    C     C_1   0.499960 0.499944 0.747925 -0.142041
C4    C     C_1   0.500039 0.500056 0.252075 -0.142041
C5    C     C_R   0.500572 0.049269 0.425770 -0.197412
C6    C     C_R   0.499428 0.950731 0.574229 -0.197412
C7    C     C_R   0.499995 0.097229 0.501710 0.003939
C8    C     C_R   0.500005 0.902771 0.498290 0.003938
C9    C     C_R   0.499412 0.046620 0.576960 0.190269
C10   C     C_R   0.500588 0.953380 0.423040 0.190269
C11   C     C_1   0.500019 0.197408 0.500576 0.156838
C12   C     C_1   0.499981 0.802592 0.499424 0.156839
C13   C     C_R   0.683318 0.485366 0.499977 0.825971
C14   C     C_R   0.316682 0.514634 0.500023 0.825971
C15   C     C_1   0.213963 0.523816 0.500002 -0.177782
C16   C     C_1   0.786037 0.476184 0.499998 -0.177783
C17   C     C_2   0.023645 0.538045 0.499934 0.168097
C18   C     C_2   0.976355 0.461955 0.500066 0.168097
C19   C     C_1   0.872558 0.468927 0.500026 0.021081
C20   C     C_1   0.127442 0.531073 0.499974 0.021080
C21   C     C_R   0.499030 0.418042 0.044685 0.247605
C22   C     C_R   0.500970 0.581958 0.955315 0.247605
C23   C     C_R   0.500033 0.501114 0.087448 -0.011449
C24   C     C_R   0.499967 0.498886 0.912552 -0.011449
C25   C     C_R   0.501010 0.583710 0.043150 0.062525
C26   C     C_R   0.498990 0.416290 0.956850 0.062525
C27   C     C_1   0.500040 0.500486 0.177166 0.061202
C28   C     C_1   0.499960 0.499514 0.822833 0.061202
Cu1   Cu    Cu3+1 0.499970 0.410780 0.500000 0.998482
Cu2   Cu    Cu3+1 0.500030 0.589220 0.500000 0.998482
H1    H     H_    0.501020 0.086882 0.367704 0.167552
H2    H     H_    0.498980 0.913118 0.632296 0.167552
N1    N     N_1   0.499970 0.723290 0.500020 -0.150277
N2    N     N_1   0.500030 0.276710 0.499980 -0.150277
O1    O     O_R   0.499950 0.424680 0.619690 -0.582128
O2    O     O_R   0.500050 0.575320 0.380310 -0.582128
O3    O     O_R   0.500000 0.575360 0.619690 -0.551248
O4    O     O_R   0.500000 0.424640 0.380310 -0.551248
O5    O     O_R   0.637820 0.414010 0.499980 -0.567182
O6    O     O_R   0.362180 0.585990 0.500020 -0.567182
O7    O     O_R   0.637870 0.564690 0.499980 -0.568933
O8    O     O_R   0.362130 0.435310 0.500020 -0.568933
C29   C     C_3   0.029097 0.368067 0.500263 -0.838321
H3    H     H_    0.977753 0.314779 0.500350 0.239546
H4    H     H_    0.075096 0.358553 0.443735 0.238194
H5    H     H_    0.074978 0.358900 0.556854 0.235632
C30   C     C_3   0.970903 0.631933 0.499737 -0.838320
H6    H     H_    0.022247 0.685220 0.499650 0.239546
H7    H     H_    0.925022 0.641100 0.443146 0.235632
H8    H     H_    0.924904 0.641447 0.556265 0.238194
C31   C     C_3   0.497901 0.325889 0.912374 -0.739138
H9    H     H_    0.497955 0.331397 0.843433 0.215184
H10   H     H_    0.562675 0.280694 0.930302 0.254981
H11   H     H_    0.432205 0.293325 0.930363 0.254685
C32   C     C_3   0.502098 0.674111 0.087626 -0.739138
H12   H     H_    0.502045 0.668603 0.156566 0.215184
H13   H     H_    0.567795 0.706675 0.069637 0.254685
H14   H     H_    0.437325 0.719306 0.069698 0.254981
Br1   Br    Br    0.497704 0.306086 0.107154 -0.510159
Br2   Br    Br    0.502296 0.693914 0.892846 -0.510159
C33   C     C_3   0.501236 0.908549 0.338503 -0.840779
H15   H     H_    0.501236 0.833654 0.342107 0.232842
H16   H     H_    0.436396 0.935335 0.302897 0.241034
H17   H     H_    0.566591 0.924138 0.303585 0.240595
C34   C     C_3   0.498763 0.091451 0.661497 -0.840779
H18   H     H_    0.498764 0.166346 0.657893 0.232842
H19   H     H_    0.433408 0.075863 0.696414 0.240595
H20   H     H_    0.563603 0.064665 0.697104 0.241034

loop_
_geom_bond_atom_site_label_1
_geom_bond_atom_site_label_2
_ccdc_geom_bond_type
Cu1   O4    S    
C33   H17   S    
C6    H2    S    
C32   H12   S    
Cu2   O7    S    
Cu1   Cu2   S    
C23   C27   S    
Cu1   O8    S    
C24   C28   S    
Cu1   O1    S    
C2    C4    S    
C30   H6    S    
C11   N2    T    
C1    O3    A    
C14   O8    A    
C31   H11   S    
C7    C9    A    
Cu1   O5    S    
C6    C9    A    
C13   O7    A    
C17   C18   D    
C13   C16   S    
Cu2   O6    S    
C5    C10   A    
C30   H7    S    
C32   H13   S    
Cu2   O3    S    
C26   C31   S    
C7    C11   S    
C17   C20   S    
C29   H4    S    
C33   H15   S    
C5    H1    S    
C16   C19   T    
Cu1   N2    S    
C3    C28   T    
C21   C26   A    
C24   C26   A    
C21   Br1   S    
C30   H8    S    
C9    C34   S    
C23   C25   A    
C29   H3    S    
C22   Br2   S    
C15   C20   T    
C29   H5    S    
C22   C24   A    
C13   O5    A    
C10   C33   S    
C31   H10   S    
C14   O6    A    
C31   H9    S    
C25   C32   S    
C34   H20   S    
C1    O1    A    
C8    C10   A    
C34   H18   S    
C32   H14   S    
C2    O2    A    
C5    C7    A    
C2    O4    A    
C14   C15   S    
C18   C19   S    
C6    C8    A    
C4    C27   T    
Cu2   N1    S    
C1    C3    S    
C12   N1    T    
C18   C29   S    
C21   C23   A    
C33   H16   S    
C8    C12   S    
C17   C30   S    
C34   H19   S    
C22   C25   A    
Cu2   O2    S    
