data_mof_unit_15510.cif
_audit_creation_date              2013-03-05T16:43:18-0500
_audit_creation_method            fapswitch 2.2
_symmetry_space_group_name_H-M    P1
_symmetry_Int_Tables_number       1
_space_group_crystal_system       triclinic
_cell_length_a                    15.736974
_cell_length_b                    10.654582
_cell_length_c                    9.881045
_cell_angle_alpha                 90.005674
_cell_angle_beta                  89.641387
_cell_angle_gamma                 90.09298
_cell_volume                      1656.72887

loop_
_atom_site_label
_atom_site_type_symbol
_atom_site_description
_atom_site_fract_x
_atom_site_fract_y
_atom_site_fract_z
_atom_type_partial_charge
O1    O     O_R   0.500010 0.316790 0.614690 -0.620464
O2    O     O_R   0.500000 0.316760 0.385350 -0.638024
C1    C     C_R   0.497914 0.260008 0.500230 0.897309
O3    O     O_R   0.377150 0.500020 0.614720 -0.596686
O4    O     O_R   0.377140 0.499990 0.385380 -0.580380
C2    C     C_R   0.338364 0.499881 0.500385 0.917962
Zn1   Zn    Zn3+2 0.500010 0.500020 0.653130 0.985499
Zn2   Zn    Zn3+2 0.499990 0.499980 0.346870 1.059132
O5    O     O_R   0.500000 0.683240 0.614650 -0.621067
O6    O     O_R   0.499990 0.683210 0.385310 -0.539710
O7    O     O_R   0.622860 0.500010 0.614620 -0.633628
O8    O     O_R   0.622850 0.499980 0.385280 -0.570926
C3    C     C_R   0.494597 0.739664 0.500151 0.927577
C4    C     C_R   0.661668 0.500087 0.499549 0.901210
C5    C     C_3   0.049257 0.461427 0.632173 -0.463623
C6    C     C_3   0.049134 0.413795 0.383175 0.157770
C7    C     C_3   0.950547 0.409485 0.388003 -0.433878
H1    H     H_    0.929393 0.312855 0.415169 0.170648
H2    H     H_    0.922186 0.430313 0.287690 0.231819
C8    C     C_1   0.750542 0.500958 0.498438 -0.123073
C9    C     C_3   0.082891 0.507689 0.492446 0.051598
C10   C     C_3   0.951305 0.465802 0.635733 -0.397190
C11   C     C_3   0.917269 0.503592 0.494999 0.193935
C12   C     C_3   0.949430 0.636923 0.458375 -0.400781
C13   C     C_3   0.047516 0.644193 0.471675 0.158407
C14   C     C_1   0.825849 0.502029 0.497015 -0.033231
C15   C     C_1   0.174366 0.504956 0.497633 0.034242
C16   C     C_1   0.249593 0.502198 0.500450 -0.019637
C17   C     C_R   0.502407 0.063251 0.620956 0.164247
C18   C     C_R   0.485131 0.128516 0.502850 -0.153643
C19   C     C_R   0.447916 0.066810 0.392923 -0.259197
H3    H     H_    0.424637 0.119256 0.307100 0.195584
C20   C     C_R   0.442680 0.936283 0.392936 0.309563
C21   C     C_R   0.478542 0.870940 0.503406 -0.236874
C22   C     C_R   0.499718 0.935717 0.620903 0.130415
C23   C     C_3   0.576128 0.925236 0.709533 -0.429794
C24   C     C_3   0.579038 0.067491 0.709434 -0.472489
C25   C     C_R   0.431623 0.454881 0.071868 0.177448
N1    N     N_R   0.499430 0.499140 0.142800 -0.165429
C26   C     C_R   0.564471 0.554746 0.070141 0.344952
C27   C     C_R   0.564248 0.553692 0.926473 -0.190415
N2    N     N_R   0.499430 0.499180 0.857150 -0.156981
C28   C     C_R   0.431478 0.455562 0.929307 0.169194
C29   C     C_3   0.396669 0.325361 0.923921 0.096538
C30   C     C_3   0.396792 0.324609 0.078014 -0.525819
H4    H     H_    0.332673 0.321379 0.125763 0.269710
H5    H     H_    0.443245 0.257033 0.120343 0.187381
H6    H     H_    0.925968 0.372177 0.665832 0.202007
H7    H     H_    0.074826 0.520816 0.715349 0.235961
H8    H     H_    0.929859 0.534824 0.713310 0.211271
H9    H     H_    0.929632 0.659960 0.353262 0.238487
N3    N     N_R   0.403024 0.873048 0.281325 0.238271
O9    O     O_R   0.350260 0.781132 0.303876 -0.325565
O10   O     O_R   0.408568 0.919634 0.159829 -0.360552
H10   H     H_    0.560238 0.884794 0.810312 0.235635
H11   H     H_    0.631358 0.881395 0.657122 0.200207
H12   H     H_    0.564888 0.109211 0.810177 0.215923
H13   H     H_    0.635889 0.106665 0.656877 0.201778
N4    N     N_R   0.634393 0.612533 0.137403 0.222833
O11   O     O_R   0.622894 0.717792 0.201341 -0.360658
O12   O     O_R   0.711465 0.578052 0.107112 -0.399397
H14   H     H_    0.070876 0.363639 0.651815 0.228108
H15   H     H_    0.616360 0.595909 0.870784 0.186485
N5    N     N_R   0.311324 0.321504 0.866079 0.255128
O13   O     O_R   0.294203 0.240853 0.771237 -0.371584
O14   O     O_R   0.253041 0.400783 0.904380 -0.315775
H16   H     H_    0.441102 0.256458 0.877242 0.125372
N6    N     N_R   0.081352 0.441766 0.246532 0.252225
O15   O     O_R   0.145015 0.377834 0.198090 -0.328422
O16   O     O_R   0.042882 0.521464 0.168107 -0.317698
H17   H     H_    0.072153 0.318232 0.410775 0.129028
H18   H     H_    0.061603 0.698761 0.565146 0.121187
N7    N     N_R   0.084739 0.715863 0.358173 0.250817
O17   O     O_R   0.054916 0.827035 0.331955 -0.341194
O18   O     O_R   0.155313 0.682184 0.299373 -0.270210
H19   H     H_    0.919773 0.707951 0.526473 0.171129

loop_
_geom_bond_atom_site_label_1
_geom_bond_atom_site_label_2
_geom_bond_distance
_ccdc_geom_bond_type
C10   H6    1.113462 S    
C6    C9    1.566531 S    
N7    O17   1.301457 A    
C22   C23   1.496327 S    
C30   H4    1.111695 S    
C29   N5    1.463431 S    
C20   N3    1.437620 S    
Zn1   O7    1.968041 S    
C7    C11   1.546574 S    
C23   C24   1.516286 S    
O4    C2    1.286478 A    
O7    C4    1.287285 A    
Zn1   N2    2.015915 S    
C21   C22   1.392560 A    
C27   N2    1.361523 A    
C11   C14   1.438766 S    
O5    C3    1.284576 A    
C25   C30   1.492579 S    
N6    O15   1.301143 A    
C5    C10   1.542429 S    
C2    C16   1.397244 S    
C6    C7    1.552510 S    
C11   C12   1.549403 S    
C19   C20   1.393009 A    
C6    N6    1.469641 S    
Zn2   N1    2.016518 S    
C24   H13   1.112352 S    
C10   H8    1.113450 S    
C12   H9    1.113740 S    
C9    C15   1.441117 S    
N4    O11   1.299505 A    
C26   N4    1.427746 S    
N7    O18   1.301146 A    
C6    H17   1.115708 S    
O3    Zn1   1.972673 S    
N3    O10   1.301482 A    
C7    H1    1.113857 S    
C30   H5    1.110549 S    
C25   N1    1.363792 A    
N4    O12   1.300969 A    
C4    C8    1.398601 S    
C12   C13   1.551789 S    
O3    C2    1.287447 A    
N1    C26   1.379503 A    
C12   H19   1.113730 S    
O1    C1    1.283152 A    
N5    O14   1.302337 A    
C1    C18   1.415258 S    
C28   C29   1.491716 S    
C17   C18   1.387123 A    
C23   H11   1.112414 S    
C19   H3    1.081779 S    
Zn2   O8    1.972673 S    
C20   C21   1.415570 A    
C13   H18   1.114556 S    
N3    O9    1.301265 A    
N6    O16   1.302207 A    
C26   C27   1.419662 A    
O8    C4    1.287117 A    
C25   C28   1.408689 A    
N2    C28   1.362631 A    
C27   H15   1.082070 S    
C29   C30   1.522636 S    
Zn1   O5    1.988855 S    
C9    C13   1.572078 S    
O1    Zn1   1.988808 S    
O2    Zn2   1.988855 S    
O6    C3    1.286659 A    
O4    Zn2   1.968039 S    
C17   C22   1.359412 A    
N5    O13   1.300561 A    
O2    C1    1.286403 A    
C3    C21   1.422053 S    
C23   H10   1.111941 S    
C18   C19   1.400585 A    
C8    C14   1.185128 T    
C7    H2    1.112121 S    
C5    H14   1.113991 S    
C13   N7    1.474632 S    
C5    H7    1.113987 S    
C5    C9    1.555446 S    
Zn2   O6    1.988808 S    
C17   C24   1.494543 S    
C15   C16   1.184748 T    
C10   C11   1.546908 S    
C29   H16   1.112731 S    
C24   H12   1.111554 S    
