data_mof_unit_30730.cif
_audit_creation_date              2012-10-26T18:33:58-0400
_audit_creation_method            fapswitch 2.2
_symmetry_space_group_name_H-M    P1
_symmetry_Int_Tables_number       1
_space_group_crystal_system       triclinic
_cell_length_a                    11.089886
_cell_length_b                    10.817624
_cell_length_c                    9.542181
_cell_angle_alpha                 89.579119
_cell_angle_beta                  102.838515
_cell_angle_gamma                 90.70203
_cell_volume                      1116.02477947

loop_
_atom_site_label
_atom_site_type_symbol
_atom_type_description
_atom_site_fract_x
_atom_site_fract_y
_atom_site_fract_z
_atom_type_partial_charge
C1    C     C_R   0.499360 0.262174 0.500164 0.543921
C2    C     C_2   0.872193 0.511014 0.593330 0.112770
C3    C     C_2   0.065782 0.512239 0.508317 -0.134711
C4    C     C_2   0.932595 0.490005 0.488782 -0.127189
C5    C     C_R   0.466875 0.064507 0.369793 -0.147343
C6    C     C_R   0.529503 0.935524 0.630361 -0.141771
C7    C     C_R   0.466568 0.936585 0.369620 -0.144083
C8    C     C_R   0.529019 0.063452 0.630667 -0.143339
C9    C     C_R   0.498887 0.871721 0.499710 0.022291
C10   C     C_R   0.498333 0.128313 0.500333 0.021393
C11   C     C_3   0.945039 0.461708 0.845408 -0.324887
C12   C     C_R   0.499741 0.737841 0.499718 0.545868
C13   C     C_3   0.066528 0.327501 0.231547 -0.314148
C14   C     C_3   0.225569 0.326467 0.815087 -0.313594
C15   C     C_3   0.651453 0.792218 0.141811 -0.319829
C16   C     C_R   0.262780 0.498969 0.441129 0.578948
C17   C     C_R   0.737160 0.501705 0.558758 0.558420
C18   C     C_R   0.428563 0.417814 0.057381 -0.004807
C19   C     C_R   0.573559 0.580355 0.943121 -0.012249
C20   C     C_R   0.427803 0.417544 0.908150 0.241704
C21   C     C_R   0.573394 0.581665 0.092261 0.241776
C22   C     C_2   0.127739 0.491058 0.404836 0.112735
Cu1   Cu    Cu3+1 0.500000 0.500020 0.640660 0.948545
Cu2   Cu    Cu3+1 0.500000 0.499980 0.359340 0.958563
H1    H     H_    0.439680 0.888614 0.268182 0.127455
H2    H     H_    0.855532 0.451753 0.878549 0.159124
H3    H     H_    0.983897 0.501001 0.220787 0.235877
H4    H     H_    0.012633 0.276075 0.298770 0.137525
H5    H     H_    0.162605 0.292115 0.253338 0.159756
H6    H     H_    0.023302 0.311019 0.116614 0.123503
H7    H     H_    0.393998 0.240675 0.832700 0.228529
H8    H     H_    0.207645 0.278830 0.912111 0.098902
H9    H     H_    0.174924 0.276444 0.718195 0.150724
H10   H     H_    0.190590 0.422268 0.811189 0.171588
H11   H     H_    0.742277 0.630396 0.218468 0.234030
H12   H     H_    0.554142 0.111370 0.732457 0.117067
H13   H     H_    0.706581 0.806272 0.058904 0.102920
H14   H     H_    0.692573 0.850219 0.236238 0.154025
H15   H     H_    0.554985 0.822630 0.098391 0.142930
H16   H     H_    0.441398 0.113262 0.268102 0.116216
H17   H     H_    0.554847 0.886783 0.732088 0.119190
H18   H     H_    0.881329 0.455232 0.386178 0.123985
H19   H     H_    0.116233 0.544425 0.612553 0.164896
H20   H     H_    0.372675 0.351522 0.100896 0.113562
H21   H     H_    0.633352 0.642813 0.900259 0.113604
H22   H     H_    0.903837 0.635994 0.759449 0.249700
H23   H     H_    0.016485 0.492348 0.939932 0.158838
H24   H     H_    0.971841 0.370401 0.810114 0.142020
N1    N     N_R   0.500030 0.500030 0.852080 -0.226112
N2    N     N_R   0.499970 0.499970 0.147920 -0.226632
N3    N     N_2   0.936026 0.552639 0.731730 -0.536268
N4    N     N_2   0.067043 0.458388 0.261540 -0.522836
N5    N     N_2   0.356269 0.327697 0.817358 -0.456981
N6    N     N_2   0.653719 0.663762 0.185887 -0.456361
O1    O     O_R   0.499990 0.319660 0.618740 -0.484832
O2    O     O_R   0.500010 0.680340 0.381260 -0.469288
O3    O     O_R   0.499990 0.319630 0.381170 -0.522323
O4    O     O_R   0.500010 0.680370 0.618830 -0.518904
O5    O     O_R   0.320690 0.500020 0.575130 -0.491023
O6    O     O_R   0.679310 0.499980 0.424870 -0.504967
O7    O     O_R   0.320680 0.499990 0.337560 -0.481763
O8    O     O_R   0.679320 0.500010 0.662440 -0.506660

loop_
_geom_bond_atom_site_label_1
_geom_bond_atom_site_label_2
_ccdc_geom_bond_type
C14   H10   S    
Cu1   O4    S    
C2    C4    D    
Cu1   Cu2   S    
C19   H21   S    
C15   H14   S    
Cu1   O1    S    
Cu2   O7    S    
C1    O3    A    
C17   O8    A    
Cu2   O2    S    
C13   N4    S    
C5    C7    A    
C19   N1    A    
C11   H23   S    
C7    H1    S    
C18   N2    A    
Cu2   O6    S    
C12   O4    A    
C6    C9    A    
C1    O1    A    
C5    C10   A    
C13   H4    S    
H7    N5    S    
C2    C17   S    
Cu1   O5    S    
C15   H15   S    
C11   H24   S    
C12   O2    A    
C4    H18   S    
C14   H9    S    
C20   N1    A    
C3    H19   S    
C22   N4    S    
C21   N2    A    
C19   C21   A    
C18   C20   A    
C8    H12   S    
Cu2   N2    S    
C21   N6    S    
C9    C12   S    
Cu1   N1    S    
C11   N3    S    
C16   O7    A    
C16   C22   S    
C17   O6    A    
C3    C4    S    
C15   N6    S    
C18   H20   S    
C14   N5    S    
C13   H6    S    
H3    N4    S    
C8    C10   A    
C2    N3    S    
C5    H16   S    
C13   H5    S    
C7    C9    A    
C15   H13   S    
C3    C22   D    
C6    C8    A    
C11   H2    S    
H22   N3    S    
C16   O5    A    
Cu1   O8    S    
C1    C10   S    
Cu2   O3    S    
C14   H8    S    
C20   N5    S    
H11   N6    S    
C6    H17   S    
