data_mof_unit_66008.cif
_audit_creation_date              2013-03-05T16:09:10-0500
_audit_creation_method            fapswitch 2.2
_symmetry_space_group_name_H-M    P1
_symmetry_Int_Tables_number       1
_space_group_crystal_system       triclinic
_cell_length_a                    36.159517
_cell_length_b                    36.130996
_cell_length_c                    25.55107
_cell_angle_alpha                 89.997816
_cell_angle_beta                  135.007167
_cell_angle_gamma                 90.000502
_cell_volume                      23601.6473075

loop_
_atom_site_label
_atom_site_type_symbol
_atom_site_description
_atom_site_fract_x
_atom_site_fract_y
_atom_site_fract_z
_atom_type_partial_charge
Zn1   Zn    Zn3+2 0.688630 0.719330 0.438590 0.973841
Zn2   Zn    Zn3+2 0.688630 0.280670 0.438590 0.974666
Zn3   Zn    Zn3+2 0.188630 0.219330 0.438590 0.973926
Zn4   Zn    Zn3+2 0.188630 0.780670 0.438590 0.974580
Zn5   Zn    Zn3+2 0.811460 0.719330 0.561410 0.975684
Zn6   Zn    Zn3+2 0.811460 0.280670 0.561410 0.973073
Zn7   Zn    Zn3+2 0.311460 0.219330 0.561410 0.975696
Zn8   Zn    Zn3+2 0.311460 0.780670 0.561410 0.973068
Zn9   Zn    Zn3+2 0.750040 0.780740 0.438590 0.973878
Zn10  Zn    Zn3+2 0.750040 0.219260 0.438590 0.974351
Zn11  Zn    Zn3+2 0.250040 0.280740 0.438590 0.973858
Zn12  Zn    Zn3+2 0.250040 0.719260 0.438590 0.974462
Zn13  Zn    Zn3+2 0.750030 0.780760 0.561410 0.986110
Zn14  Zn    Zn3+2 0.750030 0.219240 0.561410 0.984212
Zn15  Zn    Zn3+2 0.250030 0.280760 0.561410 0.986152
Zn16  Zn    Zn3+2 0.250030 0.719240 0.561410 0.984151
O1    O     O_3   0.750040 0.750040 0.500000 -0.479842
O2    O     O_3   0.750040 0.249960 0.500000 -0.479338
O3    O     O_3   0.250040 0.250040 0.500000 -0.479861
O4    O     O_3   0.250040 0.749960 0.500000 -0.479325
O5    O     O_R   0.810510 0.771550 0.663950 -0.638904
O6    O     O_R   0.810510 0.228450 0.663950 -0.639289
O7    O     O_R   0.310510 0.271550 0.663950 -0.638888
O8    O     O_R   0.310510 0.728450 0.663950 -0.639290
O9    O     O_R   0.646590 0.728530 0.336050 -0.637062
O10   O     O_R   0.646590 0.271470 0.336050 -0.636472
O11   O     O_R   0.146590 0.228530 0.336050 -0.636955
O12   O     O_R   0.146590 0.771470 0.336050 -0.636725
O13   O     O_R   0.793040 0.668060 0.542980 -0.634475
O14   O     O_R   0.793040 0.331940 0.542980 -0.634926
O15   O     O_R   0.293040 0.168060 0.542980 -0.634479
O16   O     O_R   0.293040 0.831940 0.542980 -0.634938
O17   O     O_R   0.750030 0.832020 0.457020 -0.640341
O18   O     O_R   0.750030 0.167980 0.457020 -0.640155
O19   O     O_R   0.250030 0.332020 0.457020 -0.640347
O20   O     O_R   0.250030 0.667980 0.457020 -0.640116
O21   O     O_R   0.853520 0.728540 0.542980 -0.628570
O22   O     O_R   0.853520 0.271460 0.542980 -0.632921
O23   O     O_R   0.353520 0.228540 0.542980 -0.628544
O24   O     O_R   0.353520 0.771460 0.542980 -0.632941
O25   O     O_R   0.689540 0.771550 0.542990 -0.626634
O26   O     O_R   0.689540 0.228450 0.542990 -0.628374
O27   O     O_R   0.189540 0.271550 0.542990 -0.626599
O28   O     O_R   0.189540 0.728450 0.542990 -0.628406
O29   O     O_R   0.810530 0.771520 0.457010 -0.643317
O30   O     O_R   0.810530 0.228480 0.457010 -0.641306
O31   O     O_R   0.310530 0.271520 0.457010 -0.643321
O32   O     O_R   0.310530 0.728480 0.457010 -0.641304
O33   O     O_R   0.646570 0.728550 0.457020 -0.642185
O34   O     O_R   0.646570 0.271450 0.457020 -0.641315
O35   O     O_R   0.146570 0.228550 0.457020 -0.642172
O36   O     O_R   0.146570 0.771450 0.457020 -0.641350
O37   O     O_R   0.707070 0.668050 0.457020 -0.641808
O38   O     O_R   0.707070 0.331950 0.457020 -0.641703
O39   O     O_R   0.207070 0.168050 0.457020 -0.641803
O40   O     O_R   0.207070 0.831950 0.457020 -0.641651
O41   O     O_R   0.750020 0.832030 0.542980 -0.630963
O42   O     O_R   0.750020 0.167970 0.542980 -0.631695
O43   O     O_R   0.250020 0.332030 0.542980 -0.630961
O44   O     O_R   0.250020 0.667970 0.542980 -0.631735
O45   O     O_R   0.853500 0.728560 0.663950 -0.639254
O46   O     O_R   0.853500 0.271440 0.663950 -0.639514
O47   O     O_R   0.353500 0.228560 0.663950 -0.639262
O48   O     O_R   0.353500 0.771440 0.663950 -0.639519
O49   O     O_R   0.689570 0.771520 0.336050 -0.637090
O50   O     O_R   0.689570 0.228480 0.336050 -0.637395
O51   O     O_R   0.189570 0.271520 0.336050 -0.637140
O52   O     O_R   0.189570 0.728480 0.336050 -0.637218
C1    C     C_R   0.849693 0.750058 0.699342 0.820175
C2    C     C_R   0.849691 0.249943 0.699342 0.820400
C3    C     C_R   0.349693 0.250057 0.699342 0.820172
C4    C     C_R   0.349690 0.749943 0.699342 0.820394
C5    C     C_R   0.650406 0.750018 0.300662 0.830762
C6    C     C_R   0.650402 0.249983 0.300661 0.830752
C7    C     C_R   0.150403 0.250019 0.300662 0.830742
C8    C     C_R   0.150402 0.749983 0.300661 0.830809
C9    C     C_R   0.750060 0.650355 0.499999 0.825911
C10   C     C_R   0.750059 0.349645 0.499998 0.825994
C11   C     C_R   0.250060 0.150355 0.499999 0.825908
C12   C     C_R   0.250059 0.849645 0.499998 0.826039
C13   C     C_R   0.750017 0.849719 0.499988 0.831335
C14   C     C_R   0.750017 0.150281 0.499990 0.831496
C15   C     C_R   0.250017 0.349719 0.499988 0.831327
C16   C     C_R   0.250017 0.650281 0.499989 0.831493
C17   C     C_R   0.849697 0.750038 0.499982 0.819986
C18   C     C_R   0.849692 0.249965 0.499979 0.822676
C19   C     C_R   0.349697 0.250038 0.499982 0.819976
C20   C     C_R   0.349692 0.749965 0.499979 0.822680
C21   C     C_R   0.650388 0.750052 0.500018 0.829643
C22   C     C_R   0.650387 0.249950 0.500024 0.830473
C23   C     C_R   0.150388 0.250052 0.500018 0.829652
C24   C     C_R   0.150387 0.749950 0.500024 0.830447
C25   C     C_3   0.529144 0.791095 0.514725 0.097350
C26   C     C_3   0.526926 0.208252 0.510015 0.071161
C27   C     C_3   0.029219 0.291081 0.514875 0.097329
C28   C     C_3   0.026809 0.708236 0.509781 0.071253
C29   C     C_3   0.484151 0.735486 0.425579 -0.373661
C30   C     C_3   0.484916 0.266139 0.426982 -0.365063
C31   C     C_3   0.984124 0.235553 0.425526 -0.373624
C32   C     C_3   0.984961 0.766238 0.427072 -0.365150
C33   C     C_3   0.441182 0.735140 0.425656 -0.472594
C34   C     C_3   0.441710 0.265787 0.426458 -0.493264
C35   C     C_3   0.941155 0.235207 0.425602 -0.472597
C36   C     C_3   0.941754 0.765887 0.426546 -0.493276
H1    H     H_    0.448677 0.804122 0.452235 0.163689
H2    H     H_    0.446630 0.195771 0.450740 0.159492
H3    H     H_    0.948776 0.304165 0.452434 0.163692
H4    H     H_    0.946479 0.695837 0.450438 0.159473
H5    H     H_    0.490324 0.706700 0.417505 0.174208
H6    H     H_    0.492452 0.295281 0.422544 0.172382
H7    H     H_    0.990245 0.206775 0.417347 0.174226
H8    H     H_    0.992578 0.795386 0.422797 0.172377
H9    H     H_    0.470560 0.751656 0.377667 0.221650
H10   H     H_    0.470971 0.251657 0.377378 0.222627
H11   H     H_    0.970563 0.251767 0.377674 0.221677
H12   H     H_    0.970976 0.751825 0.377387 0.222536
H13   H     H_    0.407024 0.751792 0.378229 0.183612
H14   H     H_    0.407531 0.249543 0.378101 0.188405
H15   H     H_    0.907027 0.251902 0.378235 0.183621
H16   H     H_    0.907530 0.749710 0.378098 0.188345
H17   H     H_    0.426787 0.706338 0.416960 0.192952
H18   H     H_    0.427615 0.294538 0.419191 0.192106
H19   H     H_    0.926707 0.206413 0.416800 0.192959
H20   H     H_    0.927739 0.794648 0.419439 0.192100
C37   C     C_1   0.389225 0.750048 0.499799 -0.140789
C38   C     C_1   0.389180 0.249902 0.499690 -0.136110
C39   C     C_1   0.889225 0.250048 0.499800 -0.140785
C40   C     C_1   0.889180 0.749901 0.499689 -0.136132
C41   C     C_3   0.536640 0.751091 0.499893 0.170697
C42   C     C_3   0.536443 0.248666 0.499540 0.186252
C43   C     C_3   0.036642 0.251090 0.499897 0.170641
C44   C     C_3   0.036439 0.748664 0.499532 0.186302
C45   C     C_3   0.482146 0.791319 0.506860 0.282756
C46   C     C_3   0.480863 0.208440 0.505011 0.287590
C47   C     C_3   0.982222 0.291311 0.507011 0.282749
C48   C     C_3   0.980747 0.708431 0.504779 0.287573
C49   C     C_3   0.463402 0.750698 0.500108 0.174011
C50   C     C_3   0.463249 0.249039 0.499713 0.201477
C51   C     C_3   0.963404 0.250698 0.500111 0.173990
C52   C     C_3   0.963246 0.749037 0.499707 0.201509
C53   C     C_3   0.509648 0.724679 0.561445 -0.421559
C54   C     C_3   0.510418 0.273401 0.563521 -0.410785
C55   C     C_3   0.009601 0.224622 0.561352 -0.421546
C56   C     C_3   0.010483 0.773310 0.563651 -0.410790
C57   C     C_3   0.553210 0.725890 0.562796 -0.475062
C58   C     C_3   0.554089 0.272194 0.564983 -0.484015
C59   C     C_3   0.053166 0.225832 0.562707 -0.475025
C60   C     C_3   0.054151 0.772101 0.565107 -0.484009
C61   C     C_1   0.422533 0.750243 0.499786 -0.057174
C62   C     C_1   0.422420 0.249636 0.499534 -0.020829
C63   C     C_1   0.922533 0.250243 0.499787 -0.057162
C64   C     C_1   0.922419 0.749634 0.499532 -0.020849
C65   C     C_1   0.577357 0.750494 0.499839 -0.035923
C66   C     C_1   0.577254 0.249389 0.499659 -0.038695
C67   C     C_1   0.077358 0.250494 0.499841 -0.035882
C68   C     C_1   0.077253 0.749387 0.499655 -0.038730
C69   C     C_1   0.610689 0.750199 0.499869 -0.116977
C70   C     C_1   0.610640 0.249754 0.499792 -0.119074
C71   C     C_1   0.110689 0.250199 0.499869 -0.116911
C72   C     C_1   0.110639 0.749753 0.499791 -0.119153
H21   H     H_    0.590172 0.736210 0.617579 0.167223
H22   H     H_    0.590490 0.260547 0.618683 0.166576
H23   H     H_    0.090147 0.236101 0.617529 0.167270
H24   H     H_    0.090519 0.760379 0.618741 0.166579
H25   H     H_    0.561075 0.697315 0.556381 0.193815
H26   H     H_    0.563396 0.300918 0.561569 0.193696
H27   H     H_    0.060979 0.197263 0.556188 0.193840
H28   H     H_    0.063538 0.800830 0.561852 0.193701
H29   H     H_    0.526152 0.730902 0.616996 0.148834
H30   H     H_    0.525761 0.265127 0.617743 0.174632
H31   H     H_    0.026117 0.230794 0.616926 0.148859
H32   H     H_    0.025802 0.764960 0.617826 0.174640
H33   H     H_    0.565630 0.798480 0.572427 0.111917
H34   H     H_    0.564261 0.199334 0.565459 0.085176
H35   H     H_    0.065719 0.298413 0.572605 0.111932
H36   H     H_    0.064119 0.699241 0.565175 0.085167
H37   H     H_    0.494930 0.695762 0.549899 0.189330
H38   H     H_    0.497160 0.302560 0.555035 0.181681
H39   H     H_    0.994831 0.195715 0.549700 0.189348
H40   H     H_    0.997307 0.802481 0.555327 0.181685
C73   C     C_3   0.482714 0.737983 0.043254 0.387999
C74   C     C_3   0.483536 0.264517 0.043217 0.387731
C75   C     C_3   0.982815 0.237589 0.043232 0.387941
C76   C     C_3   0.982812 0.762476 0.043210 0.387802
C77   C     C_3   0.530393 0.789174 0.042813 -0.362683
C78   C     C_3   0.527849 0.210338 0.042839 -0.362891
C79   C     C_3   0.029989 0.289261 0.042816 -0.362769
C80   C     C_3   0.029935 0.710734 0.042834 -0.362963
C81   C     C_3   0.487403 0.789141 0.956944 -0.396394
C82   C     C_3   0.484923 0.210369 0.956970 -0.396554
C83   C     C_3   0.987023 0.289226 0.956947 -0.396436
C84   C     C_3   0.987012 0.710767 0.956966 -0.396424
H41   H     H_    0.407847 0.758060 0.935842 0.192146
H42   H     H_    0.407489 0.245708 0.935860 0.192299
H43   H     H_    0.907772 0.257486 0.935820 0.192071
H44   H     H_    0.907796 0.742505 0.935848 0.192138
H45   H     H_    0.568242 0.798007 0.063157 0.160789
H46   H     H_    0.565092 0.199720 0.063268 0.160871
H47   H     H_    0.067756 0.298378 0.063189 0.160817
H48   H     H_    0.067704 0.701564 0.063270 0.160858
H49   H     H_    0.520316 0.809761 0.063504 0.206672
H50   H     H_    0.516431 0.191125 0.063472 0.206843
H51   H     H_    0.019686 0.309637 0.063483 0.206686
H52   H     H_    0.019560 0.690395 0.063460 0.206766
H53   H     H_    0.456414 0.809464 0.936445 0.176753
H54   H     H_    0.452688 0.191389 0.936414 0.176631
H55   H     H_    0.955834 0.309348 0.936425 0.176707
H56   H     H_    0.955813 0.690647 0.936402 0.176674
H57   H     H_    0.504626 0.798171 0.936265 0.171424
H58   H     H_    0.501585 0.199626 0.936376 0.171833
H59   H     H_    0.004179 0.298521 0.936297 0.171465
H60   H     H_    0.004210 0.701471 0.936377 0.171804
C85   C     C_1   0.389307 0.749969 0.778711 -0.148151
C86   C     C_1   0.389316 0.250029 0.778709 -0.147167
C87   C     C_1   0.889312 0.249968 0.778709 -0.148139
C88   C     C_1   0.889317 0.750028 0.778708 -0.147185
C89   C     C_3   0.536177 0.750054 0.073025 0.276936
C90   C     C_3   0.536155 0.249981 0.073021 0.276872
C91   C     C_3   0.036162 0.250048 0.073022 0.276909
C92   C     C_3   0.036150 0.749961 0.073020 0.276895
C93   C     C_3   0.439730 0.738517 0.956904 -0.447638
C94   C     C_3   0.440514 0.263901 0.956862 -0.448347
C95   C     C_3   0.939834 0.238142 0.956880 -0.448064
C96   C     C_3   0.939827 0.761868 0.956855 -0.448563
C97   C     C_3   0.463257 0.750013 0.926952 0.295576
C98   C     C_3   0.463261 0.249995 0.926947 0.295397
C99   C     C_3   0.963260 0.250011 0.926949 0.295718
C100  C     C_3   0.963261 0.749984 0.926946 0.295448
C101  C     C_3   0.507517 0.722463 0.957089 -0.403632
C102  C     C_3   0.509199 0.275644 0.957083 -0.403327
C103  C     C_3   0.007789 0.222748 0.957095 -0.403599
C104  C     C_3   0.007798 0.777236 0.957089 -0.403326
C105  C     C_3   0.550578 0.722657 0.042962 -0.504718
C106  C     C_3   0.552262 0.275420 0.042956 -0.504887
C107  C     C_3   0.050844 0.222949 0.042968 -0.504699
C108  C     C_3   0.050870 0.777016 0.042962 -0.504941
C109  C     C_1   0.422591 0.749989 0.845432 -0.101024
C110  C     C_1   0.422602 0.250009 0.845429 -0.100438
C111  C     C_1   0.922599 0.249988 0.845429 -0.101004
C112  C     C_1   0.922604 0.750004 0.845428 -0.100457
C113  C     C_1   0.577291 0.750051 0.154603 -0.076450
C114  C     C_1   0.577268 0.249966 0.154599 -0.075695
C115  C     C_1   0.077274 0.250050 0.154601 -0.076212
C116  C     C_1   0.077263 0.749961 0.154598 -0.075700
C117  C     C_1   0.610729 0.750039 0.221313 -0.139002
C118  C     C_1   0.610717 0.249967 0.221309 -0.138597
C119  C     C_1   0.110719 0.250040 0.221311 -0.138884
C120  C     C_1   0.110714 0.749966 0.221308 -0.138622
H61   H     H_    0.555318 0.694234 0.063827 0.170993
H62   H     H_    0.558875 0.304146 0.063846 0.170943
H63   H     H_    0.055876 0.194472 0.063840 0.170995
H64   H     H_    0.055967 0.805499 0.063856 0.171025
H65   H     H_    0.588647 0.730672 0.063214 0.194523
H66   H     H_    0.589745 0.265604 0.063183 0.194648
H67   H     H_    0.088831 0.231249 0.063221 0.194566
H68   H     H_    0.088835 0.768667 0.063190 0.194559
H69   H     H_    0.491234 0.694031 0.936828 0.172670
H70   H     H_    0.494725 0.304412 0.936850 0.172622
H71   H     H_    0.991784 0.194256 0.936842 0.172658
H72   H     H_    0.991807 0.805733 0.936859 0.172789
H73   H     H_    0.487585 0.708871 0.062293 0.029740
H74   H     H_    0.490263 0.293879 0.062172 0.030325
H75   H     H_    0.987970 0.208431 0.062259 0.029965
H76   H     H_    0.987988 0.791650 0.062169 0.030587
H77   H     H_    0.421774 0.710541 0.935802 0.129485
H78   H     H_    0.424265 0.292267 0.935662 0.129940
H79   H     H_    0.922134 0.210100 0.935753 0.129511
H80   H     H_    0.922082 0.789895 0.935655 0.130041
H81   H     H_    0.525073 0.730073 0.936276 0.180496
H82   H     H_    0.526208 0.266296 0.936246 0.180971
H83   H     H_    0.025271 0.230625 0.936284 0.180530
H84   H     H_    0.025265 0.769359 0.936254 0.180812
C121  C     C_3   0.771265 0.978520 0.573935 -0.386809
C122  C     C_3   0.771266 0.021474 0.573937 -0.387394
C123  C     C_3   0.271054 0.478520 0.573808 -0.386784
C124  C     C_3   0.271054 0.521474 0.573810 -0.387395
C125  C     C_3   0.784948 0.978524 0.490155 -0.391571
C126  C     C_3   0.784948 0.021478 0.490157 -0.391393
C127  C     C_3   0.285127 0.478524 0.490475 -0.391592
C128  C     C_3   0.285127 0.521478 0.490476 -0.391401
H85   H     H_    0.811772 0.031753 0.621091 0.165488
H86   H     H_    0.811772 0.968240 0.621089 0.165537
H87   H     H_    0.311534 0.531753 0.621100 0.165488
H88   H     H_    0.311534 0.468240 0.621098 0.165530
H89   H     H_    0.770419 0.968248 0.437208 0.168771
H90   H     H_    0.770419 0.031759 0.437210 0.168756
H91   H     H_    0.270751 0.468248 0.437623 0.168764
H92   H     H_    0.270751 0.531759 0.437625 0.168762
H93   H     H_    0.825708 0.968245 0.535755 0.164886
H94   H     H_    0.825709 0.031756 0.535757 0.164845
H95   H     H_    0.325867 0.468245 0.536218 0.164867
H96   H     H_    0.325868 0.531756 0.536219 0.164825
C129  C     C_1   0.750001 0.110610 0.499969 -0.136015
C130  C     C_1   0.750001 0.889390 0.499964 -0.135391
C131  C     C_1   0.250000 0.610610 0.499968 -0.136009
C132  C     C_1   0.250001 0.389390 0.499964 -0.135398
C133  C     C_3   0.749984 0.963485 0.499948 0.341504
C134  C     C_3   0.749985 0.036514 0.499951 0.341778
C135  C     C_3   0.249984 0.463485 0.499947 0.341530
C136  C     C_3   0.249984 0.536515 0.499950 0.341795
C137  C     C_3   0.693739 0.021479 0.435755 -0.383489
C138  C     C_3   0.693739 0.978524 0.435754 -0.383461
C139  C     C_3   0.193771 0.521479 0.435561 -0.383500
C140  C     C_3   0.193771 0.478524 0.435560 -0.383495
C141  C     C_1   0.749990 0.077257 0.499956 -0.122139
C142  C     C_1   0.749989 0.922743 0.499951 -0.121794
C143  C     C_1   0.249989 0.577257 0.499955 -0.122141
C144  C     C_1   0.249989 0.422743 0.499951 -0.121804
H97   H     H_    0.667762 0.968244 0.441548 0.179698
H98   H     H_    0.667762 0.031756 0.441551 0.179482
H99   H     H_    0.167666 0.468244 0.441123 0.179672
H100  H     H_    0.167666 0.531756 0.441125 0.179442
H101  H     H_    0.677519 0.968246 0.381798 0.169685
H102  H     H_    0.677519 0.031760 0.381801 0.169717
H103  H     H_    0.177702 0.468246 0.381691 0.169674
H104  H     H_    0.177702 0.531760 0.381693 0.169739
H105  H     H_    0.746724 0.968240 0.582289 0.177175
H106  H     H_    0.746724 0.031752 0.582292 0.176678
H107  H     H_    0.246381 0.468240 0.581932 0.177205
H108  H     H_    0.246381 0.531752 0.581934 0.176693
C145  C     C_3   0.796696 0.521478 0.579122 -0.388396
C146  C     C_3   0.796695 0.478518 0.579121 -0.388504
C147  C     C_3   0.299949 0.021478 0.577113 -0.387951
C148  C     C_3   0.299948 0.978518 0.577112 -0.388084
C149  C     C_3   0.698678 0.521481 0.472699 -0.390592
C150  C     C_3   0.698677 0.478521 0.472698 -0.390517
C151  C     C_3   0.201608 0.021480 0.481082 -0.390765
C152  C     C_3   0.201607 0.978521 0.481081 -0.390678
H109  H     H_    0.794134 0.468239 0.617544 0.165638
H110  H     H_    0.794136 0.531755 0.617545 0.165653
H111  H     H_    0.301858 0.968238 0.620045 0.165928
H112  H     H_    0.301859 0.031756 0.620046 0.165942
H113  H     H_    0.664483 0.531760 0.415765 0.167438
H114  H     H_    0.664482 0.468244 0.415764 0.167435
H115  H     H_    0.165147 0.031760 0.425736 0.167447
H116  H     H_    0.165145 0.968244 0.425735 0.167468
H117  H     H_    0.694296 0.531757 0.509143 0.165442
H118  H     H_    0.694294 0.468243 0.509142 0.165445
H119  H     H_    0.201689 0.031757 0.522229 0.165287
H120  H     H_    0.201688 0.968242 0.522228 0.165286
C153  C     C_1   0.750070 0.389339 0.499997 -0.141549
C154  C     C_1   0.750073 0.610661 0.500000 -0.141220
C155  C     C_1   0.250070 0.889339 0.499997 -0.141516
C156  C     C_1   0.250073 0.110661 0.500000 -0.141201
C157  C     C_3   0.750089 0.536529 0.500004 0.346213
C158  C     C_3   0.750087 0.463471 0.500003 0.346269
C159  C     C_3   0.250089 0.036529 0.500004 0.346395
C160  C     C_3   0.250087 0.963471 0.500003 0.346441
C161  C     C_3   0.754892 0.478521 0.448191 -0.386804
C162  C     C_3   0.754894 0.521482 0.448192 -0.386753
C163  C     C_3   0.248709 0.978521 0.441816 -0.387281
C164  C     C_3   0.248710 0.021482 0.441817 -0.387257
C165  C     C_1   0.750081 0.422705 0.499999 -0.126643
C166  C     C_1   0.750084 0.577295 0.500003 -0.126586
C167  C     C_1   0.250081 0.922705 0.500000 -0.126624
C168  C     C_1   0.250084 0.077295 0.500003 -0.126588
H121  H     H_    0.791649 0.531759 0.466703 0.173614
H122  H     H_    0.791648 0.468243 0.466702 0.173647
H123  H     H_    0.283261 0.031759 0.454231 0.173240
H124  H     H_    0.283260 0.968243 0.454230 0.173265
H125  H     H_    0.721744 0.531761 0.390802 0.167004
H126  H     H_    0.721743 0.468245 0.390801 0.166985
H127  H     H_    0.213125 0.031761 0.385741 0.166789
H128  H     H_    0.213124 0.968244 0.385740 0.166794
H129  H     H_    0.834227 0.531756 0.600063 0.171895
H130  H     H_    0.834226 0.468239 0.600063 0.171852
H131  H     H_    0.335451 0.031757 0.592040 0.172412
H132  H     H_    0.335450 0.968239 0.592038 0.172374
O53   O     O_3   0.489199 0.815697 0.557241 -0.596878
C169  C     C_3   0.523980 0.802793 0.630897 0.124469
H133  H     H_    0.559295 0.789239 0.649896 0.116427
H134  H     H_    0.503166 0.783531 0.636763 0.152057
C170  C     C_3   0.542381 0.835545 0.681827 -0.794516
H135  H     H_    0.508330 0.849597 0.666035 0.262719
H136  H     H_    0.569154 0.825835 0.739977 0.194152
H137  H     H_    0.563561 0.855594 0.677784 0.262867
O54   O     O_3   0.486475 0.186010 0.556337 -0.602727
C171  C     C_3   0.536989 0.184887 0.629276 0.121853
H138  H     H_    0.559933 0.210492 0.646495 0.112717
H139  H     H_    0.559038 0.161285 0.634277 0.165465
C172  C     C_3   0.531835 0.178528 0.682714 -0.809258
H140  H     H_    0.510549 0.152270 0.668992 0.266276
H141  H     H_    0.571264 0.176814 0.740250 0.197927
H142  H     H_    0.509996 0.201814 0.678986 0.254020
O55   O     O_3   0.989320 0.315644 0.557481 -0.596888
C173  C     C_3   0.024077 0.302672 0.631090 0.124483
H143  H     H_    0.059367 0.289101 0.650039 0.116458
H144  H     H_    0.003228 0.283405 0.636886 0.152055
C174  C     C_3   0.042539 0.335378 0.682140 -0.794503
H145  H     H_    0.008514 0.349445 0.666400 0.262713
H146  H     H_    0.069294 0.325614 0.740255 0.194188
H147  H     H_    0.063756 0.355430 0.678170 0.262857
O56   O     O_3   0.986297 0.685930 0.555980 -0.602752
C175  C     C_3   0.036808 0.684706 0.628913 0.121836
H148  H     H_    0.059823 0.710286 0.646274 0.112719
H149  H     H_    0.058791 0.661097 0.633783 0.165471
C176  C     C_3   0.031636 0.678272 0.682315 -0.809232
H150  H     H_    0.010277 0.652034 0.668448 0.266269
H151  H     H_    0.071060 0.676478 0.739842 0.197932
H152  H     H_    0.009862 0.701564 0.678716 0.254038
O57   O     O_3   0.468877 0.762474 0.070616 -0.605354
C177  C     C_3   0.439251 0.743828 0.079451 0.076156
H153  H     H_    0.463950 0.723001 0.124684 0.144292
H154  H     H_    0.404610 0.729856 0.027197 0.130380
C178  C     C_3   0.419954 0.771722 0.100288 -0.783508
H155  H     H_    0.394623 0.792655 0.055666 0.251284
H156  H     H_    0.397016 0.757318 0.108109 0.201917
H157  H     H_    0.453732 0.785909 0.152670 0.264576
O58   O     O_3   0.468230 0.241916 0.070717 -0.605007
C179  C     C_3   0.439218 0.262647 0.078469 0.076238
H158  H     H_    0.405240 0.276599 0.025598 0.131021
H159  H     H_    0.464647 0.283746 0.122922 0.143845
C180  C     C_3   0.418620 0.236783 0.100026 -0.781720
H160  H     H_    0.451741 0.222836 0.153244 0.264734
H161  H     H_    0.395874 0.252804 0.106547 0.201395
H162  H     H_    0.392775 0.215511 0.056382 0.251913
O59   O     O_3   0.968737 0.261784 0.070619 -0.605252
C181  C     C_3   0.938999 0.242836 0.078964 0.076402
H163  H     H_    0.963655 0.221888 0.123956 0.144119
H164  H     H_    0.904454 0.228954 0.026478 0.130373
C182  C     C_3   0.919485 0.270427 0.099897 -0.783866
H165  H     H_    0.894260 0.291506 0.055561 0.251460
H166  H     H_    0.896377 0.255793 0.107201 0.201708
H167  H     H_    0.953163 0.284471 0.152573 0.264517
O60   O     O_3   0.968739 0.738367 0.070705 -0.605192
C183  C     C_3   0.938628 0.757318 0.078380 0.075408
H168  H     H_    0.903939 0.770850 0.025494 0.131030
H169  H     H_    0.962910 0.778557 0.122839 0.144067
C184  C     C_3   0.919402 0.729820 0.099868 -0.780508
H170  H     H_    0.953233 0.716237 0.153099 0.264731
H171  H     H_    0.895809 0.744434 0.106330 0.202158
H172  H     H_    0.894713 0.708365 0.056214 0.251567
N1    N     N_R   0.522148 0.818876 0.466231 0.214908
O61   O     O_R   0.556897 0.844837 0.494948 -0.365880
O62   O     O_R   0.481046 0.818731 0.395054 -0.418647
N2    N     N_R   0.516390 0.182238 0.456446 0.211253
O63   O     O_R   0.549355 0.155660 0.479792 -0.374877
O64   O     O_R   0.473696 0.184325 0.386138 -0.419180
N3    N     N_R   0.022274 0.318906 0.466483 0.214914
O65   O     O_R   0.057070 0.344840 0.495295 -0.365868
O66   O     O_R   0.981172 0.318827 0.395305 -0.418588
N4    N     N_R   0.016201 0.682297 0.456067 0.211225
O67   O     O_R   0.049091 0.655687 0.479265 -0.374980
O68   O     O_R   0.973513 0.684482 0.385772 -0.419490

loop_
_geom_bond_atom_site_label_1
_geom_bond_atom_site_label_2
_geom_bond_distance
_ccdc_geom_bond_type
C31   C35   1.555173 S    
C162  H125  1.113049 S    
C45   C49   1.574087 S    
Zn5   O21   1.912714 S    
C42   C58   1.554637 S    
C97   C109  1.472669 S    
O60   C183  1.412394 S    
C54   C58   1.553555 S    
O23   C19   1.270657 A    
C48   C52   1.566452 S    
C35   H19   1.113427 S    
C106  H62   1.113048 S    
C137  C138  1.552000 S    
C47   C51   1.574090 S    
C113  C117  1.205114 T    
C66   C70   1.204875 T    
O42   C14   1.270817 A    
C30   H10   1.109324 S    
C5    C117  1.433460 S    
C74   H74   1.119196 S    
C93   C97   1.550072 S    
C32   C36   1.552902 S    
C78   H50   1.112677 S    
C27   H35   1.111014 S    
C139  H104  1.113046 S    
C101  H81   1.113046 S    
C82   H54   1.113066 S    
C48   O56   1.428764 S    
C133  C138  1.550357 S    
Zn3   O3    1.922520 S    
C28   H36   1.108248 S    
Zn16  O28   1.913230 S    
C41   C57   1.552131 S    
O28   C24   1.270690 A    
C53   C57   1.551610 S    
C54   H30   1.108794 S    
C73   O57   1.420173 S    
C4    C85   1.433796 S    
C180  H161  1.110474 S    
Zn4   O40   1.911840 S    
C8    C120  1.433508 S    
O11   C7    1.271104 A    
C96   C100  1.549993 S    
Zn13  O25   1.913229 S    
C123  C135  1.550352 S    
C155  C167  1.205554 T    
C137  H102  1.113046 S    
C73   C93   1.560050 S    
C147  C148  1.552213 S    
C170  H137  1.110789 S    
C89   C105  1.551415 S    
C33   C49   1.555202 S    
C102  H82   1.113047 S    
C30   C34   1.552902 S    
C146  H109  1.113038 S    
C103  H71   1.113055 S    
C31   C43   1.558341 S    
C175  C176  1.520444 S    
C36   C52   1.553760 S    
C88   C112  1.205307 T    
C124  H108  1.113055 S    
C173  H144  1.110292 S    
O16   C12   1.271451 A    
C139  C140  1.552000 S    
Zn16  O4    1.922154 S    
Zn12  O4    1.921604 S    
C53   H29   1.106026 S    
Zn13  O5    1.911450 S    
Zn2   O10   1.911179 S    
H44   C96   1.113435 S    
C37   C61   1.204662 T    
C79   C83   1.551235 S    
C147  H131  1.113061 S    
Zn6   O14   1.911345 S    
O47   C3    1.271275 A    
Zn7   O3    1.922687 S    
C138  H101  1.113050 S    
C172  H140  1.110728 S    
C128  C136  1.550352 S    
C173  C174  1.520520 S    
C87   C111  1.205315 T    
N2    O63   1.301183 A    
H1    C45   1.112456 S    
C75   C91   1.557690 S    
C161  H122  1.113046 S    
C32   C44   1.556094 S    
C21   C69   1.432840 S    
C130  C142  1.205070 T    
C3    C86   1.433766 S    
O56   C175  1.412967 S    
C24   C72   1.433080 S    
O24   C20   1.270614 A    
C176  H151  1.110519 S    
C82   H58   1.113080 S    
C178  H155  1.110763 S    
C126  C134  1.550353 S    
C57   H21   1.112938 S    
Zn10  O2    1.921604 S    
C25   H33   1.111013 S    
C11   C156  1.434177 S    
C76   H76   1.119191 S    
C102  C106  1.551323 S    
C154  C166  1.205554 T    
Zn9   O49   1.911479 S    
C93   H77   1.113062 S    
C175  H148  1.105204 S    
Zn4   O4    1.922473 S    
C28   N4    1.471257 S    
C76   C92   1.557745 S    
C145  C146  1.552213 S    
Zn7   O23   1.912714 S    
C81   H57   1.113046 S    
Zn8   O24   1.912725 S    
C77   H45   1.113081 S    
O58   C179  1.412373 S    
C83   H59   1.113039 S    
O25   C21   1.270675 A    
C161  C162  1.552213 S    
C150  H114  1.113059 S    
C163  C164  1.552209 S    
C12   C155  1.434177 S    
C169  H133  1.108723 S    
C16   C131  1.433349 S    
C26   N2    1.471262 S    
C184  H170  1.110785 S    
C145  C157  1.550417 S    
Zn12  O52   1.911451 S    
O46   C2    1.271269 A    
C26   C42   1.566040 S    
O22   C18   1.270616 A    
C121  H86   1.113059 S    
C86   C110  1.205311 T    
C9    C154  1.434177 S    
C100  C112  1.472621 S    
C25   C45   1.563781 S    
N3    O66   1.301310 A    
C94   H78   1.113058 S    
C95   C99   1.550009 S    
C125  H93   1.113052 S    
C80   H48   1.113086 S    
O50   C6    1.271111 A    
C104  C108  1.551324 S    
C127  C135  1.550347 S    
Zn16  O44   1.911308 S    
C157  C162  1.550412 S    
Zn1   O37   1.911816 S    
C84   H60   1.113089 S    
Zn2   O34   1.912784 S    
C39   C63   1.204671 T    
C159  C164  1.550411 S    
Zn3   O39   1.911816 S    
C40   C64   1.204792 T    
C56   H40   1.113442 S    
C162  H121  1.113044 S    
C174  H147  1.110786 S    
Zn6   O22   1.912725 S    
C43   C59   1.552131 S    
C55   H39   1.113466 S    
C159  C168  1.472905 S    
C135  C140  1.550359 S    
C106  H66   1.113154 S    
C136  C139  1.550364 S    
O35   C23   1.270882 A    
C125  C126  1.551971 S    
C150  C158  1.550413 S    
C1    C88   1.433757 S    
C108  H64   1.113051 S    
O34   C22   1.270925 A    
C181  H164  1.114026 S    
Zn10  O50   1.911451 S    
C67   C71   1.204763 T    
C60   H24   1.112543 S    
C91   C107  1.551421 S    
C68   C72   1.204868 T    
Zn13  O41   1.911273 S    
C149  H117  1.113043 S    
C178  H157  1.110755 S    
C81   H53   1.113081 S    
C98   C102  1.549825 S    
C125  H89   1.113050 S    
C80   H52   1.112686 S    
C160  C163  1.550408 S    
O5    C1    1.271225 A    
O26   C22   1.270690 A    
O31   C19   1.270576 A    
C13   C130  1.433349 S    
C20   C37   1.432745 S    
C181  C182  1.520395 S    
C29   H5    1.113227 S    
C15   C132  1.433349 S    
C31   H7    1.113227 S    
Zn5   O45   1.911368 S    
C42   C66   1.473798 S    
C83   H55   1.113085 S    
C146  H130  1.113059 S    
Zn7   O47   1.911368 S    
C179  H158  1.113997 S    
C152  H120  1.113040 S    
Zn8   O48   1.911338 S    
C136  C143  1.472074 S    
C137  H98   1.113065 S    
C182  H167  1.110756 S    
C73   C89   1.557641 S    
C47   O55   1.426097 S    
O51   C7    1.271084 A    
C163  H124  1.113051 S    
O8    C4    1.271199 A    
C158  C161  1.550411 S    
C172  H141  1.110516 S    
C177  H153  1.113383 S    
C184  H172  1.110708 S    
C52   C64   1.473280 S    
C82   C98   1.549790 S    
C96   H80   1.113060 S    
C127  H91   1.113050 S    
C77   C81   1.551235 S    
C36   H20   1.113360 S    
O52   C8    1.271118 A    
Zn1   O1    1.922520 S    
O40   C12   1.271485 A    
H42   C94   1.113437 S    
C80   C84   1.551223 S    
Zn14  O6    1.911478 S    
Zn3   O11   1.911148 S    
C171  H138  1.105205 S    
Zn15  O27   1.913229 S    
C59   H23   1.112938 S    
C176  H150  1.110731 S    
C41   C65   1.473434 S    
C38   C62   1.204794 T    
C54   H38   1.113446 S    
C138  H97   1.113064 S    
C51   C63   1.472099 S    
C44   C68   1.473800 S    
O9    C5    1.271125 A    
C90   C114  1.473766 S    
C101  C105  1.551337 S    
C121  C133  1.550352 S    
C134  C141  1.472078 S    
H2    C46   1.112176 S    
O13   C9    1.271453 A    
C75   C95   1.560100 S    
C17   C40   1.432992 S    
C103  C107  1.551337 S    
C147  H112  1.113037 S    
O18   C14   1.270836 A    
O38   C10   1.271485 A    
N4    O67   1.301182 A    
C29   H9    1.109283 S    
O6    C2    1.271205 A    
C19   C38   1.432992 S    
C131  C143  1.205070 T    
Zn9   O29   1.913290 S    
C180  H160  1.110786 S    
C30   H6    1.113309 S    
Zn11  O31   1.913290 S    
C123  C124  1.551982 S    
C32   H12   1.109325 S    
Zn12  O32   1.913290 S    
C151  H115  1.113054 S    
C105  H61   1.113067 S    
C28   C48   1.577784 S    
C57   H25   1.113380 S    
C148  H111  1.113038 S    
Zn15  O3    1.922223 S    
C58   H22   1.112542 S    
Zn11  O3    1.921535 S    
C114  C118  1.205123 T    
C53   H37   1.113465 S    
C2    C87   1.433774 S    
O43   C15   1.270815 A    
C181  H163  1.113369 S    
C170  H136  1.110593 S    
C31   H11   1.109280 S    
C6    C118  1.433502 S    
Zn5   O1    1.922687 S    
C183  H168  1.113997 S    
C79   H51   1.112664 S    
C75   O59   1.420157 S    
C77   H49   1.112679 S    
H3    C47   1.112454 S    
C46   O54   1.428763 S    
C121  H105  1.113057 S    
C123  H107  1.113061 S    
N1    O62   1.301309 A    
C127  C128  1.551971 S    
O32   C20   1.270563 A    
C23   C71   1.432840 S    
H41   C93   1.113432 S    
C27   C43   1.565774 S    
C27   N3    1.470843 S    
C122  H85   1.113060 S    
C25   C41   1.565773 S    
C124  C136  1.550348 S    
N2    O64   1.301377 A    
O57   C177  1.412293 S    
C151  H119  1.113043 S    
C80   C92   1.552132 S    
Zn14  O42   1.911308 S    
C81   C97   1.549833 S    
C74   C94   1.560166 S    
O7    C3    1.271220 A    
Zn2   O38   1.911840 S    
C176  H152  1.110911 S    
O19   C15   1.270838 A    
C33   H17   1.113425 S    
C145  H110  1.113035 S    
C116  C120  1.205130 T    
C79   H47   1.113091 S    
C134  C137  1.550361 S    
O37   C9    1.271483 A    
N3    O65   1.301154 A    
C128  H92   1.113050 S    
C78   C90   1.552138 S    
C99   C111  1.472655 S    
C30   C42   1.556096 S    
Zn9   O17   1.911781 S    
C128  H96   1.113056 S    
C108  H68   1.113153 S    
C89   C113  1.473762 S    
C175  H149  1.111367 S    
O17   C13   1.270838 A    
C32   H8    1.113304 S    
C180  H162  1.110710 S    
C115  C119  1.205120 T    
C50   C54   1.552082 S    
C60   H28   1.113329 S    
O36   C24   1.270927 A    
C171  H139  1.111364 S    
O12   C8    1.271108 A    
C100  C104  1.549813 S    
C7    C119  1.433484 S    
C140  H103  1.113049 S    
O55   C173  1.411817 S    
C49   C53   1.558678 S    
Zn3   O35   1.912794 S    
C126  H90   1.113053 S    
C18   C39   1.432735 S    
Zn15  O43   1.911273 S    
C52   C56   1.552083 S    
C14   C129  1.433349 S    
C169  H134  1.110293 S    
Zn13  O1    1.922223 S    
C76   O60   1.420155 S    
C56   H32   1.108791 S    
C157  C166  1.472905 S    
C33   H13   1.113102 S    
Zn6   O46   1.911338 S    
C171  C172  1.520442 S    
C43   C67   1.473432 S    
C173  H143  1.108724 S    
C55   H31   1.106026 S    
C151  C152  1.552177 S    
C152  H116  1.113056 S    
C132  C144  1.205070 T    
C99   C103  1.549826 S    
C148  C160  1.550427 S    
C182  H165  1.110755 S    
C65   C69   1.204762 T    
C149  C150  1.552177 S    
C150  H118  1.113042 S    
C97   C101  1.549841 S    
C169  C170  1.520517 S    
C153  C165  1.205554 T    
C163  H128  1.113050 S    
C107  H67   1.113143 S    
C73   H73   1.119290 S    
C104  H72   1.113056 S    
C174  H146  1.110594 S    
C25   N1    1.470835 S    
C78   H46   1.113083 S    
C34   H18   1.113362 S    
C126  H94   1.113057 S    
C139  H100  1.113064 S    
C36   H16   1.112996 S    
C101  H69   1.113052 S    
C140  H99   1.113062 S    
C78   C82   1.551230 S    
C98   C110  1.472633 S    
Zn2   O2    1.922473 S    
Zn14  O2    1.922154 S    
C149  H113  1.113057 S    
C177  H154  1.114030 S    
C107  H63   1.113066 S    
C56   C60   1.553551 S    
O59   C181  1.412332 S    
O49   C5    1.271050 A    
C146  C158  1.550425 S    
C79   C91   1.552110 S    
C50   C62   1.473277 S    
C55   C59   1.551614 S    
C92   C116  1.473766 S    
Zn8   O4    1.922733 S    
C77   C89   1.552104 S    
Zn4   O36   1.912784 S    
C10   C153  1.434177 S    
O21   C17   1.270657 A    
H4    C48   1.112175 S    
C85   C109  1.205331 T    
C122  C134  1.550346 S    
C34   C50   1.553762 S    
C152  C160  1.550414 S    
C135  C144  1.472074 S    
C178  H156  1.110493 S    
C94   C98   1.549997 S    
O39   C11   1.271481 A    
C148  H132  1.113059 S    
O10   C6    1.271107 A    
Zn11  O19   1.911781 S    
C102  H70   1.113055 S    
C103  H83   1.113036 S    
Zn10  O30   1.913290 S    
C104  H84   1.113054 S    
Zn12  O20   1.911746 S    
C158  C165  1.472905 S    
C179  H159  1.113368 S    
C34   H14   1.112993 S    
C105  H65   1.113132 S    
Zn14  O26   1.913230 S    
Zn15  O7    1.911450 S    
C58   H26   1.113328 S    
Zn16  O8    1.911478 S    
Zn1   O9    1.911148 S    
C84   H56   1.113064 S    
C49   C61   1.472103 S    
C51   C55   1.558678 S    
C149  C157  1.550415 S    
C147  C159  1.550422 S    
Zn4   O12   1.911179 S    
Zn11  O51   1.911479 S    
Zn5   O13   1.911368 S    
C184  H171  1.110478 S    
Zn6   O2    1.922733 S    
Zn7   O15   1.911368 S    
Zn8   O16   1.911345 S    
C90   C106  1.551420 S    
C179  C180  1.520424 S    
C122  H106  1.113059 S    
O27   C23   1.270675 A    
C22   C70   1.433078 S    
O29   C17   1.270576 A    
C35   C51   1.555202 S    
C161  H126  1.113047 S    
C172  H142  1.110917 S    
C177  C178  1.520381 S    
C129  C141  1.205070 T    
C27   C47   1.563779 S    
C121  C122  1.551982 S    
Zn10  O18   1.911746 S    
C123  H88   1.113059 S    
C145  H129  1.113063 S    
O54   C171  1.412968 S    
C156  C168  1.205554 T    
C59   H27   1.113380 S    
C26   H34   1.108256 S    
C125  C133  1.550349 S    
Zn9   O1    1.921535 S    
C164  H127  1.113052 S    
C74   C90   1.557730 S    
C127  H95   1.113055 S    
O41   C13   1.270815 A    
N4    O68   1.301376 A    
C133  C142  1.472074 S    
O53   C169  1.411820 S    
O45   C1    1.271269 A    
C76   C96   1.560177 S    
C83   C99   1.549818 S    
C44   C60   1.554637 S    
C95   H79   1.113063 S    
C92   C108  1.551433 S    
C35   H15   1.113101 S    
O33   C21   1.270882 A    
C46   C50   1.566450 S    
O15   C11   1.271455 A    
C124  H87   1.113061 S    
C28   C44   1.566039 S    
C74   O58   1.420165 S    
C29   C41   1.558340 S    
C170  H135  1.110836 S    
H43   C95   1.113433 S    
O44   C16   1.270817 A    
C174  H145  1.110833 S    
C183  H169  1.113359 S    
O20   C16   1.270836 A    
C75   H75   1.119249 S    
C26   C46   1.577782 S    
C91   C115  1.473776 S    
O48   C4    1.271288 A    
O14   C10   1.271451 A    
C84   C100  1.549794 S    
C151  C159  1.550414 S    
C182  H166  1.110484 S    
N1    O61   1.301163 A    
C164  H123  1.113049 S    
C45   O53   1.426098 S    
Zn1   O33   1.912794 S    
C29   C33   1.555175 S    
C160  C167  1.472905 S    
O30   C18   1.270565 A    
C183  C184  1.520422 S    
