data_mof_unit_58365.cif
_audit_creation_date              2012-12-11T16:57:15-0500
_audit_creation_method            fapswitch 2.2
_symmetry_space_group_name_H-M    P1
_symmetry_Int_Tables_number       1
_space_group_crystal_system       triclinic
_cell_length_a                    14.666981
_cell_length_b                    16.020707
_cell_length_c                    6.97772
_cell_angle_alpha                 90.020132
_cell_angle_beta                  98.850669
_cell_angle_gamma                 90.157707
_cell_volume                      1620.0628338

loop_
_atom_site_label
_atom_site_type_symbol
_atom_type_description
_atom_site_fract_x
_atom_site_fract_y
_atom_site_fract_z
_atom_type_partial_charge
O1    O     O_R   0.584990 0.413650 0.534420 -0.536185
O2    O     O_R   0.584990 0.586350 0.534420 -0.535175
O3    O     O_R   0.596190 0.585230 0.208380 -0.545652
O4    O     O_R   0.596190 0.414770 0.208380 -0.547671
O5    O     O_R   0.415010 0.586420 0.976930 -0.544863
O6    O     O_R   0.415010 0.413580 0.976930 -0.548658
C1    C     C_R   0.617709 0.614957 0.384070 0.700121
C2    C     C_R   0.616638 0.383932 0.383519 0.712684
O7    O     O_3   0.440560 0.500000 0.319140 -0.367144
V1    V     V_3+5 0.511030 0.500000 0.068070 1.428306
O8    O     O_R   0.403810 0.414840 0.643540 -0.528420
O9    O     O_R   0.403810 0.585160 0.643540 -0.531592
C3    C     C_R   0.377919 0.389378 0.805389 0.744618
C4    C     C_R   0.380520 0.612858 0.805809 0.758251
V2    V     V_3+5 0.488970 0.500000 0.560620 1.482678
O10   O     O_3   0.559440 0.500000 0.859420 -0.379063
H1    H     H_    0.175684 0.794240 0.811625 0.154058
H2    H     H_    0.166169 0.213168 0.815476 0.153316
H3    H     H_    0.323062 0.694233 0.099034 0.203033
H4    H     H_    0.313685 0.314430 0.099822 0.209261
C5    C     C_2   0.307601 0.677143 0.796978 -0.301514
C6    C     C_2   0.302276 0.327181 0.796601 -0.326640
C7    C     C_2   0.285748 0.712759 0.959196 -0.077832
C8    C     C_2   0.278044 0.294049 0.959748 -0.107024
C9    C     C_2   0.196026 0.819410 0.113046 0.198285
C10   C     C_2   0.195388 0.181648 0.113279 0.216525
C11   C     C_2   0.214104 0.778500 0.952766 -0.168301
C12   C     C_2   0.208048 0.226658 0.954553 -0.150799
H5    H     H_    0.270845 0.694918 0.656662 0.210015
H6    H     H_    0.267547 0.306937 0.655890 0.212805
C13   C     C_R   0.672795 0.753762 0.533723 -0.010938
C14   C     C_R   0.738852 0.301843 0.597248 0.071789
C15   C     C_R   0.685059 0.685166 0.414242 -0.112091
C16   C     C_R   0.686314 0.315235 0.416152 -0.111378
C17   C     C_R   0.763349 0.686378 0.319310 -0.121182
C18   C     C_R   0.703354 0.261138 0.268013 -0.128898
H7    H     H_    0.775251 0.635527 0.223974 0.154829
H8    H     H_    0.660676 0.264692 0.131268 0.121588
C19   C     C_R   0.830356 0.750429 0.356320 -0.052282
C20   C     C_R   0.769969 0.197174 0.300731 -0.086903
H9    H     H_    0.893287 0.746017 0.294061 0.171736
H10   H     H_    0.774675 0.152594 0.186499 0.135696
C21   C     C_R   0.819325 0.817020 0.481769 -0.051812
C22   C     C_R   0.825794 0.187611 0.482475 -0.156659
C23   C     C_R   0.740066 0.816331 0.570170 -0.016518
C24   C     C_R   0.812596 0.245215 0.627298 0.131951
C25   C     C_3   0.733777 0.818168 0.781018 0.229362
C26   C     C_3   0.796080 0.226479 0.827641 0.173673
C27   C     C_3   0.654988 0.755209 0.740138 -0.191459
C28   C     C_3   0.706503 0.275880 0.780914 -0.254780
H11   H     H_    0.715275 0.880841 0.831814 0.084032
H12   H     H_    0.788059 0.159080 0.858291 0.087164
H13   H     H_    0.668639 0.693914 0.813968 0.179245
H14   H     H_    0.701623 0.330821 0.876060 0.178287
O11   O     O_R   0.921430 0.915960 0.371040 -0.536974
O12   O     O_R   0.921430 0.084040 0.371040 -0.529105
O13   O     O_R   0.910450 0.087500 0.697310 -0.550392
O14   O     O_R   0.910450 0.912500 0.697310 -0.517270
O15   O     O_R   0.091710 0.087460 0.928430 -0.560882
O16   O     O_R   0.091710 0.912540 0.928430 -0.558747
C29   C     C_R   0.890253 0.115758 0.520116 0.694339
C30   C     C_R   0.889160 0.884932 0.519896 0.702515
O17   O     O_3   0.065970 1.000000 0.586140 -0.370821
V3    V     V_3+5 0.995640 1.000000 0.837400 1.502960
O18   O     O_R   0.103020 0.915700 0.261710 -0.512129
O19   O     O_R   0.103020 0.084300 0.261710 -0.509609
C31   C     C_R   0.125214 0.885980 0.100273 0.717689
C32   C     C_R   0.125006 0.114332 0.100409 0.724513
V4    V     V_3+5 0.017940 0.000000 0.344880 1.551143
O20   O     O_3   0.947330 1.000000 0.046180 -0.367494
Cl1   Cl    Cl    0.257678 0.797081 0.344163 -0.754325
Cl2   Cl    Cl    0.264764 0.198185 0.340428 -0.719137
Cl3   Cl    Cl    0.834515 0.773370 0.917145 -0.696851
Cl4   Cl    Cl    0.882947 0.277995 0.994528 -0.633927
C33   C     C_R   0.564480 0.794458 0.772397 0.067667
C34   C     C_R   0.541815 0.794087 0.960848 -0.137069
C35   C     C_R   0.464841 0.837708 0.002654 -0.129159
C36   C     C_R   0.409665 0.882233 0.856907 -0.071679
C37   C     C_R   0.430890 0.882565 0.668731 -0.072680
C38   C     C_R   0.507620 0.838915 0.625910 -0.109105
H15   H     H_    0.585063 0.761529 0.076393 0.120696
H16   H     H_    0.447990 0.837251 0.148152 0.138329
H17   H     H_    0.350481 0.916509 0.889800 0.114568
H18   H     H_    0.388686 0.917882 0.556376 0.152133
H19   H     H_    0.523753 0.842347 0.480147 0.100135
C39   C     C_R   0.620649 0.219021 0.747607 0.075279
C40   C     C_R   0.542537 0.239613 0.831295 -0.134205
C41   C     C_R   0.468977 0.183393 0.824555 -0.095791
C42   C     C_R   0.468419 0.109078 0.720949 -0.028313
C43   C     C_R   0.542993 0.089310 0.628166 -0.114426
C44   C     C_R   0.618878 0.143019 0.643054 -0.127262
H20   H     H_    0.540139 0.297691 0.909020 0.110616
H21   H     H_    0.412942 0.196311 0.902787 0.139206
H22   H     H_    0.410496 0.066661 0.714200 0.115637
H23   H     H_    0.543131 0.031369 0.548362 0.105448
H24   H     H_    0.676478 0.123240 0.576054 0.092604

loop_
_geom_bond_atom_site_label_1
_geom_bond_atom_site_label_2
_ccdc_geom_bond_type
O14   C30   A    
O19   C32   A    
C40   C41   A    
O1    C2    A    
C10   Cl2   S    
C17   C19   A    
O2    C1    A    
C9    C31   S    
O4    C2    A    
C43   H23   S    
C19   H9    S    
C35   C36   A    
O15   V3    S    
C28   H14   S    
C4    C5    S    
C17   H7    S    
O3    C1    A    
C39   C44   A    
O17   V4    S    
C37   H18   S    
C27   H13   S    
O19   V4    S    
V2    O10   S    
O11   C30   A    
C42   H22   S    
C44   H24   S    
O8    V2    S    
C36   H17   S    
H4    C8    S    
O16   C31   A    
O18   C31   A    
C27   C33   S    
C9    Cl1   S    
V3    O20   S    
C33   C38   A    
C20   H10   S    
C40   H20   S    
C1    C15   S    
C13   C27   S    
C22   C24   A    
C23   C25   S    
O14   V3    S    
C24   C26   S    
H1    C11   S    
C26   Cl4   S    
C18   C20   A    
H2    C12   S    
C34   C35   A    
C25   Cl3   S    
C25   C27   S    
C39   C40   A    
C19   C21   A    
C5    H5    S    
O17   V3    S    
C14   C16   A    
H3    C7    S    
C33   C34   A    
C38   H19   S    
O15   C32   A    
O9    V2    S    
C20   C22   A    
C13   C15   A    
C2    C16   S    
O2    V2    S    
C21   C23   A    
C14   C28   S    
O5    C4    A    
O11   V4    S    
O1    V2    S    
O9    C4    A    
C7    C11   S    
C5    C7    D    
C6    C8    D    
O4    V1    S    
O13   V3    S    
O7    V1    S    
C41   H21   S    
C6    H6    S    
C36   C37   A    
C14   C24   A    
C8    C12   S    
C34   H15   S    
O6    V1    S    
C25   H11   S    
O13   C29   A    
C22   C29   S    
C9    C11   D    
C10   C12   D    
O16   V3    S    
C10   C32   S    
C18   H8    S    
O7    V2    S    
O5    V1    S    
O3    V1    S    
V1    O10   S    
O6    C3    A    
O8    C3    A    
C43   C44   A    
C35   H16   S    
O18   V4    S    
C26   C28   S    
C15   C17   A    
C3    C6    S    
C16   C18   A    
V4    O20   S    
C28   C39   S    
C37   C38   A    
C26   H12   S    
C41   C42   A    
O12   V4    S    
C13   C23   A    
O12   C29   A    
C42   C43   A    
C21   C30   S    
