data_mof_unit_55165.cif
_audit_creation_date              2012-12-11T14:04:02-0500
_audit_creation_method            fapswitch 2.2
_symmetry_space_group_name_H-M    P1
_symmetry_Int_Tables_number       1
_space_group_crystal_system       triclinic
_cell_length_a                    18.970904
_cell_length_b                    11.01958
_cell_length_c                    19.039778
_cell_angle_alpha                 90.082301
_cell_angle_beta                  89.250907
_cell_angle_gamma                 89.821348
_cell_volume                      3979.92827079

loop_
_atom_site_label
_atom_site_type_symbol
_atom_type_description
_atom_site_fract_x
_atom_site_fract_y
_atom_site_fract_z
_atom_type_partial_charge
C1    C     C_R   0.225203 0.520892 0.639527 0.571267
C2    C     C_R   0.774659 0.520792 0.360618 0.573944
C3    C     C_R   0.725203 0.020892 0.639527 0.571271
C4    C     C_R   0.274659 0.020792 0.360618 0.573946
C5    C     C_2   0.287905 0.860370 0.536333 0.324617
C6    C     C_2   0.712075 0.860882 0.463606 0.324008
C7    C     C_2   0.787902 0.360367 0.536332 0.324619
C8    C     C_2   0.212074 0.360883 0.463605 0.324010
C9    C     C_R   0.985512 0.656382 0.429019 0.003076
C10   C     C_R   0.014395 0.656405 0.571044 0.004562
C11   C     C_R   0.485512 0.156382 0.429019 0.003076
C12   C     C_R   0.514396 0.156405 0.571044 0.004563
C13   C     C_R   0.014173 0.876863 0.428231 -0.093507
C14   C     C_R   0.985780 0.877249 0.571978 -0.092989
C15   C     C_R   0.514173 0.376863 0.428231 -0.093507
C16   C     C_R   0.485781 0.377249 0.571978 -0.092988
C17   C     C_R   0.010528 0.986024 0.464786 0.398800
C18   C     C_R   0.989575 0.986269 0.535513 0.399901
C19   C     C_R   0.510530 0.486023 0.464786 0.398799
C20   C     C_R   0.489577 0.486269 0.535513 0.399902
C21   C     C_R   0.999329 0.766853 0.536822 -0.081958
C22   C     C_R   0.000570 0.766747 0.463316 -0.082559
C23   C     C_R   0.499330 0.266853 0.536822 -0.081957
C24   C     C_R   0.500571 0.266747 0.463315 -0.082558
C25   C     C_R   0.016923 0.546552 0.531515 0.007814
C26   C     C_R   0.983046 0.546649 0.468470 0.007348
C27   C     C_R   0.516923 0.046552 0.531515 0.007814
C28   C     C_R   0.483046 0.046649 0.468470 0.007348
C29   C     C_R   0.048560 0.435001 0.551799 -0.097399
C30   C     C_R   0.951432 0.435383 0.448111 -0.099375
C31   C     C_R   0.548561 0.935001 0.551799 -0.097399
C32   C     C_R   0.451434 0.935382 0.448110 -0.099372
C33   C     C_R   0.027508 0.325765 0.523267 0.017841
C34   C     C_R   0.972519 0.325989 0.476526 0.015983
C35   C     C_R   0.527510 0.825765 0.523266 0.017846
C36   C     C_R   0.472522 0.825988 0.476526 0.015988
C37   C     C_2   0.239821 0.899577 0.927372 -0.089347
C38   C     C_2   0.760181 0.899145 0.072683 -0.088450
C39   C     C_2   0.739821 0.399577 0.927372 -0.089347
C40   C     C_2   0.260181 0.399145 0.072683 -0.088450
C41   C     C_2   0.248681 0.902089 0.083607 -0.076100
C42   C     C_2   0.750378 0.903701 0.916843 -0.104947
C43   C     C_2   0.748681 0.402089 0.083607 -0.076100
C44   C     C_2   0.250378 0.403701 0.916843 -0.104946
C45   C     C_R   0.227979 0.876387 0.649115 0.566325
C46   C     C_R   0.772038 0.876380 0.350902 0.566111
C47   C     C_R   0.727979 0.376387 0.649115 0.566326
C48   C     C_R   0.272038 0.376380 0.350902 0.566113
C49   C     C_2   0.191165 0.929650 0.046919 -0.166682
C50   C     C_2   0.808813 0.927189 0.952861 -0.159379
C51   C     C_2   0.691165 0.429650 0.046919 -0.166682
C52   C     C_2   0.308813 0.427190 0.952862 -0.159379
C53   C     C_2   0.184656 0.903219 0.972418 -0.161592
C54   C     C_2   0.815277 0.901716 0.027504 -0.153189
C55   C     C_2   0.684656 0.403219 0.972418 -0.161592
C56   C     C_2   0.315277 0.401717 0.027504 -0.153189
C57   C     C_2   0.985577 0.663363 0.914709 -0.125236
C58   C     C_2   0.957644 0.655601 0.067750 -0.119643
C59   C     C_2   0.485577 0.163363 0.914709 -0.125235
C60   C     C_2   0.457644 0.155601 0.067750 -0.119643
C61   C     C_2   0.938416 0.567704 0.023068 0.352855
C62   C     C_2   0.961390 0.564767 0.949025 0.377635
C63   C     C_2   0.438416 0.067704 0.023068 0.352855
C64   C     C_2   0.461390 0.064767 0.949025 0.377635
C65   C     C_R   0.034509 0.653482 0.643716 0.534733
C66   C     C_R   0.965403 0.653443 0.356333 0.540972
C67   C     C_R   0.534510 0.153482 0.643716 0.534733
C68   C     C_R   0.465403 0.153443 0.356333 0.540973
C69   C     C_R   0.238793 0.465095 0.850337 0.556401
C70   C     C_R   0.761076 0.464596 0.149765 0.574931
C71   C     C_R   0.738793 0.965095 0.850337 0.556400
C72   C     C_R   0.261076 0.964596 0.149765 0.574931
C73   C     C_R   0.225613 0.869749 0.854568 0.556106
C74   C     C_R   0.774424 0.869506 0.145449 0.544847
C75   C     C_R   0.725613 0.369749 0.854568 0.556105
C76   C     C_R   0.274424 0.369506 0.145449 0.544847
C77   C     C_R   0.027648 0.652508 0.850007 0.576361
C78   C     C_R   0.938873 0.647948 0.142010 0.602442
C79   C     C_R   0.527648 0.152508 0.850007 0.576361
C80   C     C_R   0.438873 0.147948 0.142010 0.602443
C81   C     C_2   0.250367 0.926793 0.582601 -0.058162
C82   C     C_2   0.749688 0.926895 0.417526 -0.059582
C83   C     C_2   0.750368 0.426793 0.582601 -0.058155
C84   C     C_2   0.249687 0.426896 0.417526 -0.059580
C85   C     C_2   0.268345 0.994703 0.434815 -0.141240
C86   C     C_2   0.731272 0.995124 0.565256 -0.141302
C87   C     C_2   0.768345 0.494703 0.434815 -0.141240
C88   C     C_2   0.231273 0.495125 0.565256 -0.141307
C89   C     C_2   0.287896 0.887321 0.461141 -0.162248
C90   C     C_2   0.712378 0.887552 0.538833 -0.161903
C91   C     C_2   0.787894 0.387319 0.461141 -0.162243
C92   C     C_2   0.212376 0.387553 0.538833 -0.161897
Cr1   Cr    Cr6+3 0.113970 0.508630 0.747920 1.068506
Cr2   Cr    Cr6+3 0.886030 0.508630 0.252080 1.065730
Cr3   Cr    Cr6+3 0.613970 0.008630 0.747920 1.068508
Cr4   Cr    Cr6+3 0.386030 0.008630 0.252080 1.065729
Cr5   Cr    Cr6+3 0.269200 0.666740 0.749850 1.118829
Cr6   Cr    Cr6+3 0.730800 0.666740 0.250150 1.098792
Cr7   Cr    Cr6+3 0.769200 0.166740 0.749850 1.118828
Cr8   Cr    Cr6+3 0.230800 0.166740 0.250150 1.098792
Cr9   Cr    Cr6+3 0.112300 0.820070 0.749800 1.039063
Cr10  Cr    Cr6+3 0.887700 0.820070 0.250200 1.037327
Cr11  Cr    Cr6+3 0.612300 0.320070 0.749800 1.039064
Cr12  Cr    Cr6+3 0.387700 0.320070 0.250200 1.037326
H1    H     H_    0.306453 0.815555 0.426244 0.162948
H2    H     H_    0.694522 0.815530 0.573657 0.162867
H3    H     H_    0.806451 0.315554 0.426243 0.162950
H4    H     H_    0.194518 0.315532 0.573656 0.162867
H5    H     H_    0.131096 0.894204 0.953469 0.160415
H6    H     H_    0.868823 0.891839 0.046390 0.150650
H7    H     H_    0.631096 0.394204 0.953469 0.160415
H8    H     H_    0.368823 0.391842 0.046390 0.150651
H9    H     H_    0.290221 0.845685 0.061106 0.177148
H10   H     H_    0.707358 0.852030 0.940034 0.124507
H11   H     H_    0.790221 0.345685 0.061106 0.177148
H12   H     H_    0.207358 0.352030 0.940034 0.124507
H13   H     H_    0.293866 0.907262 0.944843 0.172842
H14   H     H_    0.706091 0.907596 0.055453 0.111827
H15   H     H_    0.793866 0.407262 0.944843 0.172842
H16   H     H_    0.206091 0.407595 0.055453 0.111827
H17   H     H_    0.987038 0.734477 0.050338 0.029053
H18   H     H_    0.980361 0.753361 0.937338 0.022105
H19   H     H_    0.487038 0.234477 0.050338 0.029053
H20   H     H_    0.480361 0.253361 0.937338 0.022105
H21   H     H_    0.249788 0.068725 0.467317 0.155007
H22   H     H_    0.748849 0.069521 0.532762 0.153920
H23   H     H_    0.749789 0.568726 0.467318 0.155006
H24   H     H_    0.248853 0.569522 0.532763 0.153915
H25   H     H_    0.222247 0.007826 0.567199 0.067354
H26   H     H_    0.777993 0.007356 0.433235 0.068683
H27   H     H_    0.722253 0.507830 0.567202 0.067348
H28   H     H_    0.277990 0.507359 0.433234 0.068677
H29   H     H_    0.028837 0.879804 0.373235 0.175252
H30   H     H_    0.971105 0.880536 0.626975 0.174149
H31   H     H_    0.528838 0.379803 0.373234 0.175252
H32   H     H_    0.471106 0.380537 0.626975 0.174150
H33   H     H_    0.910721 0.429103 0.410541 0.164379
H34   H     H_    0.089263 0.428330 0.589388 0.164715
H35   H     H_    0.410723 0.929101 0.410541 0.164379
H36   H     H_    0.589264 0.928331 0.589388 0.164716
H37   H     H_    0.052453 0.242730 0.539876 0.228664
H38   H     H_    0.947605 0.243165 0.459828 0.227992
H39   H     H_    0.552457 0.742731 0.539875 0.228667
H40   H     H_    0.447608 0.743163 0.459826 0.227990
H41   H     H_    0.147729 0.979934 0.070872 0.169006
H42   H     H_    0.853222 0.973091 0.928103 0.171228
H43   H     H_    0.647729 0.479934 0.070872 0.169006
H44   H     H_    0.353222 0.473093 0.928103 0.171229
O1    O     O_R   0.043230 0.549300 0.667990 -0.529115
O2    O     O_R   0.956770 0.549300 0.332010 -0.530299
O3    O     O_R   0.543230 0.049300 0.667990 -0.529114
O4    O     O_R   0.456770 0.049300 0.332010 -0.530301
O5    O     O_R   0.262920 0.788600 0.824420 -0.482750
O6    O     O_R   0.737080 0.788600 0.175580 -0.497713
O7    O     O_R   0.762920 0.288600 0.824420 -0.482751
O8    O     O_R   0.237080 0.288600 0.175580 -0.497714
O9    O     O_R   0.167530 0.905110 0.830340 -0.511609
O10   O     O_R   0.832470 0.905110 0.169660 -0.514804
O11   O     O_R   0.667530 0.405110 0.830340 -0.511609
O12   O     O_R   0.332470 0.405110 0.169660 -0.514804
O13   O     O_R   0.054010 0.748440 0.822860 -0.514292
O14   O     O_R   0.945990 0.748440 0.177140 -0.511726
O15   O     O_R   0.554010 0.248440 0.822860 -0.514292
O16   O     O_R   0.445990 0.248440 0.177140 -0.511727
O17   O     O_3   0.165160 0.665150 0.749190 -0.305229
O18   O     O_3   0.834840 0.665150 0.250810 -0.321793
O19   O     O_3   0.665160 0.165150 0.749190 -0.305229
O20   O     O_3   0.334840 0.165150 0.250810 -0.321792
O21   O     O_R   0.178620 0.457600 0.674100 -0.535685
O22   O     O_R   0.821380 0.457600 0.325900 -0.538463
O23   O     O_R   0.678620 0.957600 0.674100 -0.535687
O24   O     O_R   0.321380 0.957600 0.325900 -0.538462
O25   O     O_R   0.284680 0.542100 0.669460 -0.438607
O26   O     O_R   0.715320 0.542100 0.330540 -0.437509
O27   O     O_R   0.784680 0.042100 0.669460 -0.438604
O28   O     O_R   0.215320 0.042100 0.330540 -0.437511
O29   O     O_R   0.262860 0.790390 0.676650 -0.436286
O30   O     O_R   0.737140 0.790390 0.323350 -0.435965
O31   O     O_R   0.762860 0.290390 0.676650 -0.436286
O32   O     O_R   0.237140 0.290390 0.323350 -0.435966
O33   O     O_R   0.167460 0.907030 0.670940 -0.521799
O34   O     O_R   0.832540 0.907030 0.329060 -0.520834
O35   O     O_R   0.667460 0.407030 0.670940 -0.521797
O36   O     O_R   0.332540 0.407030 0.329060 -0.520835
O37   O     O_R   0.053950 0.750220 0.675100 -0.515607
O38   O     O_R   0.946050 0.750220 0.324900 -0.509591
O39   O     O_R   0.553950 0.250220 0.675100 -0.515607
O40   O     O_R   0.446050 0.250220 0.324900 -0.509591
O41   O     O_R   0.043300 0.547370 0.827390 -0.421683
O42   O     O_R   0.956700 0.547370 0.172610 -0.440926
O43   O     O_R   0.543300 0.047370 0.827390 -0.421682
O44   O     O_R   0.456700 0.047370 0.172610 -0.440926
O45   O     O_R   0.178690 0.455820 0.821860 -0.486733
O46   O     O_R   0.821310 0.455820 0.178140 -0.461815
O47   O     O_R   0.678690 0.955820 0.821860 -0.486733
O48   O     O_R   0.321310 0.955820 0.178140 -0.461816
O49   O     O_R   0.284750 0.540170 0.828860 -0.507802
O50   O     O_R   0.715250 0.540170 0.171140 -0.519407
O51   O     O_R   0.784750 0.040170 0.828860 -0.507802
O52   O     O_R   0.215250 0.040170 0.171140 -0.519407
F1    F     F_    0.903122 0.469114 0.047697 -0.613166
F2    F     F_    0.961254 0.454098 0.917130 -0.570962
F3    F     F_    0.403122 0.969114 0.047697 -0.613166
F4    F     F_    0.461254 0.954098 0.917130 -0.570962
F5    F     F_    0.320387 0.755972 0.556295 -0.611023
F6    F     F_    0.679469 0.756976 0.443432 -0.611685
F7    F     F_    0.820378 0.255965 0.556292 -0.611032
F8    F     F_    0.179470 0.256976 0.443433 -0.611688
F9    F     F_    0.026698 0.089803 0.430538 -0.625833
F10   F     F_    0.973595 0.090392 0.569854 -0.624348
F11   F     F_    0.526702 0.589802 0.430538 -0.625831
F12   F     F_    0.473600 0.590392 0.569854 -0.624347

loop_
_geom_bond_atom_site_label_1
_geom_bond_atom_site_label_2
_ccdc_geom_bond_type
C47   C83   S    
C7    C83   D    
Cr6   O6    S    
C65   O37   A    
Cr11  O19   S    
C6    C82   D    
C87   C91   D    
C86   H22   S    
C14   C18   A    
Cr1   O1    S    
C35   C36   A    
C78   O42   A    
C3    O23   A    
Cr2   O18   S    
C87   H23   S    
C45   O33   A    
C57   C62   D    
C15   C19   A    
C29   H34   S    
C12   C23   A    
Cr1   O21   S    
C59   C64   D    
C50   C54   S    
C63   F3    S    
C60   C63   D    
C19   F11   S    
C32   C36   A    
C14   C21   A    
C18   F10   S    
C66   O2    A    
C17   F9    S    
Cr6   O26   S    
C39   H15   S    
C9    C22   A    
C15   H31   S    
C75   O11   A    
Cr4   O4    S    
C73   O9    A    
C11   C24   A    
C5    C81   D    
C74   O6    A    
C25   C29   A    
C8    F8    S    
C46   O30   A    
C9    C66   S    
C62   F2    S    
C47   O31   A    
C61   F1    S    
C57   H18   S    
C46   C82   S    
Cr5   O29   S    
C92   H4    S    
C80   O16   A    
C88   C92   D    
C29   C33   A    
C40   C76   S    
C40   C56   D    
Cr7   O7    S    
Cr8   O28   S    
Cr3   O47   S    
C23   C24   A    
Cr4   O20   S    
C8    C92   S    
C39   C75   S    
C82   H26   S    
C51   C55   S    
C2    O26   A    
C16   C20   A    
C37   C53   D    
C70   O46   A    
C44   C52   D    
C58   C61   D    
C64   F4    S    
Cr1   O17   S    
C52   H44   S    
C30   H33   S    
C79   O43   A    
C21   C22   A    
C3    C86   S    
C69   O49   A    
Cr7   O27   S    
C80   O44   A    
Cr10  O10   S    
C61   C62   S    
Cr12  O12   S    
Cr9   O37   S    
C41   C49   D    
C5    F5    S    
C67   O39   A    
C9    C26   A    
C17   C18   A    
Cr7   O19   S    
C10   C21   A    
C77   O13   A    
Cr12  O40   S    
C12   C67   S    
C39   C55   D    
Cr5   O25   S    
C30   C34   A    
C12   C27   A    
C27   C31   A    
Cr10  O34   S    
C91   H3    S    
C28   C32   A    
Cr11  O39   S    
C90   H2    S    
C32   H35   S    
C7    F7    S    
C86   C90   D    
C59   C79   S    
C48   O36   A    
Cr6   O50   S    
C4    C85   S    
C14   H30   S    
C8    C84   D    
C25   C26   A    
C6    C90   S    
C67   O3    A    
Cr10  O18   S    
C84   H28   S    
C48   C84   S    
C43   H11   S    
C54   H6    S    
C60   H19   S    
C42   H10   S    
Cr2   O42   S    
Cr7   O31   S    
C68   O4    A    
Cr5   O49   S    
C72   O52   A    
C34   H38   S    
C71   O47   A    
C38   C54   D    
C51   H43   S    
Cr10  O14   S    
C1    O25   A    
C69   O45   A    
C33   C34   A    
C49   H41   S    
C2    C87   S    
Cr10  O38   S    
C74   O10   A    
Cr9   O17   S    
Cr1   O45   S    
Cr6   O18   S    
C42   C50   D    
C41   C72   S    
Cr8   O52   S    
C10   C25   A    
C47   O35   A    
C15   C24   A    
Cr12  O36   S    
C2    O22   A    
C78   O14   A    
C16   C23   A    
Cr5   O5    S    
C66   O38   A    
Cr4   O24   S    
C81   H25   S    
Cr11  O35   S    
Cr3   O3    S    
Cr8   O8    S    
Cr7   O51   S    
C16   H32   S    
C7    C91   S    
C48   O32   A    
Cr9   O33   S    
C11   C68   S    
C3    O27   A    
Cr6   O30   S    
C38   C74   S    
C10   C65   S    
C53   H5    S    
C59   H20   S    
C37   C73   S    
C60   C80   S    
C58   H17   S    
C85   C89   D    
Cr3   O43   S    
C4    O24   A    
C55   H7    S    
C85   H21   S    
Cr2   O46   S    
C13   H29   S    
C44   H12   S    
C45   C81   S    
C79   O15   A    
C40   H16   S    
Cr3   O19   S    
C72   O48   A    
Cr12  O20   S    
C71   O51   A    
Cr1   O41   S    
C43   C70   S    
C50   H42   S    
C19   C20   A    
Cr11  O15   S    
C13   C17   A    
Cr8   O20   S    
C33   H37   S    
C89   H1    S    
C46   O34   A    
C57   C77   S    
Cr9   O13   S    
C83   H27   S    
C36   H40   S    
C41   H9    S    
C77   O41   A    
C88   H24   S    
Cr2   O22   S    
C45   O29   A    
Cr11  O11   S    
Cr12  O16   S    
C76   O12   A    
C11   C28   A    
C1    C88   S    
Cr5   O17   S    
C43   C51   D    
C1    O21   A    
C42   C71   S    
C76   O8    A    
C13   C22   A    
C31   C35   A    
C20   F12   S    
C65   O1    A    
Cr4   O44   S    
C6    F6    S    
C49   C53   S    
C58   C78   S    
Cr9   O9    S    
C63   C64   S    
C38   H14   S    
C75   O7    A    
Cr2   O2    S    
Cr4   O48   S    
C37   H13   S    
C68   O40   A    
C70   O50   A    
C4    O28   A    
C73   O5    A    
C27   C28   A    
C44   C69   S    
C31   H36   S    
Cr3   O23   S    
C56   H8    S    
C5    C89   S    
C52   C56   S    
C35   H39   S    
C26   C30   A    
Cr8   O32   S    
