data_mof_unit_55967.cif
_audit_creation_date              2012-12-10T17:36:47-0500
_audit_creation_method            fapswitch 2.2
_symmetry_space_group_name_H-M    P1
_symmetry_Int_Tables_number       1
_space_group_crystal_system       triclinic
_cell_length_a                    10.621951
_cell_length_b                    12.391812
_cell_length_c                    13.233991
_cell_angle_alpha                 117.182185
_cell_angle_beta                  76.824497
_cell_angle_gamma                 101.421375
_cell_volume                      1499.86426744

loop_
_atom_site_label
_atom_site_type_symbol
_atom_type_description
_atom_site_fract_x
_atom_site_fract_y
_atom_site_fract_z
_atom_type_partial_charge
C1    C     C_R   0.510018 0.854519 0.286708 0.790073
C2    C     C_3   0.022121 0.040312 0.608132 -0.240805
C3    C     C_3   0.928045 0.926996 0.546994 -0.132584
C4    C     C_3   0.875988 0.001887 0.502974 -0.093477
C5    C     C_R   0.319956 0.271948 0.019181 -0.178568
C6    C     C_R   0.456959 0.226623 0.835238 -0.075953
C7    C     C_R   0.571857 0.813108 0.080840 -0.207428
C8    C     C_R   0.583391 0.733786 0.964341 0.308664
C9    C     C_R   0.543452 0.609817 0.929949 -0.116533
C10   C     C_R   0.489545 0.563080 0.011736 0.040403
C11   C     C_R   0.456460 0.646648 0.127487 0.010649
C12   C     C_R   0.739686 0.001272 0.502035 0.830247
C13   C     C_R   0.457528 0.436266 0.980081 0.023415
C14   C     C_R   0.365484 0.396438 0.056293 0.062370
C15   C     C_R   0.320119 0.482277 0.167361 0.129512
C16   C     C_R   0.366759 0.604552 0.201768 -0.103992
C17   C     C_R   0.515219 0.347222 0.875690 0.214006
C18   C     C_R   0.361112 0.188878 0.907798 -0.211511
C19   C     C_R   0.510083 0.770813 0.163849 -0.127543
C20   C     C_R   0.707540 0.344625 0.326628 -0.259056
C21   C     C_R   0.309659 0.751706 0.629449 0.118760
C22   C     C_R   0.248587 0.642316 0.630554 -0.208973
C23   C     C_R   0.483057 0.144891 0.713265 0.853789
C24   C     C_R   0.311981 0.537450 0.568577 -0.105947
C25   C     C_R   0.442463 0.542571 0.514680 0.014384
C26   C     C_R   0.492220 0.651546 0.501278 0.292714
C27   C     C_R   0.520246 0.441227 0.464025 -0.069762
C28   C     C_R   0.632465 0.443226 0.382801 0.120134
C29   C     C_R   0.670731 0.544844 0.359452 -0.214522
C30   C     C_R   0.604191 0.647734 0.419391 -0.168236
C31   C     C_R   0.497998 0.341881 0.495194 0.446243
C32   C     C_R   0.675647 0.245808 0.354134 0.050354
C33   C     C_R   0.259883 0.999063 0.498309 0.847342
C34   C     C_3   0.975467 0.961043 0.392528 -0.239480
C35   C     C_3   0.029878 0.887195 0.437034 0.262692
C36   C     C_3   0.122842 0.999244 0.497620 -0.095559
C37   C     C_3   0.068677 0.073795 0.454368 0.310307
C38   C     C_3   0.966960 0.115542 0.564592 -0.128931
Cu1   Cu    Cu3+1 0.529830 0.098270 0.475420 1.025698
Cu2   Cu    Cu3+1 0.470170 0.901730 0.524580 0.958428
H1    H     H_    0.610639 0.907885 0.106133 0.182663
H2    H     H_    0.549971 0.551674 0.838780 0.214026
H3    H     H_    0.324273 0.666129 0.285850 0.226114
H4    H     H_    0.733077 0.169419 0.310021 0.143276
H5    H     H_    0.755685 0.546419 0.296369 0.186691
H6    H     H_    0.791596 0.344558 0.262307 0.162163
H7    H     H_    0.258183 0.832024 0.673721 0.131119
H8    H     H_    0.954134 0.928531 0.304254 0.173963
H9    H     H_    0.254215 0.452197 0.557803 0.217556
H10   H     H_    0.149948 0.637536 0.674841 0.175474
H11   H     H_    0.641100 0.720460 0.395219 0.204727
H12   H     H_    0.938414 0.209419 0.616786 0.202060
H13   H     H_    0.043526 0.072654 0.696347 0.173401
H14   H     H_    0.867937 0.866314 0.584896 0.197918
H15   H     H_    0.316532 0.095308 0.877881 0.168564
H16   H     H_    0.248107 0.238452 0.073586 0.161276
N1    N     N_R   0.575030 0.246270 0.438190 -0.195950
N2    N     N_R   0.425760 0.754330 0.561190 -0.210082
O1    O     O_R   0.537510 0.972500 0.318130 -0.581663
O2    O     O_R   0.487140 0.806530 0.359650 -0.616570
O3    O     O_R   0.708330 0.082950 0.479220 -0.570040
O4    O     O_R   0.657960 0.916980 0.520740 -0.599784
O5    O     O_R   0.512860 0.193470 0.640350 -0.510160
O6    O     O_R   0.462490 0.027500 0.681870 -0.595002
O7    O     O_R   0.342040 0.083020 0.479260 -0.522356
O8    O     O_R   0.291670 0.917050 0.520780 -0.590572
Br1   Br    Br    0.063527 0.719169 0.345290 -0.553588
Br2   Br    Br    0.690933 0.377367 0.803549 -0.511073
Br3   Br    Br    0.657361 0.793990 0.851487 -0.503875
Br4   Br    Br    0.376327 0.352153 0.631785 -0.500150
Br5   Br    Br    0.164278 0.179326 0.384121 -0.537135
N3    N     N_3   0.228002 0.448250 0.248461 -0.543347
H17   H     H_    0.142520 0.406138 0.213609 0.244506
H18   H     H_    0.267055 0.386573 0.263224 0.244523

loop_
_geom_bond_atom_site_label_1
_geom_bond_atom_site_label_2
_ccdc_geom_bond_type
C30   H11   S    
Cu2   O2    S    
C34   C37   S    
C5    H16   S    
C35   C36   S    
C33   O7    A    
C7    C8    A    
C15   N3    S    
C11   C19   A    
C9    H2    S    
C29   C30   A    
C28   C29   A    
C1    O1    A    
C3    H14   S    
C38   H12   S    
C15   C16   A    
Cu1   N1    S    
C33   C36   S    
Cu2   O4    S    
C34   C35   S    
C31   Br4   S    
C8    C9    A    
C35   Br1   S    
C4    C12   S    
C9    C10   A    
C22   H10   S    
C23   O5    A    
Cu2   O8    S    
C21   C22   A    
Cu1   O7    S    
C32   N1    A    
C6    C18   A    
C33   O8    A    
Cu1   O3    S    
C4    C34   S    
C1    C19   S    
Cu2   N2    S    
C27   C31   A    
C24   C25   A    
N3    H18   S    
C1    O2    A    
Cu1   Cu2   S    
C8    Br3   S    
C5    C18   A    
C20   C28   A    
C25   C26   A    
C2    H13   S    
C29   H5    S    
C37   C38   S    
C12   O4    A    
C11   C16   A    
C2    C38   S    
C3    C35   S    
Cu1   O1    S    
C32   H4    S    
C26   N2    A    
C16   H3    S    
C5    C14   A    
C18   H15   S    
C23   O6    A    
C4    C38   S    
C26   C30   A    
C7    C19   A    
C37   Br5   S    
C22   C24   A    
C34   H8    S    
C3    C4    S    
C20   C32   A    
C2    C36   S    
C24   H9    S    
C6    C17   A    
C36   C37   S    
C17   Br2   S    
N3    H17   S    
C10   C13   A    
C25   C27   A    
Cu1   O5    S    
Cu2   O6    S    
C13   C17   A    
C31   N1    A    
C2    C3    S    
C21   N2    A    
C12   O3    A    
C6    C23   S    
C7    H1    S    
C10   C11   A    
C27   C28   A    
C14   C15   A    
C13   C14   A    
C20   H6    S    
C21   H7    S    
