data_mof_unit_65233.cif
_audit_creation_date              2012-12-10T18:50:42-0500
_audit_creation_method            fapswitch 2.2
_symmetry_space_group_name_H-M    P1
_symmetry_Int_Tables_number       1
_space_group_crystal_system       triclinic
_cell_length_a                    37.386245
_cell_length_b                    30.448398
_cell_length_c                    21.841747
_cell_angle_alpha                 90.112816
_cell_angle_beta                  125.767604
_cell_angle_gamma                 89.922176
_cell_volume                      20174.1309706

loop_
_atom_site_label
_atom_site_type_symbol
_atom_type_description
_atom_site_fract_x
_atom_site_fract_y
_atom_site_fract_z
_atom_type_partial_charge
C1    C     C_R   0.414050 0.499977 0.913954 0.879366
C2    C     C_R   0.585952 0.499964 0.086065 0.879575
C3    C     C_R   0.914022 0.999996 0.914095 0.884349
C4    C     C_R   0.085985 0.999978 0.085969 0.884673
C5    C     C_2   0.499349 0.500204 0.815963 -0.337569
C6    C     C_2   0.500678 0.500413 0.184054 -0.338162
C7    C     C_2   0.999394 0.000602 0.816048 -0.343897
C8    C     C_2   0.000546 0.999794 0.183855 -0.340293
C9    C     C_R   0.298135 0.475040 0.840597 -0.151871
C10   C     C_R   0.701812 0.474560 0.159740 -0.152312
C11   C     C_R   0.798367 0.964915 0.827248 -0.162076
C12   C     C_R   0.201574 0.965049 0.172778 -0.158721
C13   C     C_R   0.343751 0.473698 0.884668 -0.130900
C14   C     C_R   0.656253 0.473142 0.115829 -0.131460
C15   C     C_R   0.844101 0.965474 0.872945 -0.132959
C16   C     C_R   0.155959 0.965659 0.126821 -0.129157
C17   C     C_R   0.366597 0.499982 0.866135 -0.009345
C18   C     C_R   0.633368 0.499974 0.133914 -0.010004
C19   C     C_R   0.866471 0.000049 0.867128 -0.009480
C20   C     C_R   0.133487 0.999999 0.133167 -0.014202
C21   C     C_R   0.344023 0.526164 0.801911 -0.192429
C22   C     C_R   0.655980 0.526645 0.197628 -0.192679
C23   C     C_R   0.843541 0.034528 0.816576 -0.188750
C24   C     C_R   0.156474 0.034013 0.184508 -0.190496
C25   C     C_R   0.298350 0.525296 0.754558 -0.155534
C26   C     C_R   0.701615 0.525787 0.245096 -0.157425
C27   C     C_R   0.797832 0.034941 0.771855 -0.158947
C28   C     C_R   0.202140 0.034405 0.229383 -0.158799
C29   C     C_R   0.274402 0.500138 0.773741 0.104480
C30   C     C_R   0.725642 0.500135 0.226206 0.104719
C31   C     C_R   0.774443 0.999695 0.775685 0.112754
C32   C     C_R   0.225628 0.999438 0.225017 0.110969
C33   C     C_R   0.201501 0.534188 0.671922 -0.151539
C34   C     C_R   0.798576 0.534430 0.327859 -0.152934
C35   C     C_R   0.701962 0.022448 0.656382 -0.166690
C36   C     C_R   0.298102 0.023526 0.342697 -0.164623
C37   C     C_R   0.155807 0.533332 0.625062 -0.186654
C38   C     C_R   0.844235 0.533506 0.374871 -0.190074
C39   C     C_R   0.656188 0.022822 0.611039 -0.187547
C40   C     C_R   0.343853 0.024132 0.387671 -0.187936
C41   C     C_R   0.133363 0.500059 0.633235 -0.012172
C42   C     C_R   0.866697 0.500036 0.366773 -0.010656
C43   C     C_R   0.633501 0.999695 0.633448 -0.021907
C44   C     C_R   0.366559 0.999755 0.366664 -0.021816
C45   C     C_R   0.500113 0.500001 0.881756 0.967293
C46   C     C_R   0.499884 0.500077 0.118245 0.967063
C47   C     C_R   0.000106 0.000047 0.881763 0.970798
C48   C     C_R   0.999862 0.000000 0.118198 0.970739
C49   C     C_R   0.156184 0.466842 0.686098 -0.185874
C50   C     C_R   0.843834 0.466734 0.313994 -0.185476
C51   C     C_R   0.655878 0.976320 0.701280 -0.187606
C52   C     C_R   0.344131 0.974986 0.300579 -0.186331
C53   C     C_R   0.201838 0.465878 0.729792 -0.156676
C54   C     C_R   0.798224 0.465697 0.270342 -0.157513
C55   C     C_R   0.701647 0.976319 0.747923 -0.158066
C56   C     C_R   0.298440 0.974858 0.254124 -0.156275
C57   C     C_R   0.225477 0.500169 0.724615 0.112662
C58   C     C_R   0.774513 0.500248 0.275342 0.113652
C59   C     C_R   0.725429 0.999501 0.726234 0.117671
C60   C     C_R   0.274530 0.999314 0.274458 0.116358
C61   C     C_R   0.499969 0.414348 0.499954 0.902380
C62   C     C_R   0.000006 0.914562 0.500411 0.908002
C63   C     C_R   0.499961 0.499740 0.618753 0.951003
C64   C     C_R   0.500031 0.499808 0.381247 0.950767
C65   C     C_R   0.999972 0.999559 0.618775 0.951270
C66   C     C_R   0.000026 0.000206 0.381228 0.955158
C67   C     C_R   0.499995 0.585993 0.500002 0.853319
C68   C     C_R   0.999994 0.086029 0.500003 0.858275
C69   C     C_R   0.999981 0.413921 0.499915 0.857221
C70   C     C_R   0.499987 0.913954 0.499918 0.855773
C71   C     C_R   0.086052 0.499998 0.585975 0.857732
C72   C     C_R   0.913921 0.499979 0.414053 0.856467
C73   C     C_R   0.586074 0.000009 0.585994 0.859726
C74   C     C_R   0.413900 0.000070 0.414043 0.858495
C75   C     C_R   0.000178 0.585637 0.500296 0.871491
C76   C     C_R   0.499945 0.085802 0.500034 0.868128
C77   C     C_R   0.474635 0.299235 0.430199 0.251850
C78   C     C_R   0.521278 0.299345 0.570280 0.250036
C79   C     C_R   0.978896 0.799088 0.435537 0.243947
C80   C     C_R   0.032658 0.801021 0.575379 0.248935
C81   C     C_R   0.999764 0.274605 0.499501 0.116773
C82   C     C_R   0.499834 0.774552 0.499424 0.112356
C83   C     C_R   0.474198 0.344894 0.432431 -0.190839
C84   C     C_R   0.524014 0.345014 0.568013 -0.193582
C85   C     C_R   0.974104 0.844429 0.436586 -0.190357
C86   C     C_R   0.030641 0.846716 0.569641 -0.183020
C87   C     C_R   0.499772 0.367085 0.500118 -0.128911
C88   C     C_R   0.000547 0.867573 0.502349 -0.136296
C89   C     C_R   0.497648 0.274799 0.500388 -0.051928
C90   C     C_R   0.005171 0.774907 0.506612 -0.043715
C91   C     C_R   0.028932 0.699056 0.573019 -0.118745
C92   C     C_R   0.971394 0.701391 0.439225 -0.103999
C93   C     C_R   0.533625 0.201523 0.562769 -0.100586
C94   C     C_R   0.462881 0.200648 0.438421 -0.098716
C95   C     C_R   0.026721 0.653428 0.570756 -0.214318
C96   C     C_R   0.974138 0.656102 0.435820 -0.196091
C97   C     C_R   0.532281 0.155426 0.564353 -0.197590
C98   C     C_R   0.465802 0.155118 0.435978 -0.196375
C99   C     C_R   0.001195 0.632513 0.501936 -0.022664
C100  C     C_R   0.499518 0.133081 0.499885 -0.021079
C101  C     C_R   0.002519 0.724616 0.506596 0.134108
C102  C     C_R   0.497944 0.224771 0.500548 0.142517
C103  C     C_R   0.476482 0.701877 0.521316 -0.159319
C104  C     C_R   0.523327 0.701663 0.478010 -0.159424
C105  C     C_R   0.966040 0.201990 0.495775 -0.166079
C106  C     C_R   0.033703 0.201934 0.503728 -0.165898
C107  C     C_R   0.475454 0.656169 0.518935 -0.182578
C108  C     C_R   0.524455 0.655964 0.480725 -0.182666
C109  C     C_R   0.966498 0.156173 0.496497 -0.182424
C110  C     C_R   0.033378 0.156114 0.503300 -0.182208
C111  C     C_R   0.499979 0.633490 0.499909 -0.008601
C112  C     C_R   0.999971 0.133663 0.499960 -0.018099
C113  C     C_R   0.021742 0.297944 0.474933 -0.165923
C114  C     C_R   0.977742 0.298113 0.524007 -0.166689
C115  C     C_R   0.532622 0.798149 0.500371 -0.159361
C116  C     C_R   0.467008 0.798256 0.498447 -0.159525
C117  C     C_R   0.499869 0.725424 0.499555 0.111071
C118  C     C_R   0.999825 0.225386 0.499649 0.116043
C119  C     C_R   0.999848 0.366310 0.499672 -0.023665
C120  C     C_R   0.499895 0.866471 0.499687 -0.013384
C121  C     C_R   0.021929 0.343764 0.475662 -0.188165
C122  C     C_R   0.977696 0.343929 0.523416 -0.187657
C123  C     C_R   0.531645 0.843856 0.497944 -0.187951
C124  C     C_R   0.468114 0.843962 0.501139 -0.187278
C125  C     C_2   0.536338 0.501414 0.753498 -0.158233
C126  C     C_2   0.463757 0.502699 0.246619 -0.158397
C127  C     C_2   0.036463 0.999601 0.753691 -0.158516
C128  C     C_2   0.963483 0.001035 0.246236 -0.157503
C129  C     C_2   0.499186 0.498266 0.683581 -0.384723
C130  C     C_2   0.500795 0.498563 0.316398 -0.385342
C131  C     C_2   0.999219 0.997059 0.683635 -0.384431
C132  C     C_2   0.000833 0.001247 0.316388 -0.382604
C133  C     C_2   0.536737 0.500402 0.820810 0.297581
C134  C     C_2   0.463322 0.501917 0.179268 0.297015
C135  C     C_2   0.036825 0.997347 0.820996 0.298813
C136  C     C_2   0.963181 0.002006 0.178949 0.295341
H1    H     H_    0.567927 0.504805 0.762249 0.205214
H2    H     H_    0.432271 0.506799 0.238037 0.205343
H3    H     H_    0.068147 0.002975 0.762545 0.204599
H4    H     H_    0.931666 0.000381 0.237282 0.204412
H5    H     H_    0.137930 0.559231 0.583846 0.143441
H6    H     H_    0.862161 0.559470 0.416076 0.140356
H7    H     H_    0.638961 0.041610 0.558705 0.151566
H8    H     H_    0.361148 0.043980 0.438611 0.150866
H9    H     H_    0.138626 0.440764 0.692070 0.140357
H10   H     H_    0.861420 0.440526 0.308035 0.139915
H11   H     H_    0.638058 0.957621 0.718092 0.152240
H12   H     H_    0.362038 0.955276 0.285049 0.151283
H13   H     H_    0.217711 0.437827 0.766200 0.129897
H14   H     H_    0.782437 0.437466 0.234257 0.129983
H15   H     H_    0.717185 0.958526 0.800739 0.136377
H16   H     H_    0.282865 0.955960 0.202626 0.136173
H17   H     H_    0.038552 0.282434 0.454058 0.129763
H18   H     H_    0.960886 0.282764 0.544778 0.129616
H19   H     H_    0.559736 0.782502 0.504269 0.127959
H20   H     H_    0.439860 0.782694 0.494382 0.128656
H21   H     H_    0.455464 0.363450 0.380032 0.187433
H22   H     H_    0.543157 0.363487 0.620298 0.187549
H23   H     H_    0.952528 0.862465 0.384069 0.190220
H24   H     H_    0.052055 0.866771 0.619512 0.195106
H25   H     H_    0.051757 0.710318 0.629195 0.200672
H26   H     H_    0.942829 0.715293 0.389406 0.188490
H27   H     H_    0.563279 0.215988 0.610643 0.183981
H28   H     H_    0.432587 0.214621 0.391483 0.184932
H29   H     H_    0.046141 0.634890 0.623074 0.161724
H30   H     H_    0.952223 0.639100 0.382391 0.156938
H31   H     H_    0.558160 0.138104 0.614731 0.150961
H32   H     H_    0.440257 0.137116 0.385794 0.150400
H33   H     H_    0.039890 0.361022 0.458053 0.151143
H34   H     H_    0.959740 0.361320 0.541087 0.150882
H35   H     H_    0.556563 0.861362 0.497042 0.141014
H36   H     H_    0.443182 0.861553 0.502104 0.141230
H37   H     H_    0.459405 0.717575 0.541518 0.128636
H38   H     H_    0.540397 0.717179 0.457738 0.128372
H39   H     H_    0.938646 0.217436 0.491173 0.129228
H40   H     H_    0.061065 0.217353 0.508275 0.129354
H41   H     H_    0.466955 0.494103 0.671271 0.158423
H42   H     H_    0.532941 0.493871 0.328582 0.158076
H43   H     H_    0.966868 0.991962 0.671160 0.158063
H44   H     H_    0.033411 0.002701 0.329113 0.156741
H45   H     H_    0.456479 0.638711 0.534230 0.141531
H46   H     H_    0.543463 0.638339 0.465540 0.141395
H47   H     H_    0.940626 0.138890 0.495068 0.150914
H48   H     H_    0.059300 0.138778 0.504819 0.151000
H49   H     H_    0.466773 0.501801 0.763895 0.098476
H50   H     H_    0.533300 0.500571 0.236137 0.098364
H51   H     H_    0.966853 0.007273 0.764038 0.100116
H52   H     H_    0.032997 0.996152 0.235713 0.101018
H53   H     H_    0.282374 0.456557 0.860861 0.138378
H54   H     H_    0.717441 0.455696 0.139420 0.138486
H55   H     H_    0.783045 0.936500 0.833009 0.132098
H56   H     H_    0.216970 0.936870 0.166544 0.132646
H57   H     H_    0.361238 0.453226 0.934556 0.179689
H58   H     H_    0.638732 0.452242 0.066379 0.180953
H59   H     H_    0.861860 0.938978 0.913300 0.170146
H60   H     H_    0.138148 0.939506 0.085880 0.175952
H61   H     H_    0.361889 0.546354 0.787192 0.141122
H62   H     H_    0.638080 0.547273 0.211994 0.141023
H63   H     H_    0.860715 0.061349 0.811016 0.151213
H64   H     H_    0.139253 0.060564 0.190577 0.151399
H65   H     H_    0.282518 0.543968 0.703027 0.128543
H66   H     H_    0.717434 0.544789 0.296395 0.127913
H67   H     H_    0.782043 0.063370 0.735621 0.131027
H68   H     H_    0.217870 0.062479 0.266041 0.130814
H69   H     H_    0.217230 0.562184 0.666431 0.130970
H70   H     H_    0.782928 0.562697 0.333185 0.128911
H71   H     H_    0.717543 0.040072 0.634463 0.128862
H72   H     H_    0.282693 0.042057 0.363702 0.129043
O1    O     O_R   0.434530 0.536960 0.934530 -0.611470
O2    O     O_R   0.565470 0.536960 0.065470 -0.612756
O3    O     O_R   0.934530 0.036960 0.934530 -0.617111
O4    O     O_R   0.065470 0.036960 0.065470 -0.619579
O5    O     O_R   0.065470 0.500010 0.514410 -0.619161
O6    O     O_R   0.934530 0.500010 0.485590 -0.619722
O7    O     O_R   0.565470 0.000010 0.514410 -0.623877
O8    O     O_R   0.434530 0.000010 0.485590 -0.622988
O9    O     O_R   0.065460 0.500010 0.616540 -0.616072
O10   O     O_R   0.934540 0.500010 0.383460 -0.615306
O11   O     O_R   0.565460 0.000010 0.616540 -0.620551
O12   O     O_R   0.434540 0.000010 0.383460 -0.619435
O13   O     O_R   0.000010 0.565480 0.448930 -0.619328
O14   O     O_R   0.999990 0.565480 0.551070 -0.624278
O15   O     O_R   0.500010 0.065480 0.448930 -0.616383
O16   O     O_R   0.499990 0.065480 0.551070 -0.616449
O17   O     O_R   0.434530 0.463040 0.934530 -0.623057
O18   O     O_R   0.565470 0.463040 0.065470 -0.622688
O19   O     O_R   0.934530 0.963040 0.934530 -0.627727
O20   O     O_R   0.065470 0.963040 0.065470 -0.624463
O21   O     O_R   0.500010 0.536960 0.909550 -0.609596
O22   O     O_R   0.499990 0.536960 0.090450 -0.608206
O23   O     O_R   0.000010 0.036960 0.909550 -0.613461
O24   O     O_R   0.999990 0.036960 0.090450 -0.607119
O25   O     O_R   0.500010 0.463040 0.909550 -0.604069
O26   O     O_R   0.499990 0.463040 0.090450 -0.605761
O27   O     O_R   0.000010 0.963040 0.909550 -0.601111
O28   O     O_R   0.999990 0.963040 0.090450 -0.606082
O29   O     O_R   0.536960 0.434530 0.536970 -0.618265
O30   O     O_R   0.463040 0.434530 0.463030 -0.617856
O31   O     O_R   0.036960 0.934530 0.536970 -0.618822
O32   O     O_R   0.963040 0.934530 0.463030 -0.622612
O33   O     O_R   0.536950 0.500000 0.627420 -0.618156
O34   O     O_R   0.463050 0.500000 0.372580 -0.617869
O35   O     O_R   0.036950 0.000000 0.627420 -0.617738
O36   O     O_R   0.963050 0.000000 0.372580 -0.618408
O37   O     O_R   0.463030 0.500000 0.553490 -0.624347
O38   O     O_R   0.536970 0.500000 0.446510 -0.624810
O39   O     O_R   0.963030 0.000000 0.553490 -0.625461
O40   O     O_R   0.036970 0.000000 0.446510 -0.623603
O41   O     O_R   0.536960 0.565470 0.536960 -0.619999
O42   O     O_R   0.463040 0.565470 0.463040 -0.619648
O43   O     O_R   0.036960 0.065470 0.536960 -0.624487
O44   O     O_R   0.963040 0.065470 0.463040 -0.623759
O45   O     O_R   1.000000 0.434540 0.448940 -0.622972
O46   O     O_R   0.000000 0.434540 0.551060 -0.622884
O47   O     O_R   0.500000 0.934540 0.448940 -0.618821
O48   O     O_R   0.500000 0.934540 0.551060 -0.618757
Zn1   Zn    Zn3+2 0.500000 0.549350 0.000000 1.004754
Zn2   Zn    Zn3+2 0.000000 0.049350 0.000000 0.997017
Zn3   Zn    Zn3+2 0.500000 0.450640 0.000000 1.009229
Zn4   Zn    Zn3+2 1.000000 0.950640 0.000000 1.006342
Zn5   Zn    Zn3+2 0.549360 0.500000 0.549360 0.983278
Zn6   Zn    Zn3+2 0.450640 0.500000 0.450640 0.984963
Zn7   Zn    Zn3+2 0.049360 0.000000 0.549360 0.985160
Zn8   Zn    Zn3+2 0.950640 0.000000 0.450640 0.979541
Zn9   Zn    Zn3+2 0.000010 0.500010 0.431810 0.978056
Zn10  Zn    Zn3+2 0.999990 0.500010 0.568190 0.973928
Zn11  Zn    Zn3+2 0.500010 0.000010 0.431810 0.976920
Zn12  Zn    Zn3+2 0.499990 0.000010 0.568190 0.976959
Br1   Br    Br    0.444615 0.278817 0.326373 -0.522196
Br2   Br    Br    0.548177 0.279605 0.673460 -0.520134
Br3   Br    Br    0.952365 0.780814 0.330618 -0.524421
Br4   Br    Br    0.076223 0.786256 0.684146 -0.524767
Br5   Br    Br    0.593596 0.500962 0.916520 -0.535391
Br6   Br    Br    0.406508 0.504241 0.083603 -0.533570
Br7   Br    Br    0.093648 0.992679 0.916988 -0.518630
Br8   Br    Br    0.906457 0.005083 0.082934 -0.516971

loop_
_geom_bond_atom_site_label_1
_geom_bond_atom_site_label_2
_ccdc_geom_bond_type
C43   C73   S    
C121  H33   S    
C78   Br2   S    
C55   C59   A    
C89   C102  S    
C8    C136  D    
C46   O22   A    
C14   C18   A    
C35   C39   A    
C132  H44   S    
C84   C87   A    
C5    H49   S    
C97   C100  A    
C69   O45   A    
C54   H14   S    
C66   O40   A    
C8    H52   S    
O2    Zn1   S    
C5    C133  D    
O29   Zn5   S    
C77   C89   A    
C50   C54   A    
O35   Zn7   S    
C107  H45   S    
C106  C118  A    
C27   H67   S    
C61   O30   A    
C46   O26   A    
C24   H64   S    
C7    H51   S    
C26   H66   S    
C127  C135  S    
C82   C115  A    
C38   C42   A    
C25   H65   S    
C128  C136  S    
C36   H72   S    
O14   Zn10  S    
C9    C13   A    
C95   C99   A    
C85   C88   A    
C64   O34   A    
C94   C98   A    
C1    O17   A    
C63   O33   A    
C96   C99   A    
O5    Zn9   S    
C92   C96   A    
O10   Zn9   S    
C62   O32   A    
C73   O11   A    
C35   C59   A    
C68   C112  S    
C31   C59   S    
C129  H41   S    
O8    Zn12  S    
C79   C90   A    
C80   C86   A    
C130  H42   S    
C110  C112  A    
C15   C19   A    
C52   C56   A    
C11   C15   A    
C126  H2    S    
C12   C16   A    
C75   O14   A    
C70   C120  S    
O27   Zn4   S    
C122  H34   S    
C83   H21   S    
C81   C114  A    
O7    Zn11  S    
O4    Zn2   S    
C3    C19   S    
O9    Zn10  S    
O36   Zn8   S    
C23   C27   A    
C56   H16   S    
C61   C87   S    
O42   Zn6   S    
C40   C44   A    
O15   Zn11  S    
O39   Zn8   S    
O21   Zn1   S    
C120  C123  A    
C9    C29   A    
C6    C46   S    
C41   C71   S    
O40   Zn7   S    
C15   H59   S    
C68   O44   A    
C4    O20   A    
C14   H58   S    
O44   Zn8   S    
C11   C31   A    
C52   H12   S    
O33   Zn5   S    
C12   C32   A    
C53   H13   S    
C38   H6    S    
C135  Br7   S    
O31   Zn7   S    
C103  C117  A    
C45   O21   A    
C91   C101  A    
C2    O18   A    
C63   O37   A    
O37   Zn6   S    
C128  C132  D    
C41   C49   A    
C105  C109  A    
C65   C131  S    
C69   O46   A    
C127  C131  D    
C119  C121  A    
C76   O15   A    
C25   C29   A    
O26   Zn3   S    
C12   H56   S    
O23   Zn2   S    
C7    C47   S    
C2    O2    A    
C115  C123  A    
O28   Zn4   S    
C109  H47   S    
C29   C57   S    
C86   C88   A    
C1    O1    A    
O11   Zn12  S    
C28   H68   S    
C20   C24   A    
C95   H29   S    
C50   H10   S    
C133  Br5   S    
O17   Zn3   S    
C45   O25   A    
O25   Zn3   S    
C10   C14   A    
C109  C112  A    
C70   O48   A    
C76   O16   A    
C126  C130  D    
C84   H22   S    
O6    Zn10  S    
C104  H38   S    
C51   C55   A    
O45   Zn9   S    
C71   O5    A    
C62   C88   S    
C81   C118  S    
C69   C119  S    
C77   C83   A    
C34   H70   S    
C62   O31   A    
C56   C60   A    
C80   Br4   S    
C4    C20   S    
C72   O6    A    
O18   Zn3   S    
C19   C23   A    
C8    C48   S    
C90   C101  S    
C7    C135  D    
C16   H60   S    
C98   H32   S    
C78   C84   A    
C65   O35   A    
C10   C30   A    
C93   C97   A    
O1    Zn1   S    
C124  H36   S    
O22   Zn1   S    
C28   C32   A    
C16   C20   A    
C83   C87   A    
C125  C133  S    
C75   C99   S    
C127  H3    S    
O34   Zn6   S    
C49   H9    S    
C5    C45   S    
C108  C111  A    
C10   H54   S    
C44   C74   S    
C61   O29   A    
C126  C134  S    
C51   H11   S    
C48   O28   A    
O38   Zn5   S    
C37   H5    S    
C92   C101  A    
C42   C50   A    
O19   Zn4   S    
C47   O23   A    
C67   C111  S    
C13   H57   S    
C136  Br8   S    
C39   H7    S    
C26   C30   A    
C98   C100  A    
C40   H8    S    
C27   C31   A    
C105  H39   S    
C134  Br6   S    
C96   H30   S    
C105  C118  A    
O30   Zn6   S    
C32   C60   S    
C74   O12   A    
C23   H63   S    
C94   H28   S    
C104  C108  A    
C36   C40   A    
C72   O10   A    
C68   O43   A    
C33   C37   A    
C104  C117  A    
C54   C58   A    
C119  C122  A    
C92   H26   S    
C47   O27   A    
C21   C25   A    
O46   Zn10  S    
C33   C57   A    
C116  C124  A    
C74   O8    A    
C33   H69   S    
C34   C38   A    
C93   C102  A    
C107  C111  A    
C93   H27   S    
C22   H62   S    
C91   H25   S    
C24   C28   A    
C4    O4    A    
C113  H17   S    
C2    C18   S    
C36   C60   A    
C53   C57   A    
C70   O47   A    
O16   Zn12  S    
C39   C43   A    
O20   Zn4   S    
C55   H15   S    
C44   C52   A    
C108  H46   S    
C76   C100  S    
C113  C121  A    
C77   Br1   S    
C3    O19   A    
C6    H50   S    
C1    C17   S    
C71   O9    A    
C66   C132  S    
C13   C17   A    
C114  C122  A    
C78   C89   A    
C9    H53   S    
C125  H1    S    
C18   C22   A    
C115  H19   S    
C82   C116  A    
C6    C134  D    
C97   H31   S    
O48   Zn12  S    
C43   C51   A    
C66   O36   A    
C49   C53   A    
C131  H43   S    
C30   C58   S    
C3    O3    A    
C21   H61   S    
C79   C85   A    
C128  H4    S    
C11   H55   S    
C63   C129  S    
O24   Zn2   S    
C37   C41   A    
C79   Br3   S    
C116  H20   S    
O13   Zn9   S    
O32   Zn8   S    
C110  H48   S    
C65   O39   A    
C48   O24   A    
C67   O42   A    
C125  C129  D    
C35   H71   S    
C64   O38   A    
C75   O13   A    
C91   C95   A    
C106  C110  A    
O3    Zn2   S    
C22   C26   A    
C64   C130  S    
C81   C113  A    
C34   C58   A    
C103  H37   S    
C106  H40   S    
O47   Zn11  S    
C73   O7    A    
C103  C107  A    
C85   H23   S    
C82   C117  S    
O41   Zn5   S    
C42   C72   S    
O12   Zn11  S    
C86   H24   S    
C80   C90   A    
C114  H18   S    
C123  H35   S    
C120  C124  A    
C94   C102  A    
O43   Zn7   S    
C67   O41   A    
C17   C21   A    
