data_mof_unit_12716.cif
_audit_creation_date              2012-10-26T19:36:24-0400
_audit_creation_method            fapswitch 2.2
_symmetry_space_group_name_H-M    P1
_symmetry_Int_Tables_number       1
_space_group_crystal_system       triclinic
_cell_length_a                    10.879488
_cell_length_b                    16.00245
_cell_length_c                    14.735348
_cell_angle_alpha                 89.842874
_cell_angle_beta                  91.03455
_cell_angle_gamma                 90.331251
_cell_volume                      2564.93145235

loop_
_atom_site_label
_atom_site_type_symbol
_atom_type_description
_atom_site_fract_x
_atom_site_fract_y
_atom_site_fract_z
_atom_type_partial_charge
C1    C     C_R   0.500916 0.340860 0.500078 0.525261
C2    C     C_R   0.510638 0.087417 0.495758 0.005871
C3    C     C_R   0.432689 0.956227 0.434746 0.224345
C4    C     C_R   0.595540 0.044190 0.551220 0.204341
C5    C     C_1   0.506745 0.823153 0.498223 0.053395
C6    C     C_1   0.507172 0.177008 0.498539 0.049666
C7    C     C_1   0.504081 0.251918 0.499946 -0.003503
C8    C     C_1   0.503361 0.748187 0.499468 0.004490
C9    C     C_R   0.535582 0.572309 0.952340 0.234207
C10   C     C_R   0.467166 0.426536 0.047624 0.229569
C11   C     C_R   0.500226 0.500511 0.902875 0.008140
C12   C     C_R   0.500322 0.659166 0.499902 0.550682
C13   C     C_R   0.501556 0.498575 0.097101 0.025144
C14   C     C_R   0.466227 0.428282 0.951106 -0.187209
C15   C     C_R   0.535903 0.570695 0.048844 -0.167035
C16   C     C_R   0.261562 0.497519 0.498962 0.528015
C17   C     C_R   0.738311 0.496802 0.501070 0.546042
C18   C     C_1   0.499843 0.500213 0.802733 0.200163
C19   C     C_1   0.500859 0.499294 0.197265 0.181793
C20   C     C_R   0.171927 0.551533 0.180694 0.263688
C21   C     C_R   0.762789 0.358649 0.761596 0.272128
C22   C     C_R   0.134232 0.559745 0.271361 -0.119607
C23   C     C_R   0.871867 0.491527 0.502868 -0.006104
C24   C     C_R   0.814653 0.383124 0.679388 -0.081338
C25   C     C_R   0.110474 0.488475 0.324063 0.026505
C26   C     C_R   0.886328 0.456180 0.672664 0.015629
C27   C     C_R   0.123613 0.408379 0.286243 0.281193
C28   C     C_R   0.911154 0.504242 0.751064 0.290839
C29   C     C_R   0.159519 0.400495 0.195868 -0.115462
C30   C     C_R   0.854955 0.481813 0.833044 -0.133134
C31   C     C_R   0.182128 0.471566 0.143458 -0.097010
C32   C     C_R   0.781864 0.410099 0.838469 -0.155983
C33   C     C_R   0.931264 0.498936 0.419824 -0.118664
C34   C     C_R   0.127895 0.492621 0.497119 -0.005441
C35   C     C_R   0.068695 0.481546 0.579890 -0.118619
C36   C     C_3   0.269017 0.678394 0.160802 -0.011276
C37   C     C_3   0.310904 0.736858 0.085724 -0.372544
C38   C     C_3   0.686186 0.245712 0.844667 -0.020056
C39   C     C_3   0.637663 0.157343 0.830240 -0.342531
C40   C     C_3   0.188529 0.296564 0.369883 0.005103
C41   C     C_3   0.147206 0.239672 0.446520 -0.362190
C42   C     C_3   0.080280 0.574495 0.809153 -0.023784
C43   C     C_3   0.182032 0.633310 0.778813 -0.343890
C44   C     C_3   0.786208 0.102305 0.559168 -0.015446
C45   C     C_R   0.941330 0.478559 0.583985 0.008625
C46   C     C_3   0.883088 0.138493 0.623775 -0.373186
C47   C     C_3   0.419704 0.884328 0.300361 -0.014996
C48   C     C_3   0.407146 0.946032 0.221746 -0.390356
C49   C     C_R   0.058008 0.496718 0.415487 0.006135
C50   C     C_R   0.592495 0.955947 0.553781 0.209757
C51   C     C_R   0.428610 0.044297 0.437854 0.211563
C52   C     C_R   0.510919 0.912843 0.495518 0.002039
Cu1   Cu    Cu3+1 0.500040 0.500000 0.589220 1.026371
Cu2   Cu    Cu3+1 0.499960 0.500000 0.410780 0.980697
H1    H     H_    0.206136 0.464588 0.072913 0.140500
H2    H     H_    0.439011 0.372950 0.913423 0.096010
H3    H     H_    0.590817 0.687977 0.949410 0.321146
H4    H     H_    0.412119 0.310820 0.050562 0.313992
H5    H     H_    0.351999 0.647649 0.190832 0.129293
H6    H     H_    0.223908 0.716523 0.213466 0.135923
H7    H     H_    0.232206 0.774651 0.060202 0.162350
H8    H     H_    0.383954 0.779391 0.112089 0.083693
H9    H     H_    0.348131 0.700277 0.028620 0.176206
H10   H     H_    0.623344 0.277927 0.891621 0.133761
H11   H     H_    0.780048 0.241188 0.875904 0.121123
H12   H     H_    0.739342 0.396285 0.902561 0.108936
H13   H     H_    0.701429 0.121836 0.787047 0.194892
H14   H     H_    0.630261 0.124933 0.896665 0.090541
H15   H     H_    0.545378 0.159047 0.796798 0.180810
H16   H     H_    0.258906 0.340264 0.398657 0.154270
H17   H     H_    0.231044 0.258030 0.316273 0.172122
H18   H     H_    0.082046 0.191600 0.419902 0.165118
H19   H     H_    0.227840 0.208130 0.478143 0.148634
H20   H     H_    0.101054 0.277066 0.499282 0.142370
H21   H     H_    0.120843 0.510897 0.817060 0.108566
H22   H     H_    0.047455 0.596392 0.875973 0.155515
H23   H     H_    0.118390 0.620937 0.299822 0.110227
H24   H     H_    0.146234 0.697925 0.772092 0.171837
H25   H     H_    0.258655 0.632965 0.829683 0.125027
H26   H     H_    0.217665 0.612842 0.712354 0.176016
H27   H     H_    0.770253 0.147745 0.502885 0.139605
H28   H     H_    0.823224 0.043168 0.530850 0.142075
H29   H     H_    0.903038 0.093420 0.679484 0.151842
H30   H     H_    0.969084 0.151299 0.586619 0.095192
H31   H     H_    0.849884 0.197655 0.653371 0.185958
H32   H     H_    0.378661 0.823812 0.278643 0.144987
H33   H     H_    0.519110 0.872019 0.314581 0.116479
H34   H     H_    0.797955 0.345148 0.619588 0.121413
H35   H     H_    0.308492 0.956791 0.205174 0.160386
H36   H     H_    0.452026 0.006355 0.239773 0.173985
H37   H     H_    0.452586 0.920631 0.160971 0.099035
H38   H     H_    0.715714 0.948430 0.651660 0.359058
H39   H     H_    0.287358 0.051894 0.354465 0.361986
H40   H     H_    0.165712 0.339245 0.165334 0.137470
H41   H     H_    0.866446 0.520457 0.892766 0.130956
H42   H     H_    0.878813 0.504266 0.356778 0.146359
H43   H     H_    0.122039 0.472075 0.641851 0.142518
H44   H     H_    0.562649 0.626159 0.086501 0.088528
N1    N     N_1   0.500040 0.499980 0.276710 -0.198199
N2    N     N_1   0.499960 0.500020 0.723290 -0.181476
O1    O     O_R   0.500060 0.380310 0.575320 -0.479335
O2    O     O_3   0.434325 0.355336 0.094674 -0.710145
O3    O     O_3   0.185140 0.619689 0.123400 -0.562140
O4    O     O_3   0.687692 0.287824 0.760289 -0.545444
O5    O     O_3   0.085063 0.338822 0.333987 -0.567157
O6    O     O_3   0.982824 0.575995 0.744207 -0.539692
O7    O     O_3   0.676494 0.088223 0.606865 -0.568144
O8    O     O_3   0.354184 0.912627 0.376557 -0.567251
O9    O     O_3   0.667776 0.910184 0.611747 -0.682894
O10   O     O_3   0.346893 0.090010 0.384908 -0.730982
O11   O     O_R   0.499940 0.619690 0.424680 -0.508941
O12   O     O_R   0.500000 0.380310 0.424640 -0.495632
O13   O     O_R   0.500000 0.619690 0.575360 -0.469354
O14   O     O_R   0.319670 0.500010 0.575340 -0.520008
O15   O     O_R   0.680330 0.499990 0.424660 -0.503708
O16   O     O_R   0.319610 0.500010 0.424650 -0.508134
O17   O     O_R   0.680390 0.499990 0.575350 -0.481869
O18   O     O_3   0.569200 0.643337 0.905293 -0.688242

loop_
_geom_bond_atom_site_label_1
_geom_bond_atom_site_label_2
_ccdc_geom_bond_type
C14   H2    S    
C11   C18   S    
C23   C45   A    
C40   H17   S    
C27   C29   A    
C39   H14   S    
C36   H5    S    
C37   H8    S    
C20   O3    S    
Cu1   Cu2   S    
C43   H24   S    
C42   H21   S    
C17   C23   S    
C40   H16   S    
C36   O3    S    
C36   C37   S    
C24   C26   A    
C44   H28   S    
C1    O12   A    
C29   H40   S    
C11   C14   A    
Cu1   O17   S    
H38   O9    S    
C27   O5    S    
C43   H25   S    
C34   C35   A    
C38   O4    S    
C26   C45   S    
C16   C34   S    
C41   H20   S    
C21   O4    S    
Cu1   O1    S    
C23   C33   A    
C22   C25   A    
Cu2   O16   S    
C50   C52   A    
C5    C52   S    
H4    O2    S    
C17   O17   A    
H39   O10   S    
C46   H31   S    
C48   H36   S    
C9    O18   S    
C2    C6    S    
C18   N2    T    
C16   O16   A    
C26   C28   A    
C37   H9    S    
Cu1   O13   S    
C38   H10   S    
Cu1   N2    S    
C4    O7    S    
C13   C19   S    
C47   H32   S    
C10   O2    S    
C44   H27   S    
C10   C14   A    
C28   O6    S    
C3    C51   A    
C44   C46   S    
C43   H26   S    
C48   H37   S    
C50   O9    S    
C4    C50   A    
C47   H33   S    
C2    C4    A    
C30   H41   S    
C9    C11   A    
C47   C48   S    
C38   H11   S    
C8    C12   S    
Cu2   O15   S    
C39   H15   S    
Cu2   O12   S    
C24   H34   S    
C41   H18   S    
C46   H30   S    
C40   C41   S    
C20   C22   A    
C51   O10   S    
C48   H35   S    
C13   C15   A    
Cu2   N1    S    
C42   C43   S    
C15   H44   S    
C35   C45   A    
C33   H42   S    
C1    O1    A    
Cu1   O14   S    
C17   O15   A    
C32   H12   S    
C12   O13   A    
C44   O7    S    
C34   C49   A    
C19   N1    T    
C1    C7    S    
C39   H13   S    
C22   H23   S    
C36   H6    S    
C10   C13   A    
C16   O14   A    
C5    C8    T    
C37   H7    S    
C3    C52   A    
C6    C7    T    
C3    O8    S    
C25   C27   A    
C42   H22   S    
C28   C30   A    
C9    C15   A    
C29   C31   A    
C21   C32   A    
C30   C32   A    
C38   C39   S    
Cu2   O11   S    
C25   C49   S    
C2    C51   A    
C41   H19   S    
C46   H29   S    
C42   O6    S    
C47   O8    S    
C21   C24   A    
H3    O18   S    
C31   H1    S    
C35   H43   S    
C33   C49   A    
C12   O11   A    
C40   O5    S    
C20   C31   A    
