data_mof_unit_57801.cif
_audit_creation_date              2012-12-10T20:59:40-0500
_audit_creation_method            fapswitch 2.2
_symmetry_space_group_name_H-M    P1
_symmetry_Int_Tables_number       1
_space_group_crystal_system       triclinic
_cell_length_a                    15.872415
_cell_length_b                    15.026467
_cell_length_c                    11.069989
_cell_angle_alpha                 88.903568
_cell_angle_beta                  90.499916
_cell_angle_gamma                 90.916392
_cell_volume                      2639.34768868

loop_
_atom_site_label
_atom_site_type_symbol
_atom_type_description
_atom_site_fract_x
_atom_site_fract_y
_atom_site_fract_z
_atom_type_partial_charge
C1    C     C_R   0.338642 0.499252 0.503726 0.922610
C2    C     C_1   0.174723 0.494738 0.506381 0.278925
C3    C     C_1   0.249828 0.496747 0.507511 -0.079557
C4    C     C_1   0.748635 0.500875 0.487829 -0.022113
C5    C     C_R   0.428431 0.952703 0.432109 -0.030408
C6    C     C_R   0.429780 0.048278 0.429907 -0.012259
C7    C     C_R   0.508274 0.501254 0.257948 1.096013
C8    C     C_R   0.498855 0.905221 0.478168 0.003587
C9    C     C_R   0.499503 0.095593 0.479613 0.027342
C10   C     C_R   0.570404 0.954017 0.514615 -0.174972
C11   C     C_R   0.570442 0.047393 0.516490 -0.197374
C12   C     C_3   0.600920 0.447735 0.925350 -0.152868
C13   C     C_1   0.499210 0.807169 0.490388 0.143648
C14   C     C_1   0.500162 0.193162 0.491038 0.110561
C15   C     C_R   0.661005 0.500428 0.499412 0.914085
C16   C     C_R   0.504890 0.499362 0.742955 0.835847
C17   C     C_3   0.514225 0.604966 0.069501 0.254029
C18   C     C_3   0.430644 0.457566 0.071071 0.163046
C19   C     C_3   0.506603 0.600350 0.928502 -0.271166
C20   C     C_3   0.430646 0.446499 0.931338 -0.293827
C21   C     C_3   0.603831 0.455844 0.077490 0.540859
C22   C     C_3   0.516818 0.503409 0.122857 -0.417423
C23   C     C_R   0.958713 0.569807 0.428266 0.299436
C24   C     C_3   0.514059 0.498028 0.878607 -0.134726
C25   C     C_R   0.532584 0.687763 0.858348 0.234801
C26   C     C_R   0.615056 0.724001 0.859362 -0.043826
C27   C     C_R   0.632095 0.811599 0.821634 -0.135913
C28   C     C_R   0.566816 0.866144 0.783317 -0.139889
C29   C     C_R   0.485241 0.831509 0.774612 -0.134079
C30   C     C_R   0.468381 0.743161 0.808970 -0.065677
C31   C     C_R   0.389053 0.361217 0.873648 0.162524
C32   C     C_R   0.376822 0.276917 0.932183 -0.063721
C33   C     C_R   0.335430 0.206190 0.875696 -0.185353
C34   C     C_R   0.950662 0.422897 0.530047 0.300228
C35   C     C_R   0.299462 0.218275 0.762280 -0.107674
C36   C     C_R   0.305014 0.301234 0.705195 -0.057433
C37   C     C_R   0.345859 0.371970 0.762401 -0.052154
C38   C     C_R   0.686326 0.485941 0.871285 0.118087
C39   C     C_R   0.693298 0.553612 0.781833 -0.249993
C40   C     C_R   0.771539 0.587223 0.743611 -0.166524
C41   C     C_R   0.845643 0.548430 0.784373 -0.069523
C42   C     C_R   0.841391 0.475153 0.862417 0.013185
C43   C     C_R   0.763262 0.443198 0.902786 -0.001920
C44   C     C_R   0.600764 0.350075 0.871116 0.092917
C45   C     C_R   0.911721 0.496896 0.475314 -0.274741
C46   C     C_R   0.642501 0.329213 0.761053 -0.047066
C47   C     C_R   0.647672 0.242058 0.720012 -0.066649
C48   C     C_R   0.609345 0.172510 0.784449 -0.145617
C49   C     C_R   0.563639 0.190974 0.886750 -0.125604
C50   C     C_R   0.559250 0.278392 0.926356 -0.016941
C51   C     C_R   0.360058 0.098173 0.370288 0.122551
C52   C     C_R   0.342233 0.087523 0.246669 -0.097400
C53   C     C_R   0.271975 0.128184 0.193771 -0.102086
C54   C     C_R   0.220411 0.181556 0.262675 0.009036
C55   C     C_R   0.238731 0.193920 0.384839 -0.117859
C56   C     C_R   0.036618 0.429956 0.558553 0.295486
C57   C     C_R   0.308059 0.152085 0.438443 -0.224561
C58   C     C_R   0.355434 0.904059 0.378530 0.061483
C59   C     C_R   0.273036 0.919511 0.417737 -0.145242
C60   C     C_R   0.203969 0.889736 0.349612 -0.021475
C61   C     C_R   0.216659 0.842213 0.244110 -0.033454
C62   C     C_R   0.298256 0.822189 0.208509 -0.159547
C63   C     C_R   0.367312 0.853362 0.275267 -0.122622
C64   C     C_R   0.046941 0.561611 0.423623 0.329842
C65   C     C_R   0.085173 0.495515 0.497167 -0.265064
C66   C     C_1   0.822946 0.499989 0.478801 0.281438
H1    H     H_    0.626331 0.919450 0.544985 0.157863
H2    H     H_    0.695673 0.838386 0.827613 0.163671
H3    H     H_    0.579477 0.935347 0.760753 0.135605
H4    H     H_    0.434596 0.873528 0.742744 0.133144
H5    H     H_    0.403499 0.720067 0.803462 0.114775
H6    H     H_    0.397843 0.262738 0.022270 0.211777
H7    H     H_    0.330296 0.141952 0.920911 0.131580
H8    H     H_    0.265120 0.163979 0.720793 0.154455
H9    H     H_    0.275444 0.311833 0.617973 0.171965
H10   H     H_    0.342094 0.437209 0.721273 0.110836
H11   H     H_    0.721047 0.616154 0.276321 0.423150
H12   H     H_    0.626659 0.082202 0.546958 0.142453
H13   H     H_    0.702349 0.232899 0.145952 0.397413
H14   H     H_    0.640120 0.584139 0.741637 0.165615
H15   H     H_    0.774301 0.642763 0.680152 0.198676
H16   H     H_    0.906026 0.573602 0.752961 0.152748
H17   H     H_    0.898590 0.442646 0.891642 0.189179
H18   H     H_    0.763360 0.385189 0.960688 0.216815
H19   H     H_    0.672987 0.379738 0.705877 0.145274
H20   H     H_    0.681593 0.228739 0.638131 0.147129
H21   H     H_    0.613993 0.104686 0.754923 0.128425
H22   H     H_    0.531212 0.137783 0.935653 0.137275
H23   H     H_    0.451443 0.627525 0.099760 0.108025
H24   H     H_    0.522689 0.291191 0.001092 0.182142
H25   H     H_    0.230143 0.623014 0.240459 0.375880
H26   H     H_    0.164768 0.394007 0.828976 0.403846
H27   H     H_    0.791837 0.738183 0.418529 0.391536
H28   H     H_    0.787894 0.253879 0.468613 0.373556
H29   H     H_    0.381588 0.046226 0.192157 0.127435
H30   H     H_    0.256967 0.117859 0.099690 0.131673
H31   H     H_    0.166411 0.213447 0.221368 0.168332
H32   H     H_    0.199087 0.235695 0.437819 0.190484
H33   H     H_    0.321244 0.160606 0.533007 0.128724
H34   H     H_    0.386704 0.513768 0.077516 0.125455
H35   H     H_    0.262466 0.958538 0.497282 0.139947
H36   H     H_    0.140628 0.904298 0.377831 0.174255
H37   H     H_    0.163229 0.820313 0.190500 0.189524
H38   H     H_    0.308090 0.784685 0.127442 0.160945
H39   H     H_    0.430148 0.842166 0.243655 0.206615
H40   H     H_    0.438080 0.609315 0.918038 0.098251
H41   H     H_    0.378591 0.490956 0.901137 0.127857
H42   H     H_    0.542622 0.848466 0.081492 0.377391
H43   H     H_    0.376492 0.305650 0.314269 0.392849
H44   H     H_    0.666289 0.688120 0.897817 0.219168
N1    N     N_1   0.500020 0.270550 0.499960 -0.087515
N2    N     N_1   0.500020 0.729450 0.499960 -0.061873
O1    O     O_R   0.378020 0.573650 0.500000 -0.603496
O2    O     O_2   0.653049 0.726863 0.106286 -0.232698
O3    O     O_3   0.508599 0.794141 0.064892 -0.619300
O4    O     O_2   0.324232 0.455484 0.259833 -0.332327
O5    O     O_2   0.276793 0.372989 0.087621 -0.278414
O6    O     O_3   0.389942 0.301640 0.227484 -0.519833
O7    O     O_2   0.726361 0.594415 0.044030 -0.280864
O8    O     O_2   0.770859 0.467977 0.160523 -0.227094
O9    O     O_3   0.672199 0.576345 0.259919 -0.528261
O10   O     O_2   0.666227 0.369871 0.283700 -0.217550
O11   O     O_2   0.549284 0.293810 0.194236 -0.308850
O12   O     O_R   0.378020 0.426350 0.500000 -0.641802
O13   O     O_3   0.693598 0.285090 0.091530 -0.577103
O14   O     O_2   0.062310 0.677014 0.230683 -0.219599
O15   O     O_2   0.148063 0.703823 0.412954 -0.318070
O16   O     O_3   0.189717 0.576974 0.270469 -0.513218
O17   O     O_2   0.014123 0.340512 0.770111 -0.231330
O18   O     O_2   0.117179 0.282235 0.630137 -0.306582
O19   O     O_3   0.156428 0.424814 0.749954 -0.601703
O20   O     O_2   0.964122 0.749628 0.401247 -0.222310
O21   O     O_2   0.886057 0.664328 0.248687 -0.205475
O22   O     O_3   0.818366 0.685880 0.458113 -0.628182
O23   O     O_R   0.499990 0.573670 0.314770 -0.556246
O24   O     O_2   0.948349 0.243055 0.561098 -0.198996
O25   O     O_2   0.845897 0.327996 0.674587 -0.330235
O26   O     O_3   0.820752 0.307900 0.444853 -0.517463
O27   O     O_R   0.499990 0.426330 0.314770 -0.513608
O28   O     O_R   0.621980 0.573680 0.499940 -0.601096
O29   O     O_R   0.621980 0.426320 0.499940 -0.595342
O30   O     O_R   0.500010 0.573660 0.685180 -0.656729
O31   O     O_R   0.500010 0.426340 0.685180 -0.633824
O32   O     O_2   0.550308 0.720634 0.263361 -0.272268
S1    S     S_3+6 0.561613 0.709835 0.130695 0.040940
S2    S     S_3+6 0.353364 0.395477 0.162567 0.013092
S3    S     S_3+6 0.695764 0.524924 0.132189 0.081172
S4    S     S_3+6 0.625644 0.349549 0.164168 0.033744
S5    S     S_3+6 0.111153 0.633904 0.332160 0.067256
S6    S     S_3+6 0.080661 0.365504 0.679284 0.051220
S7    S     S_3+6 0.907463 0.670117 0.380873 0.081916
S8    S     S_3+6 0.891683 0.322220 0.556931 0.071636
Zn1   Zn    Zn3+2 0.500000 0.598370 0.499960 1.047281
Zn2   Zn    Zn3+2 0.500000 0.401630 0.499960 1.042021

loop_
_geom_bond_atom_site_label_1
_geom_bond_atom_site_label_2
_ccdc_geom_bond_type
O4    S2    D    
C35   H8    S    
C34   C56   A    
C8    C13   S    
C23   C45   A    
O12   Zn2   S    
C41   C42   A    
C16   O30   A    
C28   H3    S    
O21   S7    D    
C2    C65   S    
C6    C9    A    
C30   H5    S    
C32   H6    S    
C10   H1    S    
C26   C27   A    
C29   C30   A    
C1    O1    A    
C5    C58   S    
C21   S3    S    
H42   O3    S    
C28   C29   A    
C36   H9    S    
C29   H4    S    
C13   N2    T    
C38   C39   A    
O14   S5    D    
O29   Zn2   S    
C41   H16   S    
O7    S3    D    
C56   C65   A    
C57   H33   S    
C25   C30   A    
C55   H32   S    
C52   H29   S    
C12   C24   S    
C46   C47   A    
C27   H2    S    
C17   C19   S    
C15   O29   A    
C50   H24   S    
C20   C24   S    
O18   S6    D    
O9    S3    S    
O25   S8    D    
C51   C57   A    
O10   S4    D    
C6    C51   S    
C63   H39   S    
C26   H44   S    
O28   Zn1   S    
C20   H41   S    
H13   O13   S    
C59   C60   A    
C16   C24   S    
C21   C22   S    
C53   H30   S    
C43   H18   S    
C49   H22   S    
C18   H34   S    
C60   H36   S    
O24   S8    D    
C44   C46   A    
H43   O6    S    
C62   H38   S    
C14   N1    T    
H25   O16   S    
C51   C52   A    
C59   H35   S    
C21   S4    S    
O6    S2    S    
H26   O19   S    
C17   H23   S    
H27   O22   S    
C39   C40   A    
C34   S8    S    
O31   Zn2   S    
O27   Zn2   S    
O26   S8    S    
C25   C26   A    
C53   C54   A    
C12   C21   S    
C31   C37   A    
C60   C61   A    
C1    C3    S    
C35   C36   A    
C17   S1    S    
C9    C14   S    
C47   H20   S    
C7    O23   A    
C62   C63   A    
C11   H12   S    
C47   C48   A    
C16   O31   A    
C48   H21   S    
C54   H31   S    
C34   C45   A    
C9    C11   A    
C33   H7    S    
C23   C64   A    
C37   H10   S    
N2    Zn1   S    
C55   C57   A    
H28   O26   S    
C42   C43   A    
C56   S6    S    
C27   C28   A    
C52   C53   A    
C15   O28   A    
C44   C50   A    
C58   C63   A    
C23   S7    S    
C54   C55   A    
C36   C37   A    
C61   H37   S    
C18   C22   S    
C40   H15   S    
C31   C32   A    
C42   H17   S    
O2    S1    D    
O1    Zn1   S    
O32   S1    D    
C18   S2    S    
O13   S4    S    
C5    C8    A    
C7    C22   S    
O3    S1    S    
C17   C22   S    
O23   Zn1   S    
C64   S5    S    
C32   C33   A    
C46   H19   S    
C4    C15   S    
C2    C3    T    
C58   C59   A    
C1    O12   A    
C38   C43   A    
C12   C44   S    
C39   H14   S    
C7    O27   A    
C5    C6    A    
C48   C49   A    
O22   S7    S    
C64   C65   A    
C33   C35   A    
C19   C24   S    
C18   C20   S    
O30   Zn1   S    
C12   C38   S    
C61   C62   A    
C19   C25   S    
N1    Zn2   S    
H11   O9    S    
C10   C11   A    
C19   H40   S    
O16   S5    S    
O17   S6    D    
O11   S4    D    
C4    C66   T    
O8    S3    D    
C8    C10   A    
C49   C50   A    
C45   C66   S    
O20   S7    D    
O5    S2    D    
O19   S6    S    
C40   C41   A    
O15   S5    D    
C20   C31   S    
