data_mof_unit_36874.cif
_audit_creation_date              2012-12-10T18:08:28-0500
_audit_creation_method            fapswitch 2.2
_symmetry_space_group_name_H-M    P1
_symmetry_Int_Tables_number       1
_space_group_crystal_system       triclinic
_cell_length_a                    12.680921
_cell_length_b                    13.087614
_cell_length_c                    14.12081
_cell_angle_alpha                 90.781331
_cell_angle_beta                  100.884191
_cell_angle_gamma                 83.090308
_cell_volume                      2284.5598645

loop_
_atom_site_label
_atom_site_type_symbol
_atom_type_description
_atom_site_fract_x
_atom_site_fract_y
_atom_site_fract_z
_atom_type_partial_charge
C1    C     C_R   0.439877 0.690814 0.487903 0.876190
C2    C     C_R   0.517549 0.040539 0.538431 0.111216
C3    C     C_R   0.591281 0.010976 0.624818 0.169967
C4    C     C_R   0.500652 0.499942 0.670309 0.874158
C5    C     C_R   0.591602 0.914499 0.665475 -0.270171
C6    C     C_R   0.526233 0.845132 0.616692 -0.184909
C7    C     C_R   0.526817 0.131699 0.492820 -0.251123
C8    C     C_R   0.661653 0.175215 0.627431 -0.200763
C9    C     C_R   0.403194 0.799609 0.468629 -0.177714
C10   C     C_R   0.082033 0.389557 0.332725 0.021499
C11   C     C_R   0.788922 0.645563 0.591657 -0.016959
C12   C     C_1   0.499447 0.499064 0.228032 -0.214696
C13   C     C_R   0.880938 0.694660 0.592164 0.069831
C14   C     C_R   0.961158 0.647746 0.545117 -0.247947
C15   C     C_R   0.953937 0.548646 0.506920 -0.031061
C16   C     C_R   0.559756 0.309055 0.512412 0.854282
C17   C     C_R   0.857917 0.504081 0.504236 0.196591
C18   C     C_R   0.037130 0.493615 0.466444 -0.044619
C19   C     C_R   0.006686 0.426290 0.390044 0.066339
C20   C     C_R   0.908163 0.385570 0.384137 -0.278587
C21   C     C_R   0.849400 0.408295 0.458050 0.217416
C22   C     C_R   0.148319 0.491234 0.505902 0.170458
C23   C     C_R   0.663323 0.078659 0.668693 -0.208443
C24   C     C_R   0.190862 0.400802 0.367335 -0.073214
C25   C     C_R   0.499759 0.499586 0.329742 0.877833
C26   C     C_1   0.502898 0.499354 0.772285 -0.210463
C27   C     C_1   0.504314 0.498963 0.857932 -0.031072
C28   C     C_1   0.503725 0.498689 0.957885 -0.001385
C29   C     C_1   0.502294 0.498640 0.043043 0.002095
C30   C     C_1   0.500428 0.498789 0.142785 -0.015144
C31   C     C_3   0.047415 0.349716 0.231984 -0.420115
C32   C     C_3   0.080591 0.234146 0.226403 -0.363515
C33   C     C_3   0.042612 0.193968 0.125269 -0.876140
C34   C     C_R   0.591615 0.201999 0.539933 -0.066242
C35   C     C_3   0.184283 0.517087 0.611611 -0.387870
C36   C     C_3   0.215042 0.418367 0.673326 -0.319618
C37   C     C_3   0.235314 0.442532 0.780902 -0.886251
C38   C     C_3   0.893081 0.796147 0.642181 -0.427001
C39   C     C_3   0.917535 0.780509 0.751934 -0.346635
C40   C     C_3   0.942189 0.880132 0.804105 -0.882069
C41   C     C_3   0.841439 0.315778 0.517045 -0.854756
C42   C     C_3   0.281162 0.750151 0.313502 -0.840492
C43   C     C_3   0.276991 0.107971 0.438539 -0.428350
C44   C     C_3   0.252346 0.114417 0.541193 -0.303600
C45   C     C_R   0.330988 0.830391 0.381055 0.143397
C46   C     C_3   0.149458 0.186310 0.545063 -0.931000
C47   C     C_3   0.240227 0.972839 0.261523 -0.966858
C48   C     C_R   0.306467 0.936334 0.358164 0.233532
C49   C     C_R   0.349239 0.008736 0.424848 0.035436
C50   C     C_R   0.441057 0.975310 0.496429 0.010810
C51   C     C_R   0.456387 0.872535 0.527721 0.009600
H1    H     H_    0.709941 0.230645 0.666361 0.148928
H2    H     H_    0.953075 0.208367 0.104854 0.261050
H3    H     H_    0.079401 0.232362 0.072039 0.262361
H4    H     H_    0.067353 0.109786 0.123384 0.254558
H5    H     H_    0.170033 0.219155 0.244889 0.212715
H6    H     H_    0.044935 0.192870 0.278614 0.225624
H7    H     H_    0.958543 0.367063 0.207318 0.210308
H8    H     H_    0.085443 0.390942 0.181380 0.201486
H9    H     H_    0.287650 0.504850 0.796655 0.273900
H10   H     H_    0.157419 0.468042 0.804045 0.251280
H11   H     H_    0.274747 0.372603 0.822953 0.254713
H12   H     H_    0.893899 0.317736 0.340973 0.163961
H13   H     H_    0.146737 0.371107 0.659047 0.211739
H14   H     H_    0.286921 0.371450 0.654576 0.256083
H15   H     H_    0.247453 0.569344 0.620321 0.222536
H16   H     H_    0.120334 0.560699 0.643501 0.191371
H17   H     H_    0.014464 0.907520 0.783653 0.262019
H18   H     H_    0.872169 0.940396 0.785700 0.255616
H19   H     H_    0.958695 0.866429 0.883252 0.249377
H20   H     H_    0.846945 0.753160 0.775747 0.213016
H21   H     H_    0.988706 0.721318 0.772543 0.226968
H22   H     H_    0.959989 0.832084 0.620121 0.207349
H23   H     H_    0.723730 0.682730 0.624031 0.144082
H24   H     H_    0.817576 0.849731 0.620256 0.211016
H25   H     H_    0.785077 0.265750 0.475202 0.245712
H26   H     H_    0.921831 0.269263 0.535079 0.218511
H27   H     H_    0.819540 0.338059 0.587598 0.247564
H28   H     H_    0.229134 0.781680 0.246052 0.233695
H29   H     H_    0.346018 0.694831 0.292505 0.229866
H30   H     H_    0.228289 0.708679 0.349737 0.253580
H31   H     H_    0.156750 0.264120 0.519151 0.277010
H32   H     H_    0.078836 0.156481 0.499130 0.262292
H33   H     H_    0.135605 0.191123 0.620365 0.247078
H34   H     H_    0.030641 0.687026 0.540615 0.145581
H35   H     H_    0.241109 0.036983 0.566353 0.224665
H36   H     H_    0.321111 0.142536 0.591367 0.227742
H37   H     H_    0.310782 0.178037 0.421430 0.199906
H38   H     H_    0.198247 0.109203 0.388557 0.219410
H39   H     H_    0.272987 0.931191 0.202355 0.251444
H40   H     H_    0.154179 0.961252 0.257428 0.249109
H41   H     H_    0.246242 0.054748 0.248177 0.237635
H42   H     H_    0.645745 0.890972 0.732550 0.149178
H43   H     H_    0.717197 0.058848 0.736610 0.133188
H44   H     H_    0.480652 0.151286 0.421602 0.138134
H45   H     H_    0.531247 0.769869 0.649169 0.146433
H46   H     H_    0.250962 0.375019 0.324397 0.149412
N1    N     N_R   0.222200 0.444680 0.454480 -0.117999
N2    N     N_R   0.776970 0.554780 0.545050 -0.137827
O1    O     O_R   0.366740 0.627160 0.478260 -0.609736
O2    O     O_R   0.544830 0.662520 0.507340 -0.610135
O3    O     O_R   0.410930 0.482320 0.611740 -0.602023
O4    O     O_R   0.589030 0.517680 0.640820 -0.604681
O5    O     O_R   0.455170 0.337480 0.492660 -0.605797
O6    O     O_R   0.633260 0.372840 0.521740 -0.607310
O7    O     O_R   0.410970 0.482320 0.359180 -0.606479
O8    O     O_R   0.589070 0.517680 0.388260 -0.576926
Zn1   Zn    Zn3+2 0.381090 0.476390 0.480580 0.908052
Zn2   Zn    Zn3+2 0.618910 0.523610 0.519420 0.929791

loop_
_geom_bond_atom_site_label_1
_geom_bond_atom_site_label_2
_ccdc_geom_bond_type
C33   H4    S    
C15   C18   A    
C42   H29   S    
C22   N1    A    
C47   H41   S    
C3    C23   A    
C19   C20   A    
C9    C51   A    
C37   H11   S    
C9    C45   A    
C22   C35   S    
C26   C27   T    
C43   H38   S    
C40   H19   S    
C24   N1    A    
C43   H37   S    
C31   H7    S    
C28   C29   T    
C41   H26   S    
C38   C39   S    
O2    Zn2   S    
N2    Zn2   S    
C4    O4    A    
C8    C23   A    
N1    Zn1   S    
C11   N2    A    
C18   C19   A    
C31   H8    S    
C2    C50   A    
C16   C34   S    
C46   H31   S    
C10   C31   S    
C16   O5    A    
C2    C7    A    
C4    O3    A    
C39   H21   S    
O3    Zn1   S    
C6    C51   A    
C44   H36   S    
C8    H1    S    
C5    H42   S    
C42   H28   S    
C13   C14   A    
O8    Zn2   S    
C42   H30   S    
C32   H6    S    
C44   H35   S    
C1    O1    A    
C44   C46   S    
C25   O7    A    
C38   H24   S    
C33   H2    S    
O1    Zn1   S    
C40   H18   S    
C24   H46   S    
C41   H27   S    
C1    C9    S    
C39   C40   S    
C36   H14   S    
C43   C49   S    
C35   H15   S    
C10   C24   A    
C17   C21   A    
C42   C45   S    
C43   C44   S    
C29   C30   S    
C37   H10   S    
C47   C48   S    
C35   H16   S    
C10   C19   A    
C50   C51   A    
C8    C34   A    
C17   N2    A    
C13   C38   S    
C16   O6    A    
C21   C41   S    
C48   C49   A    
C6    H45   S    
C7    C34   A    
C46   H33   S    
C1    O2    A    
O5    Zn1   S    
C25   O8    A    
C45   C48   A    
C33   H3    S    
C15   C17   A    
O6    Zn2   S    
C36   C37   S    
C12   C30   T    
C18   C22   A    
C47   H40   S    
C31   C32   S    
C14   H34   S    
C3    C5    A    
C11   H23   S    
C4    C26   S    
C7    H44   S    
C23   H43   S    
C12   C25   S    
O4    Zn2   S    
C32   C33   S    
C20   H12   S    
C2    C3    A    
C41   H25   S    
C11   C13   A    
C5    C6    A    
O7    Zn1   S    
C47   H39   S    
C37   H9    S    
C46   H32   S    
C20   C21   A    
C49   C50   A    
C40   H17   S    
C27   C28   S    
C39   H20   S    
C14   C15   A    
C35   C36   S    
C36   H13   S    
C32   H5    S    
C38   H22   S    
