data_mof_unit_17486.cif
_audit_creation_date              2012-12-10T16:50:17-0500
_audit_creation_method            fapswitch 2.2
_symmetry_space_group_name_H-M    P1
_symmetry_Int_Tables_number       1
_space_group_crystal_system       triclinic
_cell_length_a                    23.569119
_cell_length_b                    8.671398
_cell_length_c                    7.450125
_cell_angle_alpha                 103.335935
_cell_angle_beta                  95.005486
_cell_angle_gamma                 92.778578
_cell_volume                      1472.225827

loop_
_atom_site_label
_atom_site_type_symbol
_atom_type_description
_atom_site_fract_x
_atom_site_fract_y
_atom_site_fract_z
_atom_type_partial_charge
C1    C     C_R   0.498237 0.199462 0.452832 0.845013
C2    C     C_R   0.709717 0.571739 0.660342 0.026195
C3    C     C_R   0.231371 0.433858 0.346931 0.635423
C4    C     C_R   0.768638 0.566164 0.653041 0.635425
C5    C     C_R   0.208948 0.494177 0.514989 0.083058
C6    C     C_R   0.791054 0.506065 0.484960 0.083097
C7    C     C_2   0.497409 0.031270 0.426492 -0.299309
C8    C     C_2   0.502591 0.968730 0.573508 -0.299306
C9    C     C_R   0.390787 0.496151 0.500383 0.868085
C10   C     C_R   0.609214 0.503844 0.499615 0.868043
C11   C     C_R   0.884710 0.644083 0.533317 0.687548
C12   C     C_R   0.501763 0.800538 0.547168 0.845039
C13   C     C_R   0.115291 0.356181 0.466657 0.687556
C14   C     C_R   0.875644 0.361395 0.427595 0.600244
C15   C     C_R   0.124358 0.638870 0.572287 0.600182
C16   C     C_R   0.935437 0.355521 0.427331 -0.080212
C17   C     C_R   0.064566 0.644747 0.572564 -0.080216
C18   C     C_R   0.969888 0.499898 0.493628 -0.038641
C19   C     C_R   0.030113 0.500370 0.506278 -0.038657
C20   C     C_R   0.944237 0.644353 0.547096 -0.063825
C21   C     C_R   0.055765 0.355913 0.452839 -0.063832
C22   C     C_R   0.962379 0.212180 0.367055 0.193193
C23   C     C_R   0.245803 0.552959 0.676359 -0.215362
C24   C     C_R   0.037625 0.788086 0.632854 0.193196
C25   C     C_R   0.021750 0.214197 0.383005 -0.168305
C26   C     C_R   0.978253 0.786069 0.616933 -0.168314
C27   C     C_R   0.754197 0.447422 0.323591 -0.215455
C28   C     C_R   0.304678 0.554323 0.670412 0.600220
C29   C     C_R   0.695322 0.445944 0.329565 0.600289
C30   C     C_R   0.327998 0.492201 0.502410 -0.330552
C31   C     C_R   0.672006 0.507838 0.497579 -0.330486
C32   C     C_R   0.290290 0.428181 0.339642 0.026273
Cu1   Cu    Cu3+1 0.506340 0.517380 0.684380 1.186411
Cu2   Cu    Cu3+1 0.493660 0.482620 0.315620 1.186395
F1    F     F_    0.338622 0.618783 0.829599 -0.600392
F2    F     F_    0.661379 0.381604 0.170374 -0.600369
F3    F     F_    0.195391 0.379987 0.189599 -0.603838
F4    F     F_    0.804625 0.619927 0.810387 -0.603886
F5    F     F_    0.447864 0.347691 0.922667 -0.527835
F6    F     F_    0.552135 0.652310 0.077330 -0.527792
H1    H     H_    0.041355 0.103357 0.336887 0.209358
H2    H     H_    0.958649 0.896908 0.663072 0.209356
H3    H     H_    0.228676 0.599477 0.806820 0.226273
H4    H     H_    0.771321 0.401089 0.193107 0.226296
H5    H     H_    0.492550 0.958684 0.285248 0.212756
H6    H     H_    0.507450 0.041316 0.714752 0.212751
I1    I     I_    0.920628 0.984899 0.236271 -0.145572
I2    I     I_    0.079380 0.015357 0.763645 -0.145532
I3    I     I_    0.316000 0.309275 0.078232 -0.008972
I4    I     I_    0.684017 0.690369 0.921728 -0.009035
N1    N     N_R   0.851817 0.503939 0.479136 -0.436043
N2    N     N_R   0.148185 0.496324 0.520787 -0.436048
N3    N     N_2   0.484110 0.456420 0.038520 0.250257
N4    N     N_2   0.515890 0.543580 0.961480 0.250289
O1    O     O_R   0.504120 0.286130 0.619770 -0.554474
O2    O     O_2   0.140321 0.217240 0.425150 -0.457346
O3    O     O_2   0.841332 0.226650 0.382903 -0.461751
O4    O     O_2   0.158670 0.773613 0.616933 -0.461759
O5    O     O_R   0.495880 0.713870 0.380230 -0.554475
O6    O     O_R   0.493410 0.256770 0.308360 -0.569909
O7    O     O_R   0.506590 0.743230 0.691640 -0.569895
O8    O     O_R   0.423230 0.514630 0.655730 -0.497912
O9    O     O_R   0.576770 0.485370 0.344270 -0.497880
O10   O     O_R   0.412530 0.485280 0.344320 -0.563845
O11   O     O_R   0.587470 0.514720 0.655680 -0.563817
O12   O     O_2   0.859680 0.783026 0.574927 -0.457369

loop_
_geom_bond_atom_site_label_1
_geom_bond_atom_site_label_2
_ccdc_geom_bond_type
Cu1   O1    S    
C3    C32   A    
C2    C4    A    
C5    N2    S    
N3    N4    D    
C10   C31   S    
C6    N1    S    
C27   C29   A    
C13   N2    A    
F6    N4    S    
C14   N1    A    
C5    C23   A    
C11   O12   S    
C8    C12   S    
C13   O2    S    
C10   O9    A    
C28   C30   A    
C22   I1    S    
C1    O1    A    
Cu1   O11   S    
C7    C8    D    
C29   C31   A    
C23   C28   A    
C30   C32   A    
C12   O7    A    
C29   F2    S    
C26   H2    S    
F5    N3    S    
C20   C26   A    
C9    C30   S    
C7    H5    S    
Cu1   O7    S    
Cu2   O9    S    
C17   C19   A    
C24   C26   A    
Cu2   O10   S    
Cu1   Cu2   S    
C18   C20   A    
Cu2   O5    S    
C32   I3    S    
C15   O4    S    
C14   C16   A    
C11   C20   A    
C1    O6    A    
C17   C24   A    
C11   N1    A    
C13   C21   A    
C9    O8    A    
C9    O10   A    
Cu2   O6    S    
C23   H3    S    
C3    F3    S    
Cu2   N3    S    
C16   C18   A    
C4    C6    A    
C10   O11   A    
C25   H1    S    
Cu1   N4    S    
C15   C17   A    
C14   O3    S    
C21   C25   A    
C18   C19   A    
C16   C22   A    
C2    I4    S    
C8    H6    S    
C19   C21   A    
C15   N2    A    
C1    C7    S    
C12   O5    A    
Cu1   O8    S    
C27   H4    S    
C6    C27   A    
C28   F1    S    
C4    F4    S    
C2    C31   A    
C3    C5    A    
C22   C25   A    
C24   I2    S    
