data_mof_unit_57247.cif
_audit_creation_date              2012-12-10T17:07:12-0500
_audit_creation_method            fapswitch 2.2
_symmetry_space_group_name_H-M    P1
_symmetry_Int_Tables_number       1
_space_group_crystal_system       triclinic
_cell_length_a                    17.217384
_cell_length_b                    11.040249
_cell_length_c                    9.860836
_cell_angle_alpha                 111.459157
_cell_angle_beta                  94.147081
_cell_angle_gamma                 92.170438
_cell_volume                      1735.70327157

loop_
_atom_site_label
_atom_site_type_symbol
_atom_type_description
_atom_site_fract_x
_atom_site_fract_y
_atom_site_fract_z
_atom_type_partial_charge
C1    C     C_R   0.495029 0.254112 0.440972 0.884558
C2    C     C_R   0.505356 0.745899 0.558996 0.908808
C3    C     C_2   0.492593 0.114401 0.407684 -0.284641
C4    C     C_2   0.508456 0.885628 0.592215 -0.280699
C5    C     C_2   0.502546 0.069662 0.515940 -0.164002
C6    C     C_2   0.499978 0.930380 0.483776 -0.094415
C7    C     C_2   0.504071 0.512965 0.080219 0.076787
C8    C     C_2   0.494073 0.487595 0.917969 0.104969
C9    C     C_R   0.351655 0.498505 0.519126 0.842742
C10   C     C_R   0.648003 0.500932 0.480940 0.860022
C11   C     C_R   0.267665 0.493049 0.533167 -0.136840
C12   C     C_R   0.731534 0.503934 0.468714 -0.146120
C13   C     C_R   0.215637 0.392585 0.432759 0.390778
C14   C     C_R   0.772491 0.611857 0.455425 0.419360
C15   C     C_R   0.136095 0.395622 0.450152 -0.221115
C16   C     C_R   0.853248 0.610670 0.448556 -0.203234
C17   C     C_R   0.107586 0.495691 0.565188 0.033717
C18   C     C_R   0.892800 0.505174 0.457277 0.020245
C19   C     C_R   0.159132 0.591722 0.667813 -0.126322
C20   C     C_R   0.851763 0.398646 0.470194 -0.124225
C21   C     C_R   0.238871 0.590068 0.652133 -0.233496
C22   C     C_R   0.771455 0.398232 0.476155 -0.249997
C23   C     C_2   0.022285 0.501428 0.572133 0.369306
C24   C     C_2   0.978425 0.507236 0.455693 0.364300
Cu1   Cu    Cu3+1 0.513640 0.521550 0.643210 0.991336
Cu2   Cu    Cu3+1 0.486360 0.478450 0.356790 1.056859
H1    H     H_    0.740328 0.315658 0.487264 0.151995
H2    H     H_    0.278065 0.666627 0.730967 0.172905
H3    H     H_    0.137432 0.669344 0.757464 0.173773
H4    H     H_    0.882143 0.316360 0.476287 0.147476
H5    H     H_    0.886014 0.692880 0.440107 0.209138
H6    H     H_    0.095455 0.320644 0.372809 0.170669
H7    H     H_    0.490855 0.864000 0.370053 0.193811
H8    H     H_    0.512405 0.136040 0.629591 0.170126
H9    H     H_    0.517833 0.952259 0.705736 0.136047
H10   H     H_    0.482467 0.047784 0.294253 0.157268
H11   H     H_    0.455760 0.405339 0.846458 0.130625
H12   H     H_    0.549111 0.585109 0.147905 0.182968
N1    N     N_2   0.465840 0.446060 0.141630 -0.009618
N2    N     N_2   0.534160 0.553940 0.858370 -0.020623
O1    O     O_R   0.507280 0.332200 0.576490 -0.613845
O2    O     O_R   0.492720 0.667800 0.423510 -0.584397
O3    O     O_R   0.484240 0.295800 0.334620 -0.576259
O4    O     O_R   0.515760 0.704200 0.665380 -0.566372
O5    O     O_R   0.399260 0.520290 0.634950 -0.597244
O6    O     O_R   0.600740 0.479710 0.365050 -0.580040
O7    O     O_R   0.376220 0.483890 0.393080 -0.496367
O8    O     O_R   0.623780 0.516110 0.606920 -0.604424
S1    S     S_3+6 0.246370 0.260159 0.286331 0.006920
O9    O     O_2   0.261938 0.305362 0.163980 -0.210855
O10   O     O_2   0.319478 0.211390 0.334705 -0.344139
O11   O     O_3   0.176560 0.136966 0.223944 -0.518480
H13   H     H_    0.173450 0.104085 0.304508 0.345563
S2    S     S_3+6 0.725811 0.752639 0.458170 -0.029592
O12   O     O_2   0.663967 0.716369 0.331977 -0.325891
O13   O     O_2   0.688680 0.809159 0.599240 -0.341173
O14   O     O_3   0.790623 0.865089 0.445596 -0.541884
H14   H     H_    0.759661 0.939807 0.448984 0.374421
O15   O     O_3   0.015269 0.527026 0.343275 -0.582191
C25   C     C_3   0.975854 0.452618 0.205383 -0.274600
H15   H     H_    0.921803 0.497821 0.185505 0.175173
H16   H     H_    0.962472 0.349504 0.193472 0.153118
H17   H     H_    0.014490 0.451119 0.119617 0.200259
O16   O     O_3   0.986789 0.509355 0.697628 -0.587574
C26   C     C_3   0.020306 0.426899 0.762911 -0.291202
H18   H     H_    0.077663 0.470346 0.823821 0.187386
H19   H     H_    0.026072 0.327286 0.681038 0.154495
H20   H     H_    0.981229 0.416477 0.843171 0.189214
O17   O     O_3   0.565756 0.670802 0.952909 -0.518424
C27   C     C_3   0.641517 0.688274 0.915957 -0.038482
H21   H     H_    0.673403 0.597600 0.888470 0.138796
H22   H     H_    0.675011 0.763232 0.012405 0.149851
H23   H     H_    0.640037 0.725914 0.826057 0.199719
O18   O     O_3   0.405006 0.366553 0.058605 -0.462378
C28   C     C_3   0.425943 0.236905 0.021594 -0.048027
H24   H     H_    0.402964 0.194795 0.098040 0.224218
H25   H     H_    0.490065 0.226689 0.018214 0.084578
H26   H     H_    0.397980 0.178166 0.910618 0.124891

loop_
_geom_bond_atom_site_label_1
_geom_bond_atom_site_label_2
_ccdc_geom_bond_type
C9    O5    A    
C7    C8    S    
C20   H4    S    
C16   H5    S    
C17   C23   S    
C25   H17   S    
C18   C24   S    
C19   C21   A    
Cu1   N2    S    
C5    C6    S    
Cu2   N1    S    
C12   C22   A    
C25   H16   S    
N1    O18   S    
S1    O9    D    
C1    O3    A    
C2    O4    A    
C26   H19   S    
C10   O6    A    
C23   C24   D    
C27   H21   S    
C26   H20   S    
C4    H9    S    
O15   C25   S    
Cu1   O4    S    
Cu2   O3    S    
S2    O13   D    
O18   C28   S    
C15   H6    S    
C4    C6    D    
N2    O17   S    
Cu1   O1    S    
S1    O10   D    
Cu1   Cu2   S    
C11   C21   A    
C25   H15   S    
C1    C3    S    
C2    C4    S    
C28   H24   S    
C9    C11   S    
S1    O11   S    
C5    H8    S    
C27   H23   S    
C28   H25   S    
Cu1   O8    S    
C10   C12   S    
Cu2   O7    S    
C13   S1    S    
C1    O1    A    
C23   O16   S    
C14   S2    S    
C21   H2    S    
C12   C14   A    
C9    O7    A    
C22   H1    S    
C13   C15   A    
C10   O8    A    
C14   C16   A    
C8    H11   S    
C19   H3    S    
Cu1   O5    S    
O11   H13   S    
Cu2   O2    S    
C15   C17   A    
S2    O12   D    
C20   C22   A    
C3    C5    D    
C6    H7    S    
O16   C26   S    
C11   C13   A    
O14   H14   S    
C3    H10   S    
C2    O2    A    
C24   O15   S    
C17   C19   A    
C7    H12   S    
C18   C20   A    
O17   C27   S    
C28   H26   S    
Cu2   O6    S    
C16   C18   A    
C26   H18   S    
C7    N1    D    
C27   H22   S    
C8    N2    D    
S2    O14   S    
