data_mof_unit_27664.cif
_audit_creation_date              2012-12-10T17:27:53-0500
_audit_creation_method            fapswitch 2.2
_symmetry_space_group_name_H-M    P1
_symmetry_Int_Tables_number       1
_space_group_crystal_system       triclinic
_cell_length_a                    10.437429
_cell_length_b                    12.063361
_cell_length_c                    12.762987
_cell_angle_alpha                 93.779389
_cell_angle_beta                  91.801935
_cell_angle_gamma                 85.528672
_cell_volume                      1598.05960337

loop_
_atom_site_label
_atom_site_type_symbol
_atom_type_description
_atom_site_fract_x
_atom_site_fract_y
_atom_site_fract_z
_atom_type_partial_charge
C1    C     C_R   0.502773 0.522266 0.699998 0.893158
C2    C     C_R   0.954061 0.395461 0.481524 -0.018416
C3    C     C_R   0.877673 0.495086 0.466125 -0.240933
C4    C     C_R   0.933267 0.598364 0.472406 0.334666
C5    C     C_R   0.051664 0.605843 0.524736 0.351306
C6    C     C_R   0.126149 0.506633 0.543202 -0.261557
C7    C     C_R   0.476774 0.464429 0.187006 -0.214231
C8    C     C_R   0.514038 0.534914 0.811111 -0.070784
C9    C     C_R   0.651034 0.560243 0.964804 0.419496
C10   C     C_R   0.625212 0.573657 0.858548 -0.240954
C11   C     C_R   0.427324 0.482880 0.866310 -0.096093
C12   C     C_R   0.740274 0.497560 0.485179 0.944656
C13   C     C_R   0.451341 0.464749 0.971078 -0.013007
C14   C     C_R   0.561384 0.507834 0.022536 -0.007896
C15   C     C_R   0.576068 0.499426 0.130205 -0.149995
C16   C     C_R   0.362685 0.429844 0.135889 0.215020
C17   C     C_R   0.363169 0.410485 0.026775 0.248761
C18   C     C_R   0.421894 0.947453 0.375821 -0.178118
C19   C     C_R   0.427717 0.833259 0.389969 0.132129
C20   C     C_R   0.518702 0.861377 0.560127 0.158131
C21   C     C_R   0.512250 0.978172 0.550694 -0.139921
C22   C     C_R   0.465780 0.022119 0.456339 -0.047506
C23   C     C_R   0.491252 0.478086 0.299584 1.023140
C24   C     C_R   0.459942 0.139340 0.447041 0.221032
C25   C     C_R   0.576190 0.161223 0.610489 0.374461
C26   C     C_R   0.550466 0.051224 0.633262 0.283146
C27   C     C_R   0.263178 0.503639 0.523218 0.987120
C28   C     C_R   0.920908 0.287591 0.443163 0.477630
C29   C     C_R   0.983504 0.193264 0.486086 -0.158535
C30   C     C_R   0.082809 0.204612 0.560491 -0.115065
C31   C     C_R   0.128189 0.309043 0.584779 -0.052908
C32   C     C_R   0.069312 0.404148 0.538806 -0.002287
H1    H     H_    0.693748 0.609470 0.811210 0.178839
H2    H     H_    0.340863 0.457259 0.825617 0.183056
H3    H     H_    0.385646 0.974930 0.300952 0.181879
H4    H     H_    0.393990 0.777115 0.327406 0.162141
H5    H     H_    0.560460 0.823813 0.628956 0.183311
H6    H     H_    0.957631 0.110583 0.459796 0.176784
H7    H     H_    0.130059 0.131644 0.594198 0.194810
H8    H     H_    0.210314 0.315324 0.638331 0.173428
H9    H     H_    0.658620 0.529919 0.172748 0.250254
N1    N     N_R   0.523130 0.207800 0.519340 -0.184356
N2    N     N_R   0.476870 0.792180 0.480660 -0.123617
O1    O     O_R   0.506170 0.421690 0.658830 -0.579751
O2    O     O_R   0.491330 0.609320 0.646410 -0.634471
O3    O     O_R   0.690660 0.406170 0.506210 -0.551753
O4    O     O_R   0.675810 0.593790 0.493790 -0.584925
O5    O     O_R   0.508670 0.390680 0.353590 -0.549000
O6    O     O_R   0.493830 0.578310 0.341170 -0.621889
O7    O     O_R   0.324190 0.406210 0.506210 -0.628072
O8    O     O_R   0.309340 0.593830 0.493790 -0.539544
Zn1   Zn    Zn3+2 0.509910 0.374720 0.508290 1.088513
Zn2   Zn    Zn3+2 0.490090 0.625280 0.491710 1.070565
S1    S     S_3+6 0.866734 0.710126 0.398159 0.139695
O9    O     O_2   0.770637 0.668430 0.317786 -0.253646
O10   O     O_2   0.801341 0.799671 0.469551 -0.271658
O11   O     O_3   0.984221 0.763829 0.335105 -0.440506
H10   H     H_    0.940853 0.826738 0.298324 0.390676
S2    S     S_3+6 0.258821 0.315545 0.962190 0.106796
O12   O     O_2   0.130980 0.375919 0.938100 -0.209077
O13   O     O_2   0.314723 0.264851 0.861279 -0.273615
O14   O     O_3   0.237053 0.211426 0.039598 -0.422602
H11   H     H_    0.324464 0.176243 0.053041 0.370567
I1    I     I_    0.335161 0.205760 0.328096 -0.154074
S3    S     S_3+6 0.691489 0.224651 0.698345 0.118358
O15   O     O_2   0.774656 0.300070 0.648493 -0.307485
O16   O     O_2   0.624973 0.287829 0.789020 -0.242991
O17   O     O_3   0.792481 0.123754 0.746583 -0.454491
H12   H     H_    0.843781 0.161921 0.802638 0.412996
S4    S     S_3+6 0.552187 0.005492 0.764525 0.093076
O18   O     O_2   0.543984 0.100533 0.846624 -0.165677
O19   O     O_2   0.438660 0.938094 0.775868 -0.326853
O20   O     O_3   0.687749 0.924044 0.785307 -0.494538
H13   H     H_    0.673244 0.886924 0.850409 0.378480
S5    S     S_3+6 0.828015 0.265108 0.326348 0.087573
O21   O     O_2   0.708949 0.210168 0.349975 -0.313881
O22   O     O_2   0.791028 0.372270 0.275777 -0.256257
O23   O     O_3   0.915568 0.180320 0.241251 -0.441921
H14   H     H_    0.908233 0.104106 0.263792 0.357314
S6    S     S_3+6 0.098691 0.735770 0.582049 0.099301
O24   O     O_2   0.153360 0.801128 0.500082 -0.263446
O25   O     O_2   0.984624 0.802150 0.629447 -0.207443
O26   O     O_3   0.210607 0.713085 0.677629 -0.559289
H15   H     H_    0.247059 0.785897 0.693480 0.403389
S7    S     S_3+6 0.209429 0.459361 0.193960 0.124437
O27   O     O_2   0.123053 0.366171 0.172376 -0.113347
O28   O     O_2   0.221968 0.481585 0.309947 -0.309759
O29   O     O_3   0.138695 0.575141 0.143979 -0.435598
H16   H     H_    0.135358 0.558823 0.066971 0.390481
S8    S     S_3+6 0.796547 0.607174 0.020441 0.086334
O30   O     O_2   0.766485 0.704750 0.097411 -0.269117
O31   O     O_2   0.867996 0.515031 0.077152 -0.143512
O32   O     O_3   0.891177 0.645906 0.927077 -0.503142
H17   H     H_    0.857559 0.722572 0.912440 0.372604

loop_
_geom_bond_atom_site_label_1
_geom_bond_atom_site_label_2
_ccdc_geom_bond_type
C6    C32   A    
C21   C26   A    
O32   H17   S    
C1    C8    S    
C24   N1    A    
O20   H13   S    
C9    C14   A    
S8    O30   D    
S7    O27   D    
C29   C30   A    
C28   C29   A    
C19   H4    S    
C12   O4    A    
C30   C31   A    
O6    Zn2   S    
C23   O6    A    
O3    Zn1   S    
C31   H8    S    
C2    C32   A    
C18   C19   A    
C3    C12   S    
N2    Zn2   S    
C31   C32   A    
C27   O8    A    
O17   H12   S    
S3    O16   D    
C29   H6    S    
O7    Zn1   S    
S4    O18   D    
C9    C10   A    
C27   O7    A    
O4    Zn2   S    
O1    Zn1   S    
C7    C15   A    
O2    Zn2   S    
S2    O12   D    
C24   I1    S    
C13   C14   A    
C6    C27   S    
S6    O26   S    
C19   N2    A    
S7    O28   D    
S1    O10   D    
S2    O13   D    
C25   S3    S    
C15   H9    S    
S6    O25   D    
O23   H14   S    
C16   C17   A    
C25   C26   A    
O8    Zn2   S    
C25   N1    A    
S5    O21   D    
O14   H11   S    
C1    O1    A    
S8    O31   D    
O26   H15   S    
S3    O17   S    
S4    O20   S    
O29   H16   S    
C5    S6    S    
S5    O22   D    
C17   S2    S    
C12   O3    A    
C7    C16   A    
C16   S7    S    
C26   S4    S    
C22   C24   A    
C3    C4    A    
C20   N2    A    
S8    O32   S    
C18   H3    S    
S7    O29   S    
S1    O9    D    
S2    O14   S    
C23   O5    A    
C4    S1    S    
C18   C22   A    
C11   H2    S    
S6    O24   D    
C9    S8    S    
S4    O19   D    
C13   C17   A    
C2    C3    A    
C20   H5    S    
C11   C13   A    
C1    O2    A    
O11   H10   S    
C5    C6    A    
C8    C11   A    
C7    C23   S    
C4    C5    A    
C30   H7    S    
C10   H1    S    
S5    O23   S    
O5    Zn1   S    
C20   C21   A    
C8    C10   A    
S3    O15   D    
C14   C15   A    
C2    C28   A    
C21   C22   A    
C28   S5    S    
N1    Zn1   S    
S1    O11   S    
