data_mof_unit_53200.cif
_audit_creation_date              2012-12-10T17:31:07-0500
_audit_creation_method            fapswitch 2.2
_symmetry_space_group_name_H-M    P1
_symmetry_Int_Tables_number       1
_space_group_crystal_system       triclinic
_cell_length_a                    11.972909
_cell_length_b                    12.935636
_cell_length_c                    15.36717
_cell_angle_alpha                 88.103783
_cell_angle_beta                  114.050348
_cell_angle_gamma                 91.377334
_cell_volume                      2172.07343226

loop_
_atom_site_label
_atom_site_type_symbol
_atom_type_description
_atom_site_fract_x
_atom_site_fract_y
_atom_site_fract_z
_atom_type_partial_charge
C1    C     C_R   0.479843 0.299669 0.499748 0.917292
C2    C     C_R   0.668124 0.961875 0.526114 0.198514
C3    C     C_R   0.407716 0.147527 0.559722 -0.233488
C4    C     C_R   0.650678 0.855614 0.523193 -0.258623
C5    C     C_R   0.559666 0.127739 0.493284 0.027853
C6    C     C_R   0.447470 0.875299 0.521722 0.129100
C7    C     C_R   0.572133 0.024292 0.524339 0.077869
C8    C     C_R   0.476831 0.978856 0.544859 0.082147
C9    C     C_R   0.021490 0.623703 0.445039 -0.317079
C10   C     C_R   0.969816 0.370560 0.540943 -0.206219
C11   C     C_R   0.137856 0.608535 0.446054 0.006722
C12   C     C_R   0.521383 0.701035 0.502611 0.892804
C13   C     C_R   0.857202 0.387832 0.546030 0.057020
C14   C     C_R   0.144799 0.439047 0.509925 0.109222
C15   C     C_R   0.850943 0.558079 0.482908 -0.047591
C16   C     C_R   0.575226 0.490854 0.681019 0.898742
C17   C     C_R   0.425460 0.509993 0.319675 0.910252
C18   C     C_R   0.026939 0.450342 0.509573 0.081442
C19   C     C_R   0.966246 0.545153 0.479349 0.065573
C20   C     C_R   0.617103 0.459834 0.783296 -0.152264
C21   C     C_R   0.378053 0.513625 0.215231 -0.151397
C22   C     C_R   0.740073 0.350657 0.921886 0.214779
C23   C     C_R   0.582841 0.343269 0.089472 0.393145
C24   C     C_R   0.211403 0.533712 0.057820 0.224387
C25   C     C_R   0.725440 0.402424 0.834626 0.157016
C26   C     C_R   0.261181 0.552960 0.156664 0.190540
C27   C     C_R   0.533790 0.473036 0.823841 -0.189176
C28   C     C_R   0.449850 0.470214 0.174438 -0.202831
C29   C     C_R   0.542836 0.418905 0.906316 0.071357
C30   C     C_R   0.404302 0.451000 0.077557 0.074916
C31   C     C_R   0.651757 0.365091 0.960432 0.047987
C32   C     C_R   0.286020 0.487292 0.018139 0.036387
C33   C     C_R   0.448492 0.423987 0.939483 -0.088969
C34   C     C_R   0.324486 0.445903 0.879920 0.429231
C35   C     C_R   0.478839 0.405252 0.037346 -0.074461
C36   C     C_3   0.195560 0.623506 0.197045 -0.880266
C37   C     C_3   0.824226 0.397239 0.796777 -0.830117
C38   C     C_3   0.843311 0.274080 0.968521 -0.895412
C39   C     C_3   0.080082 0.562016 0.994706 -0.932810
C40   C     C_3   0.314349 0.841699 0.482886 -0.863742
C41   C     C_3   0.608680 0.164577 0.420675 -0.636387
C42   C     C_3   0.336877 0.000704 0.633063 -0.876202
C43   C     C_3   0.792701 0.004175 0.540142 -0.904688
C44   C     C_R   0.668589 0.326562 0.051488 -0.291052
C45   C     C_R   0.245862 0.477775 0.919744 -0.292417
C46   C     C_R   0.538139 0.812294 0.514149 -0.123592
C47   C     C_R   0.477948 0.189335 0.513345 -0.119674
C48   C     C_R   0.405709 0.041721 0.575717 0.185217
H1    H     H_    0.749721 0.284631 0.095969 0.186185
H2    H     H_    0.353960 0.197106 0.583045 0.197378
H3    H     H_    0.801900 0.629653 0.457121 0.127829
H4    H     H_    0.193384 0.367235 0.535212 0.148956
H5    H     H_    0.123462 0.579486 0.210891 0.247121
H6    H     H_    0.259081 0.660654 0.263302 0.233278
H7    H     H_    0.154265 0.689571 0.147048 0.241435
H8    H     H_    0.846855 0.476353 0.778204 0.246884
H9    H     H_    0.912301 0.366751 0.849064 0.240000
H10   H     H_    0.792777 0.347665 0.733404 0.250148
H11   H     H_    0.862124 0.232064 0.914272 0.253653
H12   H     H_    0.153434 0.497602 0.871862 0.187295
H13   H     H_    0.927261 0.314968 0.016741 0.247026
H14   H     H_    0.819255 0.210486 0.007955 0.246376
H15   H     H_    0.026140 0.585508 0.034416 0.256071
H16   H     H_    0.078450 0.625775 0.944044 0.242241
H17   H     H_    0.031325 0.493385 0.954702 0.244649
H18   H     H_    0.770763 0.323474 0.283693 0.344521
H19   H     H_    0.164345 0.562499 0.705121 0.348616
H20   H     H_    0.289673 0.806416 0.412519 0.232094
H21   H     H_    0.297876 0.787575 0.534080 0.258746
H22   H     H_    0.250693 0.907362 0.467080 0.242297
H23   H     H_    0.815304 0.326194 0.571820 0.123392
H24   H     H_    0.544518 0.219898 0.368881 0.285441
H25   H     H_    0.699086 0.202972 0.455791 0.235935
H26   H     H_    0.615830 0.099737 0.377734 0.256655
H27   H     H_    0.357786 0.918466 0.655251 0.250946
H28   H     H_    0.364347 0.045166 0.699383 0.261611
H29   H     H_    0.236947 0.009582 0.591242 0.240561
H30   H     H_    0.803002 0.005637 0.471528 0.251709
H31   H     H_    0.808434 0.082589 0.570318 0.245513
H32   H     H_    0.865202 0.954409 0.592188 0.242303
H33   H     H_    0.177291 0.667762 0.416468 0.134583
H34   H     H_    0.975384 0.696331 0.417743 0.151228
H35   H     H_    0.012935 0.295935 0.563186 0.170627
H36   H     H_    0.543965 0.453996 0.219135 0.225197
H37   H     H_    0.459161 0.525713 0.788973 0.215926
H38   H     H_    0.723856 0.807341 0.523914 0.178936
N1    N     N_R   0.799120 0.480200 0.517090 -0.099287
N2    N     N_R   0.200880 0.519800 0.482910 -0.094698
O1    O     O_R   0.580150 0.341050 0.504560 -0.620561
O2    O     O_2   0.643820 0.158731 0.180500 -0.295066
O3    O     O_3   0.692094 0.315940 0.290376 -0.593270
O4    O     O_2   0.327855 0.343731 0.729553 -0.300801
O5    O     O_2   0.131751 0.364962 0.740069 -0.343313
O6    O     O_3   0.230559 0.527680 0.694784 -0.585899
O7    O     O_R   0.419850 0.658950 0.495440 -0.625428
O8    O     O_R   0.388090 0.353760 0.493600 -0.628399
O9    O     O_R   0.611910 0.646240 0.506400 -0.638294
O10   O     O_R   0.650890 0.490020 0.640860 -0.622337
O11   O     O_R   0.349110 0.509980 0.359140 -0.613666
O12   O     O_R   0.458830 0.502730 0.629890 -0.552134
O13   O     O_R   0.541170 0.497270 0.370110 -0.594613
O14   O     O_2   0.471485 0.246234 0.190739 -0.289985
S1    S     S_3+6 0.595027 0.262368 0.188509 -0.020954
S2    S     S_3+6 0.253055 0.415921 0.758299 -0.029889
Zn1   Zn    Zn3+2 0.628240 0.491510 0.507320 0.959018
Zn2   Zn    Zn3+2 0.371760 0.508490 0.492680 0.985156

loop_
_geom_bond_atom_site_label_1
_geom_bond_atom_site_label_2
_ccdc_geom_bond_type
C44   H1    S    
C21   C26   A    
C45   H12   S    
C28   H36   S    
C32   C45   A    
C14   C18   A    
C2    C7    A    
C40   H21   S    
C24   C32   A    
C7    C8    A    
C4    C46   A    
C11   H33   S    
C43   H30   S    
C15   C19   A    
C39   H16   S    
C5    C47   A    
C42   H27   S    
O10   Zn1   S    
C40   H22   S    
C30   C35   A    
C24   C26   A    
C27   C29   A    
C20   C25   A    
C43   H31   S    
C22   C38   S    
C29   C33   A    
C3    C48   A    
C24   C39   S    
N2    Zn2   S    
C18   C19   A    
C27   H37   S    
C17   O13   A    
O8    Zn2   S    
C36   H5    S    
C25   C37   S    
C41   H26   S    
C37   H8    S    
C9    C19   A    
C23   S1    S    
C22   C25   A    
H19   O6    S    
C12   O7    A    
C15   H3    S    
C2    C43   S    
C37   H10   S    
C9    H34   S    
C38   H13   S    
O9    Zn1   S    
O6    S2    S    
C39   H17   S    
O5    S2    D    
C3    H2    S    
O13   Zn1   S    
C14   H4    S    
C22   C31   A    
C12   C46   S    
C31   C44   A    
C5    C7    A    
O4    S2    D    
C16   O12   A    
C6    C8    A    
C13   H23   S    
C43   H32   S    
C34   S2    S    
C10   H35   S    
C2    C4    A    
C8    C48   A    
O7    Zn2   S    
C17   O11   A    
N1    Zn1   S    
C11   N2    A    
C16   C20   S    
C13   N1    A    
C33   C34   A    
C34   C45   A    
C42   C48   S    
C9    C11   A    
C12   O9    A    
C41   H24   S    
C26   C36   S    
C21   C28   A    
C23   C35   A    
C6    C40   S    
C15   N1    A    
O11   Zn2   S    
C5    C41   S    
C1    O1    A    
C6    C46   A    
O12   Zn2   S    
C1    C47   S    
O3    S1    S    
C10   C13   A    
H18   O3    S    
C20   C27   A    
C39   H15   S    
C42   H28   S    
C28   C30   A    
C14   N2    A    
C29   C31   A    
C36   H7    S    
C30   C32   A    
C16   O10   A    
C10   C18   A    
C1    O8    A    
C3    C47   A    
C33   C35   A    
O14   S1    D    
C17   C21   S    
O2    S1    D    
C36   H6    S    
C23   C44   A    
C41   H25   S    
C38   H11   S    
C4    H38   S    
C42   H29   S    
C40   H20   S    
O1    Zn1   S    
C37   H9    S    
C38   H14   S    
