data_mof_unit_58713.cif
_audit_creation_date              2012-12-11T20:26:28-0500
_audit_creation_method            fapswitch 2.2
_symmetry_space_group_name_H-M    P1
_symmetry_Int_Tables_number       1
_space_group_crystal_system       triclinic
_cell_length_a                    8.191396
_cell_length_b                    17.344013
_cell_length_c                    18.74264
_cell_angle_alpha                 102.745564
_cell_angle_beta                  91.362113
_cell_angle_gamma                 98.384099
_cell_volume                      2565.10754131

loop_
_atom_site_label
_atom_site_type_symbol
_atom_type_description
_atom_site_fract_x
_atom_site_fract_y
_atom_site_fract_z
_atom_type_partial_charge
Ba1   Ba    Ba6+2 0.853800 0.535410 0.467450 1.639058
Ba2   Ba    Ba6+2 0.336030 0.464660 0.532560 1.645164
C1    C     C_3   0.678058 0.817277 0.289869 -0.375958
C2    C     C_R   0.912476 0.407358 0.087856 -0.064272
C3    C     C_R   0.758510 0.433279 0.949609 0.126202
C4    C     C_3   0.101993 0.716478 0.283149 0.336002
C5    C     C_R   0.926527 0.462630 0.975189 0.045434
C6    C     C_R   0.706046 0.431087 0.877660 -0.128039
C7    C     C_R   0.811817 0.461003 0.829414 -0.039172
C8    C     C_R   0.972692 0.499704 0.855893 -0.004435
C9    C     C_R   0.029878 0.501605 0.929263 -0.015427
C10   C     C_R   0.758568 0.455936 0.756024 0.008037
C11   C     C_R   0.867063 0.487416 0.709236 -0.262535
C12   C     C_3   0.637271 0.736598 0.309953 0.335474
C13   C     C_R   0.023419 0.530060 0.734725 0.050849
C14   C     C_R   0.075605 0.537630 0.809345 -0.036744
C15   C     C_R   0.151712 0.500713 0.072531 0.006793
C16   C     C_3   0.085539 0.757131 0.218566 0.123306
C17   C     C_R   0.212177 0.501310 0.145099 0.000723
C18   C     C_R   0.113198 0.460633 0.190725 -0.031268
C19   C     C_R   0.967738 0.410750 0.159419 -0.046661
C20   C     C_R   0.225746 0.583592 0.839463 -0.032277
C21   C     C_R   0.281771 0.586127 0.910537 -0.076957
C22   C     C_R   0.189913 0.542957 0.956000 0.018374
C23   C     C_3   0.462498 0.334486 0.305164 0.307849
C24   C     C_R   0.251369 0.542112 0.027651 0.022755
C25   C     C_R   0.412831 0.578952 0.055228 -0.108669
C26   C     C_R   0.372959 0.541047 0.171438 -0.033815
C27   C     C_R   0.472359 0.577427 0.124746 -0.095883
C28   C     C_3   0.242743 0.710814 0.631429 0.292037
C29   C     C_R   0.429910 0.542902 0.243658 -0.009524
C30   C     C_R   0.323159 0.510428 0.290318 -0.292646
C31   C     C_R   0.166211 0.468615 0.265186 0.043684
C32   C     C_2   0.447455 0.717085 0.476624 -0.260186
C33   C     C_3   0.368210 0.764722 0.430965 -0.046759
C34   C     C_3   0.450751 0.309433 0.221953 -0.389277
C35   C     C_2   0.421934 0.853166 0.455591 -0.108813
C36   C     C_2   0.558080 0.882880 0.500889 0.008021
C37   C     C_2   0.643108 0.826928 0.533080 -0.130273
C38   C     C_1   0.580085 0.750039 0.520653 0.065914
C39   C     C_R   0.802643 0.138831 0.536633 -0.134294
C40   C     C_3   0.285916 0.802172 0.653497 -0.120925
C41   C     C_R   0.859900 0.220658 0.548451 -0.014414
C42   C     C_R   0.620218 0.237700 0.477891 0.026920
C43   C     C_R   0.563341 0.155828 0.465608 -0.124165
C44   C     C_R   0.652672 0.106069 0.495654 0.021656
C45   C     C_3   0.013501 0.261663 0.720603 0.363803
C46   C     C_2   0.623342 0.969746 0.520301 -0.070503
C47   C     C_2   0.592989 0.019340 0.477212 -0.072497
C48   C     C_R   0.765731 0.270237 0.521164 -0.272588
C49   C     C_3   0.957990 0.287557 0.368659 0.288608
C50   C     C_3   0.957560 0.196934 0.350053 -0.125642
C51   C     C_3   0.718150 0.659966 0.699567 0.328502
C52   C     C_3   0.683061 0.689225 0.779909 -0.147118
C53   C     C_3   0.083420 0.260252 0.797334 0.135786
C54   C     C_3   0.541402 0.259398 0.677218 0.418200
C55   C     C_3   0.483486 0.174213 0.686647 -0.081921
C56   C     C_R   0.993270 0.457774 0.045331 0.027254
H1    H     H_    0.679840 0.743719 0.368091 0.071391
H2    H     H_    0.810676 0.841855 0.303408 0.140934
H3    H     H_    0.757360 0.749215 0.802447 0.100875
H4    H     H_    0.550209 0.695556 0.783264 0.109765
H5    H     H_    0.501757 0.718516 0.302466 -0.055247
H6    H     H_    0.603443 0.860112 0.321514 0.070449
H7    H     H_    0.340319 0.348133 0.323880 0.015496
H8    H     H_    0.556540 0.389136 0.321589 0.064943
H9    H     H_    0.355043 0.255771 0.203369 0.127407
H10   H     H_    0.416619 0.358740 0.198504 0.061670
H11   H     H_    0.571854 0.295413 0.201749 0.120850
H12   H     H_    0.390218 0.819304 0.695765 0.114178
H13   H     H_    0.649156 0.810929 0.230464 0.119202
H14   H     H_    0.969166 0.319813 0.722699 -0.031690
H15   H     H_    0.138787 0.204495 0.792691 0.101831
H16   H     H_    0.678390 0.271451 0.680935 -0.158258
H17   H     H_    0.541397 0.131366 0.645772 0.059699
H18   H     H_    0.347695 0.158290 0.675719 0.137175
H19   H     H_    0.024335 0.656560 0.270440 0.079296
H20   H     H_    0.578507 0.406546 0.860917 0.112167
H21   H     H_    0.896607 0.371890 0.189029 0.090509
H22   H     H_    0.302591 0.618759 0.808706 0.093376
H23   H     H_    0.326648 0.825196 0.605094 0.072929
H24   H     H_    0.597906 0.605741 0.141058 0.115804
H25   H     H_    0.365893 0.514454 0.346274 0.072716
H26   H     H_    0.809618 0.361362 0.066268 0.103302
H27   H     H_    0.397976 0.624029 0.928355 0.056683
H28   H     H_    0.232265 0.707267 0.288633 -0.106494
H29   H     H_    0.500169 0.607806 0.023722 0.073793
H30   H     H_    0.519420 0.996453 0.426055 0.070120
H31   H     H_    0.754857 0.850238 0.568215 0.084303
H32   H     H_    0.879557 0.100859 0.555605 0.066890
H33   H     H_    0.699461 0.992689 0.570846 0.073880
H34   H     H_    0.834561 0.301007 0.383789 -0.003521
H35   H     H_    0.351449 0.891426 0.433148 0.067419
H36   H     H_    0.451667 0.130647 0.431208 0.072316
H37   H     H_    0.407543 0.652888 0.464105 0.080959
H38   H     H_    0.811811 0.333380 0.528776 0.068478
H39   H     H_    0.955362 0.766168 0.211443 0.135981
H40   H     H_    0.353845 0.685730 0.611446 -0.017595
H41   H     H_    0.144851 0.694150 0.586590 0.085933
H42   H     H_    0.045079 0.821038 0.643162 0.214236
H43   H     H_    0.109726 0.820812 0.729368 0.206639
H44   H     H_    0.837650 0.178626 0.248523 0.215176
H45   H     H_    0.047022 0.313566 0.416261 0.068204
H46   H     H_    0.712093 0.164487 0.316303 0.194851
H47   H     H_    0.669164 0.648245 0.873694 0.180916
H48   H     H_    0.849252 0.643749 0.834493 0.168798
H49   H     H_    0.046751 0.652707 0.139258 0.162622
H50   H     H_    0.247444 0.694076 0.156930 0.179220
H51   H     H_    0.909443 0.211420 0.703614 -0.068808
H52   H     H_    0.261016 0.324820 0.875138 0.174080
H53   H     H_    0.163040 0.381122 0.831262 0.188974
H54   H     H_    0.889300 0.202682 0.842440 0.163620
H55   H     H_    0.871815 0.298294 0.841151 0.162095
H56   H     H_    0.940976 0.173618 0.400384 0.070071
H57   H     H_    0.495096 0.261815 0.621722 0.051350
H58   H     H_    0.468450 0.203285 0.798555 0.212966
H59   H     H_    0.654120 0.181891 0.770215 0.169869
H60   H     H_    0.825851 0.482236 0.652878 0.062405
H61   H     H_    0.581346 0.351612 0.975269 0.166441
H62   H     H_    0.541461 0.446246 0.996546 0.183247
H63   H     H_    0.312415 0.828729 0.245071 0.171409
H64   H     H_    0.150808 0.873222 0.277421 0.184806
H65   H     H_    0.079081 0.184088 0.329350 0.126138
H66   H     H_    0.849179 0.651307 0.695319 -0.010000
H67   H     H_    0.635539 0.602546 0.676771 0.064336
N1    N     N_3   0.144879 0.839751 0.681964 -0.481881
N2    N     N_3   0.826175 0.154887 0.295153 -0.490300
N3    N     N_3   0.721430 0.633297 0.823118 -0.525097
N4    N     N_3   0.127983 0.706896 0.150219 -0.483458
N5    N     N_3   0.213989 0.328391 0.823785 -0.417956
N6    N     N_3   0.954702 0.260583 0.850279 -0.526201
N7    N     N_3   0.526878 0.164877 0.759936 -0.493667
N8    N     N_3   0.634389 0.411081 0.997053 -0.513202
N9    N     N_3   0.191036 0.835280 0.232067 -0.467433
O1    O     O_2   0.871520 0.445720 0.321500 -0.460137
O2    O     O_2   0.194408 0.223525 0.533166 -0.490415
O3    O     O_3   0.138940 0.251114 0.671386 -0.580959
O4    O     O_3   0.121030 0.451930 0.411150 -0.492927
O5    O     O_3   0.581210 0.598010 0.542960 -0.492071
O6    O     O_2   0.335820 0.303580 0.452320 -0.462396
O7    O     O_3   0.507606 0.271840 0.333902 -0.647759
O8    O     O_2   0.417600 0.462289 0.754230 -0.459699
O9    O     O_3   0.477630 0.315337 0.731091 -0.574871
O10   O     O_3   0.662190 0.593100 0.375060 -0.478451
O11   O     O_2   0.767398 0.532113 0.244787 -0.483356
O12   O     O_3   0.689643 0.719987 0.663936 -0.662807
O13   O     O_3   0.001969 0.318065 0.307397 -0.651143
O14   O     O_3   0.716890 0.679840 0.264526 -0.613895
O15   O     O_2   0.853880 0.696450 0.547730 -0.466586
O16   O     O_3   0.085100 0.636210 0.413950 -0.478124
O17   O     O_2   0.059285 0.782632 0.490774 -0.486619
O18   O     O_3   0.049779 0.763558 0.347389 -0.602385
O19   O     O_2   0.318180 0.554310 0.678550 -0.465463
O20   O     O_3   0.068680 0.548140 0.588860 -0.493339
O21   O     O_3   0.527520 0.406960 0.624950 -0.478210
O22   O     O_3   0.190658 0.681822 0.692456 -0.654319
O23   O     O_3   0.608500 0.402060 0.457050 -0.479465
O24   O     O_3   0.104610 0.363860 0.586060 -0.463036
P1    P     P_3+3 0.038810 0.422920 0.331160 0.973607
P2    P     P_3+3 0.678260 0.686080 0.568600 0.966957
P3    P     P_3+3 0.139691 0.738474 0.423023 0.958375
P4    P     P_3+3 0.150900 0.577150 0.668860 0.973907
P5    P     P_3+3 0.071510 0.262419 0.585594 0.958508
P6    P     P_3+3 0.643330 0.585717 0.280922 0.941088
P7    P     P_3+3 0.518934 0.301240 0.429695 0.941009
P8    P     P_3+3 0.546236 0.411436 0.718070 0.987852

loop_
_geom_bond_atom_site_label_1
_geom_bond_atom_site_label_2
_ccdc_geom_bond_type
Ba2   O21   S    
H62   N8    S    
C12   O14   S    
C25   C27   A    
C13   P4    S    
C17   C18   A    
H49   N4    S    
O13   P1    S    
Ba2   P4    S    
C11   H60   S    
C34   H9    S    
C43   C44   A    
C42   C43   A    
C3    N8    S    
C12   H1    S    
C44   C47   S    
C24   C25   A    
C33   P3    S    
C32   C38   D    
Ba2   O5    S    
C55   H18   S    
C26   C27   A    
C33   C35   S    
C22   C24   A    
C32   C33   S    
C10   P8    S    
C36   C37   S    
C50   H65   S    
O12   P2    S    
O21   P8    S    
C49   H45   S    
C13   C14   A    
H48   N3    S    
C9    C22   A    
C40   H12   S    
C54   C55   S    
Ba1   Ba2   S    
O16   P3    S    
H59   N7    S    
H64   N9    S    
C55   N7    S    
C54   O9    S    
O4    P1    S    
C6    C7    A    
O17   P3    D    
C46   H33   S    
H58   N7    S    
C39   C44   A    
Ba1   O15   S    
C16   H39   S    
H63   N9    S    
C7    C8    A    
C5    C56   A    
C36   C46   S    
O18   P3    S    
Ba1   O5    S    
Ba2   O24   S    
C15   C56   A    
C4    O18   S    
C1    H2    S    
C28   O22   S    
C39   H32   S    
O22   P4    S    
Ba2   O20   S    
O10   P6    S    
C6    H20   S    
C39   C41   A    
C47   H30   S    
C45   O3    S    
C40   H23   S    
C43   H36   S    
O15   P2    D    
C50   N2    S    
O20   P4    S    
C5    C9    A    
C3    C5    A    
C26   C29   A    
C4    C16   S    
C54   H16   S    
C49   C50   S    
Ba2   O4    S    
Ba1   P1    S    
O1    P1    D    
C32   H37   S    
H44   N2    S    
O23   P7    S    
C37   C38   D    
O3    P5    S    
C4    H19   S    
C52   H4    S    
C45   H51   S    
C52   N3    S    
C28   H41   S    
O14   P6    S    
C1    H13   S    
O9    P8    S    
C35   C36   D    
C49   H34   S    
O8    P8    D    
H53   N5    S    
C29   C30   A    
C2    H26   S    
C49   O13   S    
C21   C22   A    
C53   N5    S    
C19   H21   S    
H43   N1    S    
C35   H35   S    
Ba1   O16   S    
H61   N8    S    
C10   C11   A    
C25   H29   S    
C17   C26   A    
H50   N4    S    
C1    C12   S    
C51   H67   S    
O24   P5    S    
C18   C31   A    
C46   C47   D    
C52   H3    S    
O5    P2    S    
Ba2   O19   S    
C53   N6    S    
C11   C13   A    
H42   N1    S    
C15   C24   A    
C34   H11   S    
C45   C53   S    
C42   C48   A    
O6    P7    D    
C30   H25   S    
C29   P6    S    
C14   C20   A    
H55   N6    S    
H47   N3    S    
C38   P2    S    
Ba1   P2    S    
C23   O7    S    
C23   H8    S    
C51   H66   S    
C3    C6    A    
C34   H10   S    
C41   C48   A    
C51   C52   S    
O11   P6    D    
C50   H56   S    
C28   H40   S    
O7    P7    S    
C4    H28   S    
O19   P4    D    
Ba2   O6    S    
C30   C31   A    
C55   H17   S    
Ba1   O23   S    
C20   H22   S    
C27   H24   S    
Ba1   O10   S    
C8    C14   A    
C2    C19   A    
C48   H38   S    
H46   N2    S    
Ba2   O23   S    
C12   H5    S    
C51   O12   S    
C15   C17   A    
C54   H57   S    
H52   N5    S    
C16   N9    S    
C42   P7    S    
H54   N6    S    
C1    H6    S    
Ba1   O20   S    
C7    C10   A    
C45   H14   S    
C8    C9    A    
C40   N1    S    
C23   C34   S    
C53   H15   S    
C18   C19   A    
C21   H27   S    
C2    C56   A    
C23   H7    S    
C20   C21   A    
C28   C40   S    
C16   N4    S    
Ba1   O1    S    
C37   H31   S    
Ba1   O4    S    
C31   P1    S    
O2    P5    D    
C41   P5    S    
