data_mof_unit_42105.cif
_audit_creation_date              2012-12-10T19:34:58-0500
_audit_creation_method            fapswitch 2.2
_symmetry_space_group_name_H-M    P1
_symmetry_Int_Tables_number       1
_space_group_crystal_system       triclinic
_cell_length_a                    10.702565
_cell_length_b                    15.762466
_cell_length_c                    17.114919
_cell_angle_alpha                 96.44153
_cell_angle_beta                  90.009173
_cell_angle_gamma                 93.071635
_cell_volume                      2864.86156619

loop_
_atom_site_label
_atom_site_type_symbol
_atom_type_description
_atom_site_fract_x
_atom_site_fract_y
_atom_site_fract_z
_atom_type_partial_charge
C1    C     C_R   0.498854 0.489508 0.348471 0.831934
C2    C     C_R   0.500553 0.510491 0.651529 0.831553
C3    C     C_R   0.497165 0.483545 0.262433 -0.041355
C4    C     C_R   0.498713 0.516445 0.737555 -0.041894
C5    C     C_R   0.500000 0.558062 0.224979 -0.187369
C6    C     C_R   0.494477 0.441936 0.775040 -0.185030
C7    C     C_R   0.497405 0.552903 0.143588 -0.166234
C8    C     C_R   0.491609 0.447056 0.856412 -0.164973
C9    C     C_R   0.491670 0.472570 0.097557 0.330761
C10   C     C_R   0.492765 0.527339 0.902398 0.329902
C11   C     C_R   0.488104 0.397173 0.135053 -0.009873
C12   C     C_R   0.495843 0.602697 0.864853 -0.009511
C13   C     C_R   0.491532 0.403443 0.217299 -0.268363
C14   C     C_R   0.499586 0.596490 0.782630 -0.267763
C15   C     C_R   0.447309 0.748376 0.455991 0.050822
C16   C     C_R   0.552688 0.251623 0.544008 0.050565
C17   C     C_R   0.442861 0.837480 0.458571 0.144323
C18   C     C_R   0.557146 0.162520 0.541424 0.144231
C19   C     C_R   0.510116 0.890807 0.518559 0.338141
C20   C     C_R   0.489912 0.109192 0.481430 0.336940
C21   C     C_R   0.578128 0.851142 0.573097 -0.351826
C22   C     C_R   0.421903 0.148858 0.426893 -0.352189
C23   C     C_R   0.262243 0.500684 0.511629 0.849348
C24   C     C_R   0.737758 0.499316 0.488373 0.849295
C25   C     C_R   0.580764 0.761822 0.567258 0.034113
C26   C     C_R   0.419249 0.238177 0.432739 0.033457
C27   C     C_R   0.091218 0.347740 0.546637 0.244800
C28   C     C_R   0.908785 0.652275 0.453407 0.244440
C29   C     C_R   0.027928 0.268363 0.521593 0.006455
C30   C     C_R   0.972072 0.731647 0.478476 0.005517
C31   C     C_R   0.926086 0.265425 0.470235 -0.235589
C32   C     C_R   0.073913 0.734570 0.529832 -0.235774
C33   C     C_R   0.877905 0.340758 0.451450 -0.149822
C34   C     C_R   0.122098 0.659231 0.548593 -0.148796
C35   C     C_R   0.934204 0.420918 0.480910 0.036833
C36   C     C_R   0.065800 0.579079 0.519115 0.036163
C37   C     C_R   0.052414 0.423439 0.517400 0.004337
C38   C     C_R   0.947590 0.576564 0.482624 0.003829
C39   C     C_R   0.874867 0.498282 0.475413 -0.166556
C40   C     C_R   0.125138 0.501717 0.524601 -0.166058
Cu1   Cu    Cu3+1 0.493970 0.415220 0.496180 0.967662
Cu2   Cu    Cu3+1 0.506030 0.584780 0.503820 0.967849
H1    H     H_    0.120900 0.795231 0.551662 0.156126
H2    H     H_    0.879097 0.204759 0.448421 0.155414
H3    H     H_    0.629246 0.889606 0.620260 0.178114
H4    H     H_    0.370794 0.110393 0.379728 0.179585
H5    H     H_    0.633599 0.732244 0.609743 0.134862
H6    H     H_    0.366407 0.267756 0.390260 0.137277
H7    H     H_    0.796737 0.335834 0.413139 0.164386
H8    H     H_    0.203270 0.664143 0.586900 0.165981
H9    H     H_    0.493519 0.379374 0.741516 0.188807
H10   H     H_    0.504285 0.620662 0.258544 0.189117
H11   H     H_    0.489008 0.387825 0.883014 0.170820
H12   H     H_    0.500421 0.612155 0.117007 0.171165
H13   H     H_    0.488127 0.345475 0.246018 0.158956
H14   H     H_    0.501363 0.654400 0.753861 0.159683
H15   H     H_    0.606409 0.292437 0.588294 0.163891
H16   H     H_    0.393578 0.707562 0.411709 0.163251
N1    N     N_2   0.492202 0.465232 0.014122 -0.261004
N2    N     N_2   0.493663 0.534746 0.985842 -0.261763
N3    N     N_R   0.515100 0.712130 0.509560 -0.178819
N4    N     N_R   0.484900 0.287870 0.490440 -0.179279
N5    N     N_2   0.506595 0.982209 0.530433 -0.170918
N6    N     N_2   0.493437 0.017790 0.469554 -0.170964
O1    O     O_R   0.494360 0.420530 0.382500 -0.606180
O2    O     O_R   0.505640 0.579470 0.617500 -0.605971
O3    O     O_R   0.504550 0.563720 0.388950 -0.563122
O4    O     O_R   0.495450 0.436280 0.611050 -0.563034
O5    O     O_R   0.314560 0.428400 0.496770 -0.546692
O6    O     O_R   0.685440 0.571600 0.503230 -0.546885
O7    O     O_R   0.324750 0.571590 0.503220 -0.598362
O8    O     O_R   0.675250 0.428410 0.496780 -0.598151
Br1   Br    Br    0.663251 0.121566 0.617979 -0.592745
Br2   Br    Br    0.336738 0.878432 0.382019 -0.596080
Br3   Br    Br    0.210071 0.354027 0.632579 -0.547024
Br4   Br    Br    0.789918 0.646019 0.367471 -0.543265
C41   C     C_R   0.064782 0.187478 0.548537 0.135491
C42   C     C_R   0.039965 0.169794 0.625823 -0.048752
C43   C     C_R   0.070819 0.091649 0.650052 -0.122645
C44   C     C_R   0.125567 0.030573 0.597190 -0.109064
C45   C     C_R   0.148883 0.047433 0.519965 -0.090992
C46   C     C_R   0.118053 0.125380 0.495458 -0.159745
H17   H     H_    0.996046 0.216208 0.666965 0.160185
H18   H     H_    0.051676 0.078273 0.709673 0.136802
H19   H     H_    0.148937 0.969939 0.615820 0.129193
H20   H     H_    0.189634 0.999793 0.478879 0.191293
H21   H     H_    0.135279 0.137299 0.435188 0.129551
C47   C     C_R   0.935240 0.812547 0.451553 0.135513
C48   C     C_R   0.882086 0.874674 0.504683 -0.159936
C49   C     C_R   0.851363 0.952662 0.480215 -0.090952
C50   C     C_R   0.874676 0.969533 0.402977 -0.109392
C51   C     C_R   0.929304 0.908424 0.350063 -0.120482
C52   C     C_R   0.960044 0.830237 0.374256 -0.048009
H22   H     H_    0.864878 0.862750 0.564966 0.128709
H23   H     H_    0.810717 0.000328 0.521343 0.191132
H24   H     H_    0.851397 0.030199 0.384377 0.128350
H25   H     H_    0.948450 0.921810 0.290434 0.137638
H26   H     H_    0.003882 0.783802 0.333078 0.159591
C53   C     C_R   0.481017 0.311130 0.089406 0.118529
C54   C     C_R   0.387994 0.289034 0.031512 -0.133279
C55   C     C_R   0.381379 0.207686 0.989192 -0.133720
C56   C     C_R   0.466756 0.147528 0.004588 -0.101765
C57   C     C_R   0.558853 0.168588 0.062408 -0.131956
C58   C     C_R   0.566007 0.249915 0.104781 -0.147739
H27   H     H_    0.319888 0.334409 0.019612 0.140285
H28   H     H_    0.309679 0.191173 0.944654 0.138298
H29   H     H_    0.461365 0.084535 0.971873 0.126287
H30   H     H_    0.624802 0.121881 0.074377 0.128470
H31   H     H_    0.638359 0.265353 0.149134 0.128940
C59   C     C_R   0.495409 0.688642 0.910414 0.121109
C60   C     C_R   0.403600 0.707432 0.967660 -0.132010
C61   C     C_R   0.403080 0.788740 0.009784 -0.134109
C62   C     C_R   0.493418 0.852124 0.994841 -0.103882
C63   C     C_R   0.584419 0.834324 0.937688 -0.131199
C64   C     C_R   0.585473 0.753063 0.895509 -0.150313
H32   H     H_    0.331705 0.659499 0.979169 0.140009
H33   H     H_    0.332245 0.802713 0.053800 0.141635
H34   H     H_    0.492716 0.915085 0.027386 0.125148
H35   H     H_    0.654229 0.883516 0.926067 0.130659
H36   H     H_    0.657007 0.740213 0.851650 0.125650

loop_
_geom_bond_atom_site_label_1
_geom_bond_atom_site_label_2
_ccdc_geom_bond_type
C14   H14   S    
C55   C56   A    
C27   C29   A    
Cu1   Cu2   S    
C23   O5    A    
C2    C4    S    
C60   C61   A    
C12   C59   S    
C63   C64   A    
C24   O6    A    
C49   H23   S    
C41   C42   A    
C54   H27   S    
C35   C37   A    
C37   C40   A    
C2    O4    A    
C43   H18   S    
C33   H7    S    
C46   H21   S    
Cu2   O6    S    
C24   C39   S    
C11   C53   S    
C48   H22   S    
C59   C60   A    
C54   C55   A    
C33   C35   A    
C50   H24   S    
C42   H17   S    
C19   N5    S    
C1    O1    A    
C31   C33   A    
C5    H10   S    
C60   H32   S    
C6    H9    S    
C25   H5    S    
C18   C20   A    
C45   H20   S    
C3    C13   A    
C26   H6    S    
C53   C58   A    
N1    N2    D    
C16   N4    A    
Cu1   N4    S    
C27   Br3   S    
C61   C62   A    
C51   H25   S    
C45   C46   A    
Cu1   O4    S    
C21   H3    S    
C38   C39   A    
C34   H8    S    
C31   H2    S    
C23   O7    A    
C36   C40   A    
C43   C44   A    
C4    C6    A    
C50   C51   A    
C5    C7    A    
C42   C43   A    
Cu1   O1    S    
C3    C5    A    
N5    N6    D    
C9    N1    S    
C32   C34   A    
C20   N6    S    
C10   N2    S    
C44   H19   S    
C53   C54   A    
C28   C38   A    
C15   N3    A    
C56   H29   S    
C25   N3    A    
C9    C11   A    
Cu2   N3    S    
C57   H30   S    
C10   C12   A    
Cu1   O8    S    
C16   C18   A    
C22   H4    S    
C12   C14   A    
C18   Br1   S    
Cu2   O3    S    
C15   H16   S    
C30   C47   S    
C28   Br4   S    
C24   O8    A    
Cu1   O5    S    
C62   C63   A    
C55   H28   S    
C15   C17   A    
C21   C25   A    
C47   C52   A    
C19   C21   A    
C17   Br2   S    
C63   H35   S    
C20   C22   A    
C44   C45   A    
C2    O2    A    
C8    H11   S    
C6    C8    A    
C1    O3    A    
C36   C38   A    
C26   N4    A    
C29   C31   A    
C30   C32   A    
C11   C13   A    
C49   C50   A    
C61   H33   S    
C41   C46   A    
C27   C37   A    
C35   C39   A    
C52   H26   S    
C28   C30   A    
C51   C52   A    
C17   C19   A    
C32   H1    S    
C34   C36   A    
C16   H15   S    
C4    C14   A    
C56   C57   A    
C62   H34   S    
C7    C9    A    
C29   C41   S    
C47   C48   A    
C8    C10   A    
C64   H36   S    
C22   C26   A    
C57   C58   A    
Cu2   O2    S    
C58   H31   S    
C7    H12   S    
C1    C3    S    
C48   C49   A    
C59   C64   A    
C23   C40   S    
Cu2   O7    S    
C13   H13   S    
