data_mof_unit_47048.cif
_audit_creation_date              2012-12-10T18:44:29-0500
_audit_creation_method            fapswitch 2.2
_symmetry_space_group_name_H-M    P1
_symmetry_Int_Tables_number       1
_space_group_crystal_system       triclinic
_cell_length_a                    12.921467
_cell_length_b                    10.669295
_cell_length_c                    9.868304
_cell_angle_alpha                 88.855596
_cell_angle_beta                  97.342631
_cell_angle_gamma                 90.931243
_cell_volume                      1348.91913802

loop_
_atom_site_label
_atom_site_type_symbol
_atom_type_description
_atom_site_fract_x
_atom_site_fract_y
_atom_site_fract_z
_atom_type_partial_charge
C1    C     C_R   0.501443 0.260246 0.501458 0.898998
C2    C     C_R   0.701945 0.496682 0.527577 0.883348
C3    C     C_R   0.814488 0.488914 0.545683 -0.110729
C4    C     C_R   0.185084 0.499171 0.453750 -0.113122
C5    C     C_R   0.017069 0.523621 0.318103 -0.257069
C6    C     C_R   0.981924 0.455901 0.680305 -0.256669
C7    C     C_R   0.124817 0.521772 0.325398 -0.003384
C8    C     C_R   0.874039 0.460225 0.672954 -0.008493
C9    C     C_R   0.136424 0.476089 0.570495 -0.285736
C10   C     C_R   0.863329 0.508277 0.428696 -0.285780
C11   C     C_R   0.029589 0.478094 0.562752 0.166732
C12   C     C_R   0.499318 0.739765 0.498826 0.903584
C13   C     C_R   0.969856 0.503097 0.436089 0.164845
C14   C     C_R   0.440083 0.067474 0.396982 -0.307351
C15   C     C_R   0.561818 0.932589 0.602915 -0.299755
C16   C     C_R   0.437088 0.938561 0.394097 0.209584
C17   C     C_R   0.562374 0.061515 0.608021 0.207234
C18   C     C_1   0.828086 0.430866 0.796050 0.195368
C19   C     C_1   0.169398 0.546656 0.200356 0.175492
C20   C     C_3   0.267923 0.844781 0.332363 -0.744585
C21   C     C_3   0.589493 0.121923 0.844097 -0.724203
C22   C     C_3   0.738647 0.690638 0.116494 -0.880169
C23   C     C_R   0.499195 0.872182 0.497438 -0.082028
C24   C     C_3   0.269406 0.288344 0.897155 -0.902557
C25   C     C_R   0.501407 0.127828 0.503503 -0.084093
C26   C     C_R   0.571079 0.572319 0.081808 0.284746
C27   C     C_R   0.427188 0.429444 0.918514 0.286588
C28   C     C_R   0.570662 0.570764 0.937238 -0.137228
C29   C     C_R   0.429241 0.429594 0.063290 -0.124193
C30   C     C_R   0.297921 0.500099 0.472395 0.869903
H1    H     H_    0.818550 0.527761 0.330426 0.197463
H2    H     H_    0.227848 0.930754 0.358656 0.227849
H3    H     H_    0.276837 0.779303 0.421871 0.235294
H4    H     H_    0.218565 0.798735 0.246894 0.243442
H5    H     H_    0.704754 0.095455 0.720996 0.218713
H6    H     H_    0.590400 0.024848 0.887243 0.217537
H7    H     H_    0.508669 0.157843 0.834057 0.248709
H8    H     H_    0.639869 0.182714 0.915852 0.244389
H9    H     H_    0.604610 0.725547 0.204529 0.251314
H10   H     H_    0.790754 0.733754 0.201697 0.250881
H11   H     H_    0.724534 0.761737 0.032663 0.234891
H12   H     H_    0.181512 0.457505 0.668882 0.201240
H13   H     H_    0.778612 0.608142 0.081443 0.259791
H14   H     H_    0.373153 0.314346 0.755211 0.272436
H15   H     H_    0.213514 0.245585 0.815527 0.251107
H16   H     H_    0.224580 0.351120 0.955658 0.267458
H17   H     H_    0.305703 0.211832 0.964109 0.242314
H18   H     H_    0.970003 0.542335 0.220755 0.145732
H19   H     H_    0.028671 0.434797 0.777276 0.149883
H20   H     H_    0.392053 0.120544 0.318423 0.156566
H21   H     H_    0.610372 0.879586 0.680970 0.158103
H22   H     H_    0.625103 0.627660 0.887514 0.161431
H23   H     H_    0.374475 0.374232 0.114025 0.163788
H24   H     H_    0.361748 0.922944 0.197681 0.221331
N1    N     N_R   0.499970 0.499970 0.857200 -0.131474
N2    N     N_R   0.500030 0.500030 0.142800 -0.129130
N3    N     N_1   0.791606 0.406920 0.894745 -0.224419
N4    N     N_1   0.204526 0.567236 0.099933 -0.217279
N5    N     N_2   0.368686 0.876722 0.291199 -0.291953
N6    N     N_2   0.628313 0.124132 0.712853 -0.293208
N7    N     N_2   0.641251 0.652706 0.164336 -0.267524
N8    N     N_2   0.348646 0.359006 0.835772 -0.289945
O1    O     O_R   0.499990 0.316750 0.614620 -0.624561
O2    O     O_R   0.500010 0.683250 0.385380 -0.611667
O3    O     O_R   0.499990 0.316780 0.385290 -0.628953
O4    O     O_R   0.500010 0.683220 0.614710 -0.625447
O5    O     O_R   0.346360 0.499970 0.595710 -0.619943
O6    O     O_R   0.653640 0.500030 0.404290 -0.601380
O7    O     O_R   0.346360 0.499990 0.366380 -0.610483
O8    O     O_R   0.653640 0.500010 0.633620 -0.615052
Zn1   Zn    Zn3+2 0.500000 0.499980 0.653120 0.955404
Zn2   Zn    Zn3+2 0.500000 0.500020 0.346880 0.966071

loop_
_geom_bond_atom_site_label_1
_geom_bond_atom_site_label_2
_ccdc_geom_bond_type
O7    Zn2   S    
C24   N8    S    
C5    C7    A    
O4    Zn1   S    
N1    Zn1   S    
O8    Zn1   S    
C27   N8    S    
C15   H21   S    
C27   C29   A    
O3    Zn2   S    
C28   H22   S    
O5    Zn1   S    
C5    C13   A    
C30   O5    A    
O6    Zn2   S    
C20   H4    S    
C24   H17   S    
C15   C23   A    
C2    C3    S    
C17   C25   A    
C14   C25   A    
C3    C10   A    
C22   N7    S    
C1    C25   S    
C9    C11   A    
C12   C23   S    
C9    H12   S    
C14   H20   S    
C29   H23   S    
C4    C7    A    
H9    N7    S    
C20   H3    S    
C1    O1    A    
C26   C28   A    
C29   N2    A    
C26   N7    S    
O1    Zn1   S    
C16   N5    S    
C16   C23   A    
C14   C16   A    
H24   N5    S    
O2    Zn2   S    
C19   N4    T    
C12   O2    A    
C5    H18   S    
C27   N1    A    
C1    O3    A    
C22   H11   S    
C8    C18   S    
C24   H15   S    
C17   N6    S    
H5    N6    S    
C11   C13   A    
C30   O7    A    
C21   H7    S    
C21   N6    S    
C15   C17   A    
C3    C8    A    
C20   H2    S    
C6    C11   A    
C21   H6    S    
C22   H10   S    
C21   H8    S    
C7    C19   S    
C6    C8    A    
C18   N3    T    
H14   N8    S    
C4    C9    A    
C2    O8    A    
C2    O6    A    
C12   O4    A    
C10   H1    S    
C28   N1    A    
C4    C30   S    
C6    H19   S    
C22   H13   S    
C20   N5    S    
C24   H16   S    
N2    Zn2   S    
C10   C13   A    
C26   N2    A    
