data_mof_unit_16431.cif
_audit_creation_date              2012-12-10T18:57:12-0500
_audit_creation_method            fapswitch 2.2
_symmetry_space_group_name_H-M    P1
_symmetry_Int_Tables_number       1
_space_group_crystal_system       triclinic
_cell_length_a                    8.738086
_cell_length_b                    10.856189
_cell_length_c                    9.599654
_cell_angle_alpha                 90.030163
_cell_angle_beta                  96.368784
_cell_angle_gamma                 90.209862
_cell_volume                      905.018868236

loop_
_atom_site_label
_atom_site_type_symbol
_atom_type_description
_atom_site_fract_x
_atom_site_fract_y
_atom_site_fract_z
_atom_type_partial_charge
C1    C     C_R   0.500113 0.262889 0.499828 0.804616
C2    C     C_R   0.507050 0.935370 0.371938 -0.171609
C3    C     C_R   0.501541 0.869863 0.498387 -0.095572
C4    C     C_R   0.496932 0.938116 0.620030 0.123433
C5    C     C_3   0.487205 0.929527 0.773725 -0.450923
C6    C     C_3   0.486698 0.071386 0.773436 -0.454957
C7    C     C_R   0.584470 0.584711 0.081016 0.210987
C8    C     C_R   0.409251 0.421170 0.065084 -0.026676
C9    C     C_R   0.410407 0.420317 0.916688 -0.048598
C10   C     C_R   0.576503 0.589970 0.933259 0.183277
C11   C     C_3   0.742304 0.619255 0.934648 -0.495872
C12   C     C_R   0.205063 0.502875 0.465807 0.882395
C13   C     C_3   0.756769 0.593765 0.089868 0.203506
C14   C     C_R   0.500350 0.737132 0.499901 0.815712
C15   C     C_R   0.795656 0.499102 0.535483 0.905366
C16   C     C_2   0.041636 0.513944 0.450320 -0.300326
C17   C     C_2   0.960787 0.492649 0.556570 -0.367009
C18   C     C_R   0.496576 0.062144 0.619870 0.127292
C19   C     C_R   0.501241 0.130198 0.498207 -0.100669
C20   C     C_R   0.507084 0.064570 0.371864 -0.191599
Cu1   Cu    Cu3+1 0.499990 0.499980 0.640670 0.957057
Cu2   Cu    Cu3+1 0.500010 0.500020 0.359330 0.994505
H1    H     H_    0.987683 0.543575 0.350908 0.219985
H2    H     H_    0.340194 0.353926 0.854256 0.131582
H3    H     H_    0.808550 0.554069 0.876771 0.239480
H4    H     H_    0.760457 0.717159 0.907064 0.187058
H5    H     H_    0.015977 0.468364 0.660015 0.175276
H6    H     H_    0.511256 0.112243 0.273259 0.177349
H7    H     H_    0.510943 0.887606 0.273327 0.185999
H8    H     H_    0.376769 0.888047 0.798074 0.207268
H9    H     H_    0.592775 0.889542 0.831087 0.204182
H10   H     H_    0.375821 0.111695 0.797400 0.194905
H11   H     H_    0.591922 0.113102 0.830535 0.217046
H12   H     H_    0.337536 0.355824 0.113143 0.147876
N1    N     N_R   0.500980 0.500930 0.148050 -0.187085
N2    N     N_R   0.500990 0.500890 0.852140 -0.175822
O1    O     O_R   0.500000 0.319640 0.618810 -0.586478
O2    O     O_R   0.500020 0.319680 0.381230 -0.584133
O3    O     O_R   0.274830 0.499980 0.591380 -0.587443
O4    O     O_R   0.274850 0.500020 0.353800 -0.571047
O5    O     O_R   0.499980 0.680320 0.618770 -0.584046
O6    O     O_R   0.500000 0.680360 0.381190 -0.576578
O7    O     O_R   0.725150 0.499980 0.646200 -0.598564
O8    O     O_R   0.725170 0.500020 0.408620 -0.541408
I1    I     I_    0.865326 0.414694 0.122821 -0.385097
I2    I     I_    0.848851 0.749632 0.209636 -0.414638

loop_
_geom_bond_atom_site_label_1
_geom_bond_atom_site_label_2
_ccdc_geom_bond_type
C12   O4    A    
C7    C10   A    
C6    H10   S    
C9    H2    S    
C9    N2    A    
C19   C20   A    
Cu1   O3    S    
C6    H11   S    
C1    O1    A    
C14   O6    A    
Cu2   O4    S    
C12   O3    A    
C2    C3    A    
C8    C9    A    
C4    C18   A    
Cu1   N2    S    
C8    H12   S    
Cu1   Cu2   S    
C13   I1    S    
Cu2   N1    S    
C11   C13   S    
Cu2   O6    S    
C3    C14   S    
C1    O2    A    
C14   O5    A    
Cu1   O5    S    
C15   O8    A    
C18   C19   A    
C16   H1    S    
C2    H7    S    
C5    C6    S    
C6    C18   S    
C1    C19   S    
C10   C11   S    
C11   H3    S    
C15   O7    A    
C3    C4    A    
C17   H5    S    
C7    C13   S    
Cu1   O1    S    
C5    H8    S    
C15   C17   S    
C2    C20   A    
C13   I2    S    
C4    C5    S    
C10   N2    A    
C20   H6    S    
C11   H4    S    
Cu1   O7    S    
C7    N1    A    
Cu2   O8    S    
C12   C16   S    
C16   C17   D    
C5    H9    S    
C8    N1    A    
Cu2   O2    S    
