data_mof_unit_46647.cif
_audit_creation_date              2012-12-10T17:28:33-0500
_audit_creation_method            fapswitch 2.2
_symmetry_space_group_name_H-M    P1
_symmetry_Int_Tables_number       1
_space_group_crystal_system       triclinic
_cell_length_a                    10.599496
_cell_length_b                    11.906346
_cell_length_c                    12.93348
_cell_angle_alpha                 92.492065
_cell_angle_beta                  89.584092
_cell_angle_gamma                 86.420796
_cell_volume                      1627.41576333

loop_
_atom_site_label
_atom_site_type_symbol
_atom_type_description
_atom_site_fract_x
_atom_site_fract_y
_atom_site_fract_z
_atom_type_partial_charge
C1    C     C_R   0.492586 0.520904 0.700616 0.939717
C2    C     C_R   0.439493 0.557789 0.132869 0.456137
C3    C     C_R   0.479920 0.443066 0.976077 -0.203864
C4    C     C_R   0.452788 0.550644 0.025694 -0.179505
C5    C     C_R   0.362596 0.957693 0.422994 0.509525
C6    C     C_R   0.636939 0.042362 0.577691 0.512197
C7    C     C_R   0.378080 0.840550 0.428637 -0.087308
C8    C     C_R   0.620924 0.159565 0.572823 -0.084934
C9    C     C_R   0.562588 0.856036 0.529668 -0.043214
C10   C     C_R   0.438102 0.143920 0.469526 -0.065016
C11   C     C_R   0.550846 0.974333 0.527111 -0.120730
C12   C     C_R   0.495406 0.478564 0.299893 0.918646
C13   C     C_R   0.449458 0.025682 0.472603 -0.115598
C14   C     C_R   0.738422 0.497979 0.480181 0.899328
C15   C     C_R   0.258875 0.501124 0.512944 0.861283
C16   C     C_R   0.900581 0.288236 0.437161 -0.159168
C17   C     C_R   0.091913 0.711167 0.539163 -0.157018
C18   C     C_R   0.963143 0.188165 0.466021 -0.093434
C19   C     C_R   0.028955 0.809815 0.507057 -0.096703
C20   C     C_R   0.070684 0.191964 0.526556 -0.091315
C21   C     C_R   0.922271 0.803568 0.445740 -0.109007
C22   C     C_R   0.120634 0.295227 0.551412 -0.168623
C23   C     C_R   0.482519 0.465420 0.189755 -0.261112
C24   C     C_R   0.873373 0.699368 0.423383 -0.164130
C25   C     C_R   0.064163 0.396986 0.514848 0.091115
C26   C     C_R   0.931714 0.599548 0.461873 0.086481
C27   C     C_R   0.945742 0.393852 0.468415 0.083938
C28   C     C_R   0.049684 0.603992 0.508779 0.078238
C29   C     C_R   0.121611 0.501487 0.523312 -0.253449
C30   C     C_R   0.873606 0.496150 0.457813 -0.261604
C31   C     C_3   0.254132 0.637884 0.201700 0.118632
C32   C     C_3   0.175383 0.747331 0.187189 -0.755058
C33   C     C_3   0.345452 0.297050 0.816709 0.185953
C34   C     C_R   0.475191 0.530899 0.811565 -0.257222
C35   C     C_3   0.341316 0.177047 0.772087 -0.804306
C36   C     C_3   0.529761 0.805066 0.031567 0.120898
C37   C     C_3   0.502791 0.915095 0.094413 -0.738925
C38   C     C_3   0.671841 0.225700 0.974867 0.111778
C39   C     C_3   0.701092 0.120193 0.906116 -0.731402
C40   C     C_R   0.440707 0.648145 0.967050 0.529879
C41   C     C_R   0.511531 0.347960 0.034643 0.518671
C42   C     C_R   0.455731 0.637397 0.860491 -0.393873
C43   C     C_R   0.515264 0.360883 0.141049 -0.383248
C44   C     C_R   0.475062 0.432950 0.868824 0.438952
F1    F     F_    0.263058 0.003850 0.370688 -0.704461
F2    F     F_    0.735778 0.996221 0.630839 -0.698689
H1    H     H_    0.875351 0.879631 0.417885 0.143868
H2    H     H_    0.450304 0.712726 0.816206 0.201954
H3    H     H_    0.362280 0.185456 0.427132 0.204885
H4    H     H_    0.638841 0.814465 0.571565 0.201367
H5    H     H_    0.687342 0.212333 0.611218 0.176828
H6    H     H_    0.310194 0.787770 0.392732 0.171055
H7    H     H_    0.243316 0.613382 0.283045 0.155062
H8    H     H_    0.213915 0.571611 0.150080 0.106538
H9    H     H_    0.174923 0.767443 0.104165 0.270101
H10   H     H_    0.076591 0.738375 0.213278 0.192739
H11   H     H_    0.214765 0.817922 0.232545 0.282606
H12   H     H_    0.116496 0.114847 0.553244 0.150624
H13   H     H_    0.288378 0.354356 0.766849 0.097883
H14   H     H_    0.301796 0.300304 0.895549 0.136601
H15   H     H_    0.397270 0.118152 0.820882 0.275633
H16   H     H_    0.241989 0.152485 0.769649 0.193089
H17   H     H_    0.380819 0.170813 0.692371 0.248191
H18   H     H_    0.576000 0.824004 0.957271 0.126641
H19   H     H_    0.595894 0.749995 0.076718 0.138037
H20   H     H_    0.455910 0.898645 0.168890 0.279885
H21   H     H_    0.592678 0.955206 0.111069 0.188721
H22   H     H_    0.440164 0.973692 0.050380 0.263100
H23   H     H_    0.816562 0.282737 0.390528 0.146604
H24   H     H_    0.718746 0.214240 0.050747 0.119917
H25   H     H_    0.711792 0.297848 0.936332 0.140685
H26   H     H_    0.663695 0.045979 0.942178 0.236825
H27   H     H_    0.656953 0.130399 0.829171 0.288311
H28   H     H_    0.804934 0.105505 0.895392 0.205387
H29   H     H_    0.172549 0.719749 0.589050 0.157164
H30   H     H_    0.926159 0.107960 0.443885 0.144732
H31   H     H_    0.064095 0.890945 0.528542 0.152111
H32   H     H_    0.201870 0.294413 0.601236 0.154973
H33   H     H_    0.790004 0.697225 0.375639 0.152574
H34   H     H_    0.544437 0.288608 0.185247 0.200155
N1    N     N_R   0.523130 0.207800 0.519340 -0.146566
N2    N     N_R   0.476870 0.792200 0.480660 -0.142573
O1    O     O_R   0.506170 0.421700 0.658830 -0.566226
O2    O     O_3   0.472353 0.327165 0.820007 -0.555666
O3    O     O_3   0.414718 0.754348 0.012790 -0.571731
O4    O     O_3   0.539628 0.242044 0.988885 -0.578677
O5    O     O_R   0.493830 0.578300 0.341170 -0.585075
O6    O     O_R   0.491330 0.609310 0.646410 -0.627568
O7    O     O_R   0.508670 0.390690 0.353590 -0.632243
O8    O     O_R   0.690650 0.406190 0.506220 -0.621692
O9    O     O_R   0.309350 0.593810 0.493780 -0.635707
O10   O     O_R   0.675800 0.593810 0.493800 -0.619323
O11   O     O_R   0.324200 0.406190 0.506200 -0.625579
O12   O     O_3   0.383170 0.654435 0.181501 -0.560867
Zn1   Zn    Zn3+2 0.509910 0.374730 0.508290 0.944339
Zn2   Zn    Zn3+2 0.490090 0.625270 0.491710 0.941853

loop_
_geom_bond_atom_site_label_1
_geom_bond_atom_site_label_2
_ccdc_geom_bond_type
O6    Zn2   S    
C34   C42   A    
C38   H24   S    
O8    Zn1   S    
C41   O4    S    
C12   C23   S    
C38   O4    S    
C36   C37   S    
C19   C21   A    
C24   C26   A    
C7    H6    S    
C38   C39   S    
N1    Zn1   S    
C37   H22   S    
O10   Zn2   S    
C23   C43   A    
C39   H28   S    
C19   H31   S    
C14   O8    A    
C33   C35   S    
O9    Zn2   S    
C3    C41   A    
C4    C40   A    
C22   C25   A    
C39   H26   S    
C32   H9    S    
C5    C13   A    
C9    N2    A    
C1    O6    A    
C40   C42   A    
C33   H13   S    
O5    Zn2   S    
C27   C30   A    
C41   C43   A    
C32   H11   S    
C14   C30   S    
C1    C34   S    
C15   C29   S    
C25   C29   A    
C3    C44   A    
N2    Zn2   S    
C9    H4    S    
C8    N1    A    
C12   O7    A    
C2    O12   S    
C34   C44   A    
C22   H32   S    
C6    C11   A    
C5    C7    A    
C36   H19   S    
C6    C8    A    
C43   H34   S    
C5    F1    S    
C40   O3    S    
O7    Zn1   S    
C2    C4    A    
C24   H33   S    
C31   C32   S    
O1    Zn1   S    
C37   H20   S    
C35   H15   S    
C42   H2    S    
C31   H7    S    
C9    C11   A    
C8    H5    S    
C14   O10   A    
C20   C22   A    
C26   C30   A    
C33   H14   S    
C1    O1    A    
C20   H12   S    
C3    C4    A    
C38   H25   S    
C28   C29   A    
C18   H30   S    
C6    F2    S    
C12   O5    A    
C17   C28   A    
C16   H23   S    
C44   O2    S    
C10   C13   A    
C15   O11   A    
C36   O3    S    
C25   C27   A    
C31   O12   S    
C10   N1    A    
C26   C28   A    
C11   C13   A    
O11   Zn1   S    
C16   C27   A    
C37   H21   S    
C17   C19   A    
C35   H16   S    
C18   C20   A    
C39   H27   S    
C31   H8    S    
C33   O2    S    
C15   O9    A    
C7    N2    A    
C16   C18   A    
C21   C24   A    
C2    C23   A    
C17   H29   S    
C35   H17   S    
C36   H18   S    
C10   H3    S    
C32   H10   S    
C21   H1    S    
