data_mof_unit_11056.cif
_audit_creation_date              2012-12-11T20:26:36-0500
_audit_creation_method            fapswitch 2.2
_symmetry_space_group_name_H-M    P1
_symmetry_Int_Tables_number       1
_space_group_crystal_system       triclinic
_cell_length_a                    8.213688
_cell_length_b                    17.341045
_cell_length_c                    18.757399
_cell_angle_alpha                 102.894008
_cell_angle_beta                  91.210301
_cell_angle_gamma                 98.570559
_cell_volume                      2571.13882051

loop_
_atom_site_label
_atom_site_type_symbol
_atom_type_description
_atom_site_fract_x
_atom_site_fract_y
_atom_site_fract_z
_atom_type_partial_charge
Ba1   Ba    Ba6+2 0.853800 0.535410 0.467450 1.686423
Ba2   Ba    Ba6+2 0.336030 0.464660 0.532560 1.649986
C1    C     C_3   0.652002 0.774051 0.202102 -0.325960
C2    C     C_R   0.905924 0.410779 0.089131 -0.077738
C3    C     C_R   0.783471 0.409788 0.940671 -0.034356
C4    C     C_3   0.140629 0.696015 0.288764 0.368026
C5    C     C_R   0.941622 0.449668 0.969729 0.047713
C6    C     C_R   0.725244 0.411111 0.871035 -0.071817
C7    C     C_R   0.822029 0.451040 0.825882 -0.039049
C8    C     C_R   0.980936 0.492302 0.852999 -0.000757
C9    C     C_R   0.040871 0.491904 0.925275 0.048843
C10   C     C_R   0.764996 0.450419 0.754132 -0.011705
C11   C     C_R   0.871724 0.483704 0.707909 -0.290306
C12   C     C_3   0.609332 0.725408 0.259654 0.346332
C13   C     C_R   0.026707 0.527455 0.733746 0.045122
C14   C     C_R   0.078957 0.534954 0.808344 -0.037251
C15   C     C_R   0.162203 0.490561 0.068232 0.034316
C16   C     C_3   0.146887 0.718041 0.214698 -0.342872
C17   C     C_R   0.219197 0.493397 0.141662 0.014064
C18   C     C_R   0.114797 0.458004 0.189217 -0.050000
C19   C     C_R   0.962665 0.413589 0.160093 -0.030379
C20   C     C_R   0.222957 0.585611 0.840778 -0.018954
C21   C     C_R   0.278379 0.587115 0.911952 -0.099922
C22   C     C_R   0.199141 0.534192 0.952480 0.006981
C23   C     C_3   0.387012 0.285115 0.297145 0.344369
C24   C     C_R   0.267399 0.526764 0.021263 -0.044758
C25   C     C_R   0.437735 0.551559 0.044651 -0.049305
C26   C     C_R   0.381497 0.530322 0.167154 -0.048757
C27   C     C_R   0.489397 0.556128 0.117421 -0.085633
C28   C     C_3   0.261112 0.716599 0.646206 0.304416
C29   C     C_R   0.433719 0.537360 0.241130 0.005897
C30   C     C_R   0.324659 0.507651 0.288514 -0.270744
C31   C     C_R   0.166881 0.466941 0.263979 0.005278
C32   C     C_2   0.432432 0.724237 0.489920 -0.264955
C33   C     C_3   0.302985 0.778941 0.498419 -0.047287
C34   C     C_3   0.282208 0.203474 0.267164 -0.422654
C35   C     C_2   0.379451 0.863899 0.499818 -0.108116
C36   C     C_2   0.543060 0.887534 0.517381 0.014470
C37   C     C_2   0.645425 0.827765 0.532183 -0.069695
C38   C     C_1   0.577375 0.752179 0.525179 0.072222
C39   C     C_R   0.799221 0.138675 0.534513 -0.107647
C40   C     C_3   0.325416 0.803928 0.682294 -0.375466
C41   C     C_R   0.859719 0.220091 0.544455 0.009466
C42   C     C_R   0.616357 0.238784 0.479777 0.029013
C43   C     C_R   0.553860 0.157439 0.470087 -0.110657
C44   C     C_R   0.642635 0.106919 0.498947 0.056487
C45   C     C_3   0.067691 0.306738 0.722783 0.290191
C46   C     C_2   0.622906 0.971588 0.526124 0.003677
C47   C     C_2   0.569626 0.021423 0.488451 -0.016275
C48   C     C_R   0.764839 0.270576 0.520175 -0.280254
C49   C     C_3   0.943045 0.288227 0.367371 0.316581
C50   C     C_3   0.872743 0.199503 0.341027 -0.391540
C51   C     C_3   0.726950 0.647993 0.692041 0.299764
C52   C     C_3   0.735422 0.671909 0.775336 -0.375266
C53   C     C_2   0.606006 0.780814 0.333267 0.533626
C54   C     C_2   0.437300 0.322300 0.234216 0.500344
C55   C     C_2   0.944256 0.216328 0.800425 0.478859
C56   C     C_3   0.076335 0.284971 0.797156 -0.226273
C57   C     C_2   0.569528 0.561393 0.992751 0.452734
C58   C     C_3   0.532063 0.259272 0.687068 0.337197
C59   C     C_3   0.480994 0.180330 0.709798 0.174994
C60   C     C_R   0.000971 0.450557 0.042134 0.023254
H1    H     H_    0.407683 0.807482 0.731082 0.137358
H2    H     H_    0.628964 0.595184 0.674065 0.073304
H3    H     H_    0.776701 0.810462 0.214886 0.139144
H4    H     H_    0.836570 0.722949 0.795256 0.130359
H5    H     H_    0.758936 0.620903 0.798581 0.068978
H6    H     H_    0.616637 0.689729 0.794701 0.119528
H7    H     H_    0.484589 0.691116 0.243198 -0.135736
H8    H     H_    0.560327 0.814669 0.199943 0.057931
H9    H     H_    0.313199 0.326094 0.331482 -0.020627
H10   H     H_    0.244275 0.175630 0.313293 0.110093
H11   H     H_    0.171242 0.209591 0.235330 0.099536
H12   H     H_    0.396952 0.833880 0.644073 0.064351
H13   H     H_    0.354513 0.163232 0.230682 0.120956
H14   H     H_    0.650559 0.733061 0.147289 0.135723
H15   H     H_    0.262989 0.758797 0.211831 0.103633
H16   H     H_    0.155397 0.362734 0.725408 0.102705
H17   H     H_    0.941207 0.317828 0.711352 -0.065633
H18   H     H_    0.198642 0.268108 0.807061 0.089752
H19   H     H_    0.062532 0.337820 0.841001 0.073223
H20   H     H_    0.668717 0.272836 0.690892 -0.078213
H21   H     H_    0.485600 0.252484 0.629564 0.081031
H22   H     H_    0.344595 0.164545 0.704673 0.121522
H23   H     H_    0.220625 0.836171 0.699656 0.121482
H24   H     H_    0.020037 0.658027 0.290108 0.117393
H25   H     H_    0.521307 0.186700 0.768169 0.088710
H26   H     H_    0.829154 0.479948 0.652088 0.069373
H27   H     H_    0.602502 0.379926 0.853519 0.105071
H28   H     H_    0.884344 0.380207 0.191753 0.161805
H29   H     H_    0.293694 0.625605 0.812116 0.093977
H30   H     H_    0.618232 0.576624 0.133943 0.138853
H31   H     H_    0.365636 0.513689 0.344968 0.072367
H32   H     H_    0.698749 0.377170 0.970429 0.067517
H33   H     H_    0.785579 0.376274 0.073181 0.088247
H34   H     H_    0.847064 0.320605 0.394591 0.032992
H35   H     H_    0.382927 0.631918 0.935153 0.066854
H36   H     H_    0.240694 0.661109 0.294586 -0.071294
H37   H     H_    0.464810 0.999292 0.449197 0.058952
H38   H     H_    0.775047 0.846932 0.549223 0.088282
H39   H     H_    0.877078 0.101146 0.552882 0.064234
H40   H     H_    0.728842 0.991517 0.564683 0.064001
H41   H     H_    0.299056 0.906464 0.493360 0.080468
H42   H     H_    0.437752 0.133395 0.438918 0.067842
H43   H     H_    0.404358 0.662520 0.458972 0.064642
H44   H     H_    0.812812 0.333556 0.527254 0.065237
H45   H     H_    0.048327 0.294712 0.407169 0.056100
H46   H     H_    0.140435 0.663023 0.170394 0.086710
H47   H     H_    0.040912 0.748576 0.206278 0.144947
H48   H     H_    0.366458 0.686765 0.625880 0.020789
H49   H     H_    0.170772 0.713107 0.600414 0.031025
H50   H     H_    0.490939 0.783390 0.360030 -0.073398
H51   H     H_    0.343315 0.333479 0.197942 -0.094960
H52   H     H_    0.942391 0.158567 0.762992 0.012153
H53   H     H_    0.666271 0.125616 0.681062 0.296486
H54   H     H_    0.547837 0.532501 0.935131 0.008974
H55   H     H_    0.758128 0.191657 0.306189 0.161118
H56   H     H_    0.846246 0.171924 0.388090 0.054484
H57   H     H_    0.961288 0.166542 0.308252 0.116406
H58   H     H_    0.846935 0.632261 0.673563 0.012576
O1    O     O_2   0.871520 0.445720 0.321500 -0.410913
O2    O     O_2   0.196727 0.221784 0.533449 -0.478190
O3    O     O_3   0.111877 0.244303 0.668814 -0.616123
O4    O     O_3   0.121030 0.451930 0.411150 -0.498619
O5    O     O_3   0.581210 0.598010 0.542960 -0.493607
O6    O     O_2   0.335820 0.303580 0.452320 -0.476893
O7    O     O_3   0.528185 0.273403 0.334693 -0.626823
O8    O     O_2   0.434592 0.470495 0.756121 -0.493767
O9    O     O_3   0.463090 0.319528 0.733851 -0.632719
O10   O     O_3   0.662190 0.593100 0.375060 -0.466218
O11   O     O_2   0.766186 0.528623 0.246495 -0.465840
O12   O     O_3   0.692747 0.712919 0.664555 -0.638837
O13   O     O_3   0.995181 0.318081 0.306928 -0.640929
O14   O     O_3   0.729861 0.675992 0.261644 -0.602167
O15   O     O_2   0.853880 0.696450 0.547730 -0.474318
O16   O     O_3   0.085100 0.636210 0.413950 -0.502601
O17   O     O_2   0.968429 0.772231 0.453806 -0.428119
O18   O     O_2   0.731306 0.824212 0.362715 -0.553647
O19   O     O_2   0.582328 0.340370 0.223167 -0.564473
O20   O     O_2   0.838844 0.224769 0.845182 -0.591372
O21   O     O_3   0.548199 0.118534 0.664662 -0.747338
O22   O     O_2   0.704859 0.600747 0.013837 -0.588962
O23   O     O_3   0.160295 0.766186 0.344799 -0.593280
O24   O     O_2   0.318180 0.554310 0.678550 -0.472327
O25   O     O_3   0.068680 0.548140 0.588860 -0.491821
O26   O     O_3   0.527520 0.406960 0.624950 -0.474930
O27   O     O_3   0.182476 0.681420 0.698611 -0.642628
O28   O     O_3   0.608500 0.402060 0.457050 -0.457118
O29   O     O_3   0.104610 0.363860 0.586060 -0.485739
P1    P     P_3+3 0.038810 0.422920 0.331160 0.991282
P2    P     P_3+3 0.678260 0.686080 0.568600 0.978551
P3    P     P_3+3 0.128651 0.739890 0.429048 1.000776
P4    P     P_3+3 0.150900 0.577150 0.668860 0.972621
P5    P     P_3+3 0.069238 0.261446 0.582507 0.958042
P6    P     P_3+3 0.644067 0.584069 0.280361 0.973093
P7    P     P_3+3 0.519085 0.301374 0.430349 0.961317
P8    P     P_3+3 0.549015 0.412491 0.718416 0.931012

loop_
_geom_bond_atom_site_label_1
_geom_bond_atom_site_label_2
_ccdc_geom_bond_type
H53   O21   S    
C53   H50   S    
C25   C27   A    
Ba2   O24   S    
Ba1   O25   S    
C17   C18   A    
C23   C54   S    
C45   H17   S    
O9    P8    S    
C3    H32   S    
C55   C56   S    
C51   H58   S    
C28   O27   S    
O26   P8    S    
C43   C44   A    
Ba2   O25   S    
C5    C9    A    
C44   C47   S    
C24   C25   A    
C53   O18   D    
C28   H48   S    
C32   C38   D    
C15   C24   A    
C4    H36   S    
C26   C27   A    
C33   C35   S    
Ba1   O5    S    
C32   C33   S    
C31   P1    S    
C36   C37   S    
C58   H21   S    
C52   H6    S    
Ba2   O28   S    
C13   C14   A    
C2    C60   A    
C9    C22   A    
O1    P1    D    
Ba1   Ba2   S    
C54   H51   S    
O24   P4    D    
O5    P2    S    
C15   C17   A    
O7    P7    S    
C58   H20   S    
C29   C30   A    
C57   O22   D    
C57   H54   S    
C20   H29   S    
C16   H47   S    
O17   P3    D    
Ba1   P2    S    
O10   P6    S    
C23   H9    S    
C10   P8    S    
C41   P5    S    
C59   H25   S    
C7    C8    A    
C36   C46   S    
C56   H18   S    
C49   H34   S    
O25   P4    S    
C50   H55   S    
Ba2   O29   S    
C12   C53   S    
C39   C41   A    
C1    H3    S    
O16   P3    S    
O8    P8    D    
Ba1   O1    S    
C19   H28   S    
C4    C16   S    
C40   H12   S    
C49   C50   S    
C42   P7    S    
C1    H8    S    
Ba1   O10   S    
C8    C9    A    
C56   H19   S    
C40   H23   S    
C37   C38   D    
C3    C5    A    
C54   O19   D    
C6    C7    A    
C52   H5    S    
C12   O14   S    
C51   C52   S    
C38   P2    S    
C58   C59   S    
C34   H13   S    
O29   P5    S    
C50   H57   S    
C5    C60   A    
C35   C36   D    
C1    H14   S    
C43   H42   S    
C15   C60   A    
C47   H37   S    
C2    H33   S    
C45   O3    S    
O14   P6    S    
C39   C44   A    
C46   H40   S    
Ba1   P1    S    
C51   O12   S    
C10   C11   A    
C17   C26   A    
C1    C12   S    
C18   C31   A    
Ba2   O6    S    
C59   O21   S    
C46   C47   D    
C21   H35   S    
O2    P5    D    
Ba2   P4    S    
C11   C13   A    
C12   H7    S    
C33   P3    S    
Ba1   O16   S    
C42   C43   A    
C35   H41   S    
C42   C48   A    
O4    P1    S    
O23   P3    S    
C14   C20   A    
C23   C34   S    
C32   H43   S    
C26   C29   A    
O13   P1    S    
C22   C24   A    
C59   H22   S    
C58   O9    S    
C3    C6    A    
C29   P6    S    
C41   C48   A    
C55   H52   S    
C52   H4    S    
Ba2   O4    S    
Ba2   O26   S    
C4    H24   S    
C28   H49   S    
C30   C31   A    
O11   P6    D    
C23   O7    S    
Ba1   O4    S    
C25   C57   S    
C45   C56   S    
C2    C19   A    
C49   O13   S    
C37   H38   S    
C16   H15   S    
O15   P2    D    
C11   H26   S    
C51   H2    S    
C39   H39   S    
C30   H31   S    
O27   P4    S    
C7    C10   A    
C16   H46   S    
C13   P4    S    
C34   H11   S    
C21   C22   A    
Ba2   O5    S    
C18   C19   A    
C55   O20   D    
C49   H45   S    
C48   H44   S    
O12   P2    S    
C20   C21   A    
C28   C40   S    
Ba1   O28   S    
C8    C14   A    
C6    H27   S    
O28   P7    S    
C45   H16   S    
C4    O23   S    
Ba1   O15   S    
C40   H1    S    
C27   H30   S    
C34   H10   S    
O6    P7    D    
O3    P5    S    
C50   H56   S    
