data_mof_unit_9720.cif
_audit_creation_date              2013-03-05T15:47:18-0500
_audit_creation_method            fapswitch 2.2
_symmetry_space_group_name_H-M    P1
_symmetry_Int_Tables_number       1
_space_group_crystal_system       triclinic
_cell_length_a                    19.41977
_cell_length_b                    11.470979
_cell_length_c                    18.737224
_cell_angle_alpha                 90.000098
_cell_angle_beta                  90.531002
_cell_angle_gamma                 90.000453
_cell_volume                      4173.79547777

loop_
_atom_site_label
_atom_site_type_symbol
_atom_site_description
_atom_site_fract_x
_atom_site_fract_y
_atom_site_fract_z
_atom_type_partial_charge
O1    O     O_R   0.214130 0.708570 0.829890 -0.540690
O2    O     O_R   0.785870 0.708570 0.170110 -0.540262
O3    O     O_R   0.714130 0.208570 0.829890 -0.540279
O4    O     O_R   0.285870 0.208570 0.170110 -0.540673
O5    O     O_R   0.236050 0.959150 0.825270 -0.517894
O6    O     O_R   0.763950 0.959150 0.174730 -0.517958
O7    O     O_R   0.736050 0.459150 0.825270 -0.517955
O8    O     O_R   0.263950 0.459150 0.174730 -0.517899
C1    C     C_R   0.275668 0.036099 0.857259 0.529662
C2    C     C_R   0.724290 0.036030 0.142699 0.529683
C3    C     C_R   0.775714 0.536021 0.857304 0.529690
C4    C     C_R   0.224337 0.536110 0.142744 0.529653
O9    O     O_R   0.332100 0.076650 0.832310 -0.546152
O10   O     O_R   0.667900 0.076650 0.167690 -0.546268
O11   O     O_R   0.832100 0.576650 0.832310 -0.546274
O12   O     O_R   0.167900 0.576650 0.167690 -0.546143
O13   O     O_R   0.446500 0.918620 0.826240 -0.507012
O14   O     O_R   0.553500 0.918620 0.173760 -0.506915
O15   O     O_R   0.946500 0.418620 0.826240 -0.506913
O16   O     O_R   0.053500 0.418620 0.173760 -0.507013
C5    C     C_R   0.443604 0.817597 0.862023 0.532029
C6    C     C_R   0.556490 0.817615 0.137978 0.532427
C7    C     C_R   0.943507 0.317617 0.862022 0.532437
C8    C     C_R   0.056393 0.317597 0.137978 0.532015
O17   O     O_R   0.457310 0.715830 0.831280 -0.545501
O18   O     O_R   0.542690 0.715830 0.168720 -0.545909
O19   O     O_R   0.957310 0.215830 0.831280 -0.545922
O20   O     O_R   0.042690 0.215830 0.168720 -0.545484
O21   O     O_R   0.321000 0.623520 0.824130 -0.519222
O22   O     O_R   0.679000 0.623520 0.175870 -0.519358
O23   O     O_R   0.821000 0.123520 0.824130 -0.519353
O24   O     O_R   0.179000 0.123520 0.175870 -0.519227
C9    C     C_R   0.261061 0.634770 0.852041 0.531912
C10   C     C_R   0.738937 0.634792 0.147978 0.532189
C11   C     C_R   0.761063 0.134790 0.852021 0.532189
C12   C     C_R   0.238938 0.134774 0.147958 0.531914
O25   O     O_R   0.213990 0.710040 0.667000 -0.533622
O26   O     O_R   0.786010 0.710040 0.333000 -0.533634
O27   O     O_R   0.713990 0.210040 0.667000 -0.533634
O28   O     O_R   0.286010 0.210040 0.333000 -0.533623
O29   O     O_R   0.235920 0.960520 0.674260 -0.510422
O30   O     O_R   0.764080 0.960520 0.325740 -0.510390
O31   O     O_R   0.735920 0.460520 0.674260 -0.510389
O32   O     O_R   0.264080 0.460520 0.325740 -0.510424
C13   C     C_R   0.272979 0.042735 0.645703 0.540614
C14   C     C_R   0.727020 0.042735 0.354297 0.540647
C15   C     C_R   0.772980 0.542735 0.645702 0.540651
C16   C     C_R   0.227020 0.542735 0.354297 0.540610
O33   O     O_R   0.331960 0.078120 0.669410 -0.533964
O34   O     O_R   0.668040 0.078120 0.330590 -0.533967
O35   O     O_R   0.831960 0.578120 0.669410 -0.533967
O36   O     O_R   0.168040 0.578120 0.330590 -0.533964
O37   O     O_R   0.446360 0.919990 0.675230 -0.506491
O38   O     O_R   0.553640 0.919990 0.324770 -0.506476
O39   O     O_R   0.946360 0.419990 0.675230 -0.506476
O40   O     O_R   0.053640 0.419990 0.324770 -0.506490
C17   C     C_R   0.468136 0.822971 0.645400 0.542946
C18   C     C_R   0.531864 0.822971 0.354600 0.542999
C19   C     C_R   0.968136 0.322971 0.645400 0.543001
C20   C     C_R   0.031864 0.322971 0.354600 0.542944
O41   O     O_R   0.457170 0.717300 0.668380 -0.531032
O42   O     O_R   0.542830 0.717300 0.331620 -0.531104
O43   O     O_R   0.957170 0.217300 0.668380 -0.531106
O44   O     O_R   0.042830 0.217300 0.331620 -0.531030
O45   O     O_R   0.320870 0.624890 0.673130 -0.513203
O46   O     O_R   0.679130 0.624890 0.326870 -0.513277
O47   O     O_R   0.820870 0.124890 0.673130 -0.513278
O48   O     O_R   0.179130 0.124890 0.326870 -0.513200
C21   C     C_R   0.260804 0.640595 0.643646 0.539804
C22   C     C_R   0.739196 0.640594 0.356354 0.539787
C23   C     C_R   0.760804 0.140594 0.643646 0.539786
C24   C     C_R   0.239196 0.140594 0.356354 0.539805
Cr1   Cr    Cr6+3 0.229620 0.836040 0.749110 0.984841
Cr2   Cr    Cr6+3 0.770380 0.836040 0.250890 0.984882
Cr3   Cr    Cr6+3 0.729620 0.336040 0.749110 0.984880
Cr4   Cr    Cr6+3 0.270380 0.336040 0.250890 0.984841
Cr5   Cr    Cr6+3 0.387630 0.990680 0.750730 0.986280
Cr6   Cr    Cr6+3 0.612370 0.990680 0.249270 0.986228
Cr7   Cr    Cr6+3 0.887630 0.490680 0.750730 0.986227
Cr8   Cr    Cr6+3 0.112370 0.490680 0.249270 0.986282
Cr9   Cr    Cr6+3 0.386020 0.676590 0.749210 0.967105
Cr10  Cr    Cr6+3 0.613980 0.676590 0.250790 0.966684
Cr11  Cr    Cr6+3 0.886020 0.176590 0.749210 0.966673
Cr12  Cr    Cr6+3 0.113980 0.176590 0.250790 0.967123
O49   O     O_3   0.334430 0.834430 0.749680 -0.283276
O50   O     O_3   0.665570 0.834430 0.250320 -0.283358
O51   O     O_3   0.834430 0.334430 0.749680 -0.283359
O52   O     O_3   0.165570 0.334430 0.250320 -0.283274
C25   C     C_3   0.481714 0.917718 0.036407 -0.108141
C26   C     C_3   0.518637 0.917365 0.963341 -0.108551
C27   C     C_3   0.981351 0.417353 0.036668 -0.108563
C28   C     C_3   0.018274 0.417735 0.963603 -0.108124
C29   C     C_3   0.432102 0.822041 0.009571 -0.167000
C30   C     C_3   0.568090 0.821592 0.990367 -0.167122
C31   C     C_3   0.931905 0.321576 0.009636 -0.167129
C32   C     C_3   0.067892 0.322063 0.990431 -0.166995
H1    H     H_    0.380881 0.813993 0.032369 0.096161
H2    H     H_    0.619257 0.813531 0.967433 0.096201
H3    H     H_    0.880740 0.313513 0.032575 0.096203
H4    H     H_    0.119115 0.314015 0.967638 0.096160
H5    H     H_    0.468200 0.996446 0.067397 0.110137
H6    H     H_    0.532264 0.995441 0.931844 0.109940
H7    H     H_    0.967720 0.495408 0.068183 0.109937
H8    H     H_    0.031783 0.496491 0.932634 0.110145
C33   C     C_3   0.469571 0.822864 0.936921 0.048132
C34   C     C_3   0.530621 0.823052 0.063035 0.048130
C35   C     C_3   0.969373 0.323062 0.936966 0.048127
C36   C     C_3   0.030423 0.322860 0.063081 0.048133
C37   C     C_3   0.518379 0.727902 0.963891 -0.123692
C38   C     C_3   0.481644 0.728225 0.036239 -0.123773
C39   C     C_3   0.018357 0.228240 0.963756 -0.123776
C40   C     C_3   0.981622 0.227892 0.036104 -0.123690
H9    H     H_    0.533579 0.649877 0.932921 0.120368
H10   H     H_    0.466335 0.650531 0.067465 0.120665
H11   H     H_    0.033672 0.150561 0.932520 0.120677
H12   H     H_    0.966427 0.149854 0.067065 0.120356
C41   C     C_3   0.310754 0.528436 0.043596 -0.249488
C42   C     C_3   0.689332 0.528485 0.956492 -0.249438
C43   C     C_3   0.810671 0.028496 0.043508 -0.249440
C44   C     C_3   0.189253 0.028425 0.956404 -0.249493
H13   H     H_    0.328867 0.446078 0.067751 0.135451
H14   H     H_    0.671204 0.446283 0.932253 0.134767
H15   H     H_    0.828799 0.946301 0.067752 0.134744
H16   H     H_    0.171141 0.946061 0.932253 0.135473
H17   H     H_    0.345709 0.597048 0.065058 0.105578
H18   H     H_    0.654347 0.597141 0.935142 0.105662
H19   H     H_    0.845658 0.097157 0.064853 0.105662
H20   H     H_    0.154299 0.097032 0.934934 0.105578
C45   C     C_3   0.316526 0.518450 0.960866 -0.119325
C46   C     C_3   0.683614 0.518285 0.039200 -0.119127
C47   C     C_3   0.816386 0.018283 0.960800 -0.119117
C48   C     C_3   0.183475 0.018455 0.039135 -0.119341
H21   H     H_    0.305815 0.427568 0.947492 0.150423
H22   H     H_    0.694609 0.427487 0.052439 0.150193
H23   H     H_    0.805384 0.927484 0.947569 0.150186
H24   H     H_    0.194179 0.927575 0.052520 0.150431
H25   H     H_    0.697950 0.902303 0.028158 0.086118
H26   H     H_    0.301845 0.902170 0.971607 0.086126
H27   H     H_    0.198160 0.402170 0.028407 0.086117
H28   H     H_    0.802060 0.402302 0.971848 0.086121
H29   H     H_    0.692993 0.938362 0.906123 0.087388
H30   H     H_    0.306626 0.937841 0.093660 0.087464
H31   H     H_    0.193384 0.437820 0.906351 0.087460
H32   H     H_    0.807006 0.438367 0.093882 0.087385
C49   C     C_3   0.184874 0.489773 0.019207 -0.221256
C50   C     C_3   0.815295 0.490005 0.980923 -0.221523
C51   C     C_3   0.684710 0.990003 0.019082 -0.221517
C52   C     C_3   0.315133 0.989775 0.980800 -0.221273
C53   C     C_3   0.218511 0.688809 0.045397 -0.079444
C54   C     C_3   0.781486 0.688850 0.954623 -0.079344
C55   C     C_3   0.718518 0.188856 0.045376 -0.079351
C56   C     C_3   0.281495 0.188803 0.954601 -0.079433
C57   C     C_3   0.235398 0.561281 0.065400 0.050760
C58   C     C_3   0.764681 0.561295 0.934665 0.050540
C59   C     C_3   0.735323 0.061303 0.065337 0.050541
C60   C     C_3   0.264608 0.061273 0.934603 0.050759
H33   H     H_    0.247283 0.746169 0.083304 0.090954
H34   H     H_    0.752618 0.746075 0.916713 0.090791
H35   H     H_    0.747384 0.246087 0.083284 0.090790
H36   H     H_    0.252723 0.246155 0.916691 0.090954
C61   C     C_3   0.255037 0.593476 0.927335 0.059378
C62   C     C_3   0.744989 0.593552 0.072720 0.059648
C63   C     C_3   0.755010 0.093550 0.927280 0.059646
C64   C     C_3   0.244963 0.093482 0.072664 0.059381
C65   C     C_3   0.190101 0.519164 0.938377 -0.245284
C66   C     C_3   0.810047 0.519623 0.061740 -0.245472
C67   C     C_3   0.689953 0.019619 0.938264 -0.245478
C68   C     C_3   0.309902 0.019180 0.061628 -0.245278
C69   C     C_3   0.249230 0.706983 0.971521 -0.189249
C70   C     C_3   0.750758 0.707048 0.028530 -0.188525
C71   C     C_3   0.749245 0.207050 0.971467 -0.188538
C72   C     C_3   0.250773 0.206985 0.028474 -0.189235
H37   H     H_    0.302895 0.730431 0.978978 0.072322
H38   H     H_    0.697079 0.730411 0.021152 0.072141
H39   H     H_    0.802924 0.230410 0.978841 0.072155
H40   H     H_    0.197109 0.230432 0.021009 0.072308
H41   H     H_    0.225546 0.781330 0.944409 0.141460
H42   H     H_    0.774300 0.781448 0.055655 0.140936
H43   H     H_    0.725704 0.281451 0.944344 0.140941
H44   H     H_    0.274454 0.281331 0.055588 0.141437
H45   H     H_    0.631270 0.997043 0.037159 0.136628
H46   H     H_    0.368573 0.996602 0.962742 0.136388
H47   H     H_    0.131434 0.496593 0.037266 0.136385
H48   H     H_    0.868736 0.497056 0.962849 0.136630
H49   H     H_    0.143545 0.564847 0.919069 0.144713
H50   H     H_    0.856369 0.566013 0.081027 0.145886
H51   H     H_    0.643625 0.065997 0.918982 0.145864
H52   H     H_    0.356450 0.064892 0.080933 0.144763
C73   C     C_3   0.503901 0.703432 0.460383 -0.227757
C74   C     C_3   0.496099 0.703432 0.539617 -0.227753
C75   C     C_3   0.003901 0.203432 0.460383 -0.227754
C76   C     C_3   0.996099 0.203432 0.539617 -0.227756
H53   H     H_    0.547282 0.647962 0.446937 0.136281
H54   H     H_    0.452718 0.647961 0.553064 0.136279
H55   H     H_    0.047282 0.147962 0.446937 0.136279
H56   H     H_    0.952718 0.147961 0.553064 0.136281
H57   H     H_    0.459114 0.659129 0.435163 0.115451
H58   H     H_    0.540886 0.659130 0.564837 0.115457
H59   H     H_    0.959114 0.159129 0.435163 0.115458
H60   H     H_    0.040886 0.159130 0.564837 0.115451
H61   H     H_    0.616671 0.893461 0.454895 0.111545
H62   H     H_    0.383330 0.893462 0.545105 0.111541
H63   H     H_    0.116671 0.393461 0.454895 0.111541
H64   H     H_    0.883330 0.393462 0.545105 0.111544
H65   H     H_    0.601094 0.831091 0.576829 0.109118
H66   H     H_    0.398906 0.831090 0.423171 0.109121
H67   H     H_    0.101094 0.331091 0.576829 0.109121
H68   H     H_    0.898906 0.331090 0.423171 0.109118
C77   C     C_3   0.564702 0.903514 0.474131 -0.216390
C78   C     C_3   0.435299 0.903514 0.525869 -0.216390
C79   C     C_3   0.064702 0.403514 0.474131 -0.216390
C80   C     C_3   0.935299 0.403514 0.525869 -0.216389
C81   C     C_3   0.441048 0.886575 0.443975 -0.262045
C82   C     C_3   0.558953 0.886575 0.556025 -0.262046
C83   C     C_3   0.941048 0.386575 0.443975 -0.262045
C84   C     C_3   0.058953 0.386576 0.556025 -0.262045
C85   C     C_3   0.510798 0.829265 0.430885 0.062108
C86   C     C_3   0.489202 0.829265 0.569115 0.062102
C87   C     C_3   0.010798 0.329265 0.430885 0.062101
C88   C     C_3   0.989202 0.329265 0.569115 0.062109
H69   H     H_    0.437778 0.971751 0.415946 0.110494
H70   H     H_    0.562223 0.971751 0.584055 0.110494
H71   H     H_    0.937778 0.471750 0.415946 0.110494
H72   H     H_    0.062222 0.471751 0.584055 0.110493
H73   H     H_    0.448963 0.995357 0.536411 0.118703
H74   H     H_    0.551038 0.995356 0.463590 0.118700
H75   H     H_    0.948963 0.495357 0.536411 0.118699
H76   H     H_    0.051038 0.495357 0.463590 0.118704
C89   C     C_3   0.179676 0.644987 0.458974 -0.227391
C90   C     C_3   0.820325 0.644986 0.541026 -0.227397
C91   C     C_3   0.679676 0.144986 0.458974 -0.227397
C92   C     C_3   0.320325 0.144986 0.541026 -0.227391
H77   H     H_    0.129674 0.607158 0.445996 0.135797
H78   H     H_    0.870327 0.607157 0.554003 0.135794
H79   H     H_    0.629673 0.107158 0.445996 0.135794
H80   H     H_    0.370327 0.107157 0.554004 0.135796
H81   H     H_    0.178562 0.732111 0.432861 0.115236
H82   H     H_    0.821439 0.732111 0.567139 0.115227
H83   H     H_    0.678562 0.232111 0.432862 0.115227
H84   H     H_    0.321439 0.232111 0.567139 0.115237
C93   C     C_3   0.184830 0.660017 0.538055 -0.228793
C94   C     C_3   0.815170 0.660017 0.461945 -0.228787
C95   C     C_3   0.684830 0.160016 0.538055 -0.228787
C96   C     C_3   0.315170 0.160018 0.461945 -0.228793
H85   H     H_    0.180512 0.752933 0.550057 0.134763
H86   H     H_    0.819488 0.752934 0.449943 0.134766
H87   H     H_    0.680512 0.252933 0.550057 0.134767
H88   H     H_    0.319487 0.252934 0.449943 0.134763
H89   H     H_    0.139610 0.619056 0.563935 0.116414
H90   H     H_    0.860390 0.619059 0.436065 0.116416
H91   H     H_    0.639610 0.119056 0.563935 0.116415
H92   H     H_    0.360390 0.119059 0.436065 0.116415
H93   H     H_    0.721924 0.883445 0.454299 0.111073
H94   H     H_    0.278076 0.883445 0.545700 0.111072
H95   H     H_    0.221923 0.383445 0.454299 0.111071
H96   H     H_    0.778076 0.383445 0.545700 0.111073
H97   H     H_    0.697797 0.940843 0.575248 0.109459
H98   H     H_    0.302202 0.940844 0.424752 0.109464
H99   H     H_    0.197797 0.440843 0.575248 0.109465
H100  H     H_    0.802202 0.440844 0.424751 0.109459
C97   C     C_3   0.252721 0.456114 0.473440 -0.215337
C98   C     C_3   0.747279 0.456113 0.526559 -0.215338
C99   C     C_3   0.752721 0.956114 0.473440 -0.215338
C100  C     C_3   0.247279 0.956114 0.526559 -0.215338
C101  C     C_3   0.304653 0.646632 0.443060 -0.264385
C102  C     C_3   0.695348 0.646631 0.556940 -0.264390
C103  C     C_3   0.804652 0.146632 0.443060 -0.264390
C104  C     C_3   0.195348 0.146631 0.556940 -0.264385
C105  C     C_3   0.240813 0.571820 0.430154 0.065954
C106  C     C_3   0.759187 0.571820 0.569846 0.065943
C107  C     C_3   0.740813 0.071820 0.430154 0.065944
C108  C     C_3   0.259187 0.071820 0.569846 0.065953
H101  H     H_    0.349537 0.608483 0.415218 0.109760
H102  H     H_    0.650463 0.608481 0.584782 0.109768
H103  H     H_    0.849537 0.108483 0.415218 0.109768
H104  H     H_    0.150463 0.108481 0.584782 0.109760
H105  H     H_    0.296699 0.735941 0.422064 0.108236
H106  H     H_    0.703302 0.735940 0.577936 0.108233
H107  H     H_    0.796699 0.235941 0.422064 0.108233
H108  H     H_    0.203302 0.235940 0.577936 0.108236
C109  C     C_3   0.252564 0.606305 0.567705 0.065147
C110  C     C_3   0.747435 0.606305 0.432295 0.065166
C111  C     C_3   0.752564 0.106305 0.567705 0.065166
C112  C     C_3   0.247435 0.106305 0.432295 0.065147
C113  C     C_3   0.247117 0.474827 0.554970 -0.263806
C114  C     C_3   0.752882 0.474827 0.445029 -0.263808
C115  C     C_3   0.747117 0.974827 0.554970 -0.263808
C116  C     C_3   0.252882 0.974828 0.445029 -0.263805
C117  C     C_3   0.316923 0.648488 0.524836 -0.216046
C118  C     C_3   0.683077 0.648487 0.475164 -0.216039
C119  C     C_3   0.816923 0.148488 0.524836 -0.216038
C120  C     C_3   0.183077 0.148487 0.475164 -0.216047
H109  H     H_    0.336838 0.731452 0.543481 0.112876
H110  H     H_    0.663162 0.731451 0.456520 0.112887
H111  H     H_    0.836838 0.231452 0.543481 0.112889
H112  H     H_    0.163162 0.231451 0.456520 0.112875
H113  H     H_    0.357435 0.583267 0.535868 0.120160
H114  H     H_    0.642564 0.583266 0.464132 0.120160
H115  H     H_    0.857435 0.083267 0.535868 0.120161
H116  H     H_    0.142564 0.083266 0.464132 0.120159
H117  H     H_    0.306589 0.429804 0.463222 0.118181
H118  H     H_    0.693410 0.429802 0.536778 0.118182
H119  H     H_    0.806589 0.929804 0.463222 0.118182
H120  H     H_    0.193410 0.929802 0.536778 0.118181
H121  H     H_    0.289240 0.427874 0.583433 0.108957
H122  H     H_    0.710759 0.427873 0.416567 0.108943
H123  H     H_    0.789240 0.927874 0.583433 0.108942
H124  H     H_    0.210759 0.927874 0.416567 0.108957
C121  C     C_3   0.138967 0.720995 0.050483 -0.243868
C122  C     C_3   0.095039 0.750895 0.983395 -0.455455
H125  H     H_    0.067631 0.834190 0.990463 0.132007
H126  H     H_    0.121727 0.756347 0.932111 0.167383
H127  H     H_    0.054643 0.683684 0.975829 0.118952
H128  H     H_    0.107167 0.657181 0.078870 0.179022
H129  H     H_    0.136443 0.789125 0.090110 0.129741
C123  C     C_3   0.861005 0.721253 0.949394 -0.244330
C124  C     C_3   0.905316 0.750199 0.016322 -0.453322
H130  H     H_    0.878422 0.762900 0.066976 0.165838
H131  H     H_    0.942612 0.678853 0.026086 0.118785
H132  H     H_    0.936547 0.829092 0.007358 0.131051
H133  H     H_    0.892776 0.657854 0.920632 0.179202
H134  H     H_    0.863301 0.789817 0.910139 0.129921
C125  C     C_3   0.638998 0.221251 0.050602 -0.244309
C126  C     C_3   0.594696 0.250221 0.983669 -0.453376
H135  H     H_    0.621589 0.262719 0.932995 0.165886
H136  H     H_    0.557311 0.178982 0.973967 0.118790
H137  H     H_    0.563569 0.329244 0.992581 0.131073
H138  H     H_    0.607226 0.157840 0.079353 0.179197
H139  H     H_    0.636694 0.289801 0.089868 0.129914
C127  C     C_3   0.361039 0.220995 0.949513 -0.243886
C128  C     C_3   0.404981 0.250856 0.016597 -0.455375
H140  H     H_    0.432541 0.333995 0.009454 0.131960
H141  H     H_    0.378279 0.256584 0.067861 0.167328
H142  H     H_    0.445261 0.183473 0.024246 0.118951
H143  H     H_    0.392838 0.157198 0.921111 0.179029
H144  H     H_    0.363555 0.289146 0.909904 0.129747
C129  C     C_3   0.392044 0.543508 0.939006 -0.254959
C130  C     C_3   0.421592 0.471170 0.876755 -0.390617
H145  H     H_    0.451916 0.396291 0.897069 0.096633
H146  H     H_    0.381178 0.440696 0.838923 0.160711
H147  H     H_    0.460344 0.519597 0.846337 0.178947
H148  H     H_    0.394887 0.636229 0.927723 0.193572
H149  H     H_    0.427274 0.527139 0.984624 0.114575
C131  C     C_3   0.607996 0.542635 0.061113 -0.254865
C132  C     C_3   0.578866 0.470884 0.123871 -0.389677
H150  H     H_    0.548152 0.396084 0.104112 0.095552
H151  H     H_    0.619556 0.440307 0.161356 0.160374
H152  H     H_    0.540552 0.519678 0.154627 0.179722
H153  H     H_    0.604764 0.635480 0.071981 0.193110
H154  H     H_    0.572794 0.525086 0.015585 0.115410
C133  C     C_3   0.892006 0.042611 0.938882 -0.254867
C134  C     C_3   0.921119 0.970876 0.876108 -0.389649
H155  H     H_    0.951846 0.896080 0.895852 0.095523
H156  H     H_    0.880420 0.940293 0.838637 0.160362
H157  H     H_    0.959419 0.019680 0.845340 0.179748
H158  H     H_    0.895249 0.135459 0.928027 0.193103
H159  H     H_    0.927207 0.025025 0.984406 0.115441
C135  C     C_3   0.107959 0.043542 0.060987 -0.254958
C136  C     C_3   0.078388 0.971182 0.123215 -0.390658
H160  H     H_    0.048084 0.896295 0.102877 0.096685
H161  H     H_    0.118787 0.940718 0.161067 0.160731
H162  H     H_    0.039614 0.019594 0.153613 0.178906
H163  H     H_    0.105131 0.136259 0.072287 0.193582
H164  H     H_    0.072730 0.027222 0.015363 0.114544

loop_
_geom_bond_atom_site_label_1
_geom_bond_atom_site_label_2
_geom_bond_distance
_ccdc_geom_bond_type
O4    C12   1.308625 A    
H96   C98   1.084993 S    
C71   H43   1.091507 S    
Cr7   O51   2.068775 S    
C129  C130  1.546199 S    
C102  H106  1.107715 S    
C103  H103  1.109892 S    
C70   H42   1.091494 S    
C93   H85   1.092691 S    
O39   C19   1.316873 A    
C18   C85   1.492160 S    
C31   H3    1.090180 S    
O21   C9    1.286992 A    
H61   C77   1.080966 S    
C53   C57   1.544577 S    
O44   Cr12  2.111828 S    
C47   C133  1.553790 S    
C82   H70   1.110796 S    
C3    C58   1.495617 S    
C3    O11   1.282595 A    
C56   C60   1.544572 S    
C1    C60   1.495156 S    
C126  H135  1.097282 S    
C25   C34   1.523618 S    
C92   H80   1.089012 S    
C24   C112  1.483514 S    
C55   C59   1.544338 S    
C104  C120  1.548631 S    
C51   C59   1.539583 S    
C29   C38   1.524643 S    
O2    C10   1.308394 A    
C32   C36   1.549488 S    
C123  H134  1.078029 S    
C101  C117  1.548632 S    
C46   H22   1.091314 S    
C73   C85   1.551865 S    
C97   C113  1.547481 S    
C54   C123  1.592243 S    
C122  H126  1.097769 S    
C96   C112  1.550796 S    
C99   C115  1.547479 S    
C127  C128  1.551002 S    
O16   Cr8   1.990493 S    
C125  C126  1.550312 S    
C64   C68   1.537662 S    
C93   H89   1.111292 S    
C20   C87   1.492160 S    
C133  H158  1.086241 S    
C113  H121  1.111559 S    
C90   C106  1.554843 S    
C22   C110  1.483512 S    
C117  H109  1.083884 S    
O28   Cr4   2.130619 S    
C123  C124  1.550287 S    
O12   Cr8   2.121912 S    
O22   Cr10  1.992093 S    
C124  H132  1.103136 S    
C9    C61   1.493820 S    
C84   H72   1.110795 S    
O46   Cr10  1.987750 S    
C50   C58   1.539578 S    
O48   C24   1.298585 A    
C7    C35   1.488307 S    
C134  H155  1.106775 S    
H64   C80   1.080968 S    
C132  H152  1.098609 S    
C51   C67   1.556198 S    
C45   H21   1.091744 S    
H65   C82   1.104936 S    
C82   C86   1.527494 S    
C77   H74   1.103799 S    
C89   H81   1.112868 S    
C70   H38   1.083938 S    
C73   H57   1.109243 S    
C131  H153  1.086236 S    
C98   H118  1.107170 S    
C25   H5    1.106556 S    
C66   H50   1.103168 S    
Cr12  O52   2.069333 S    
C26   C33   1.522928 S    
C27   H7    1.106042 S    
C17   O41   1.304513 A    
C43   H15   1.102869 S    
C30   C37   1.524516 S    
C19   O43   1.304513 A    
C20   O44   1.304512 A    
C31   C40   1.524510 S    
C117  H113  1.103819 S    
C77   C85   1.569105 S    
Cr8   O52   2.068789 S    
C15   C106  1.481964 S    
O46   C22   1.298585 A    
C71   H39   1.083930 S    
C126  H137  1.103104 S    
C103  C119  1.548632 S    
H67   C84   1.104937 S    
C46   C131  1.553781 S    
C90   H78   1.089011 S    
C76   H60   1.109245 S    
C28   H8    1.106578 S    
H30   C68   1.111547 S    
C16   O36   1.290181 A    
C112  C120  1.568451 S    
C136  H160  1.106933 S    
O27   C23   1.288391 A    
O31   C15   1.304150 A    
C94   C110  1.550796 S    
H100  C114  1.104735 S    
O32   C16   1.304155 A    
C99   H119  1.107169 S    
O47   Cr11  1.987743 S    
C63   C67   1.537062 S    
C39   C40   1.537703 S    
C121  H129  1.079423 S    
C54   C70   1.527321 S    
C53   C69   1.526674 S    
O24   C12   1.286985 A    
C56   C72   1.526671 S    
C17   C86   1.492158 S    
C134  H157  1.098599 S    
C28   C32   1.541629 S    
C55   C71   1.527326 S    
C42   H14   1.102890 S    
O32   Cr4   2.005995 S    
C26   H6    1.106054 S    
C1    O9    1.282725 A    
C80   H75   1.103800 S    
C110  C118  1.568451 S    
O11   Cr7   2.121921 S    
C104  C108  1.525227 S    
H26   C52   1.051321 S    
C43   C47   1.559118 S    
C135  H164  1.105911 S    
O27   Cr3   2.130612 S    
C41   C45   1.559436 S    
C38   H10   1.108248 S    
C97   C105  1.571450 S    
C129  H148  1.085914 S    
C48   H24   1.091755 S    
C61   C69   1.547650 S    
H93   C99   1.084993 S    
C99   C107  1.571451 S    
C79   C84   1.551764 S    
Cr5   O49   2.068775 S    
H63   C79   1.080966 S    
C89   C105  1.554845 S    
C69   H41   1.092070 S    
C32   C39   1.524645 S    
C95   H91   1.111291 S    
O22   C10   1.286820 A    
C100  C116  1.547480 S    
C4    O12   1.282748 A    
C120  H112  1.083887 S    
C2    O10   1.282609 A    
C55   C125  1.592236 S    
C27   C28   1.551321 S    
C55   H35   1.114611 S    
O5    C1    1.312158 A    
C90   C94   1.494192 S    
O25   C21   1.288391 A    
C80   C83   1.551764 S    
O3    C11   1.308405 A    
O8    C4    1.312163 A    
C104  H104  1.109892 S    
C45   C61   1.596044 S    
C102  C118  1.548631 S    
Cr1   O49   2.035401 S    
C125  H139  1.078068 S    
C101  H101  1.109892 S    
C98   C114  1.547480 S    
H68   C83   1.104934 S    
C130  H146  1.109209 S    
C79   H76   1.103800 S    
C64   C72   1.547644 S    
C29   H1    1.090091 S    
C40   H12   1.108205 S    
O26   Cr2   2.130619 S    
Cr3   O51   2.035401 S    
C75   C76   1.493733 S    
C5    O17   1.329759 A    
O29   C13   1.304149 A    
O28   C24   1.288384 A    
O14   C6    1.340148 A    
C35   C39   1.526793 S    
C8    O20   1.329743 A    
C10   C62   1.493039 S    
C2    C59   1.495630 S    
C78   C81   1.551764 S    
C79   C87   1.569103 S    
C49   H47   1.097320 S    
O40   Cr8   1.997371 S    
C50   H48   1.097634 S    
C127  H143  1.098276 S    
C23   C111  1.483512 S    
O41   Cr9   2.111821 S    
C51   H45   1.097627 S    
C32   H4    1.090085 S    
O33   Cr5   2.113294 S    
C42   C58   1.568799 S    
C136  H162  1.098968 S    
C89   H77   1.089009 S    
C128  H142  1.108053 S    
O35   Cr7   2.113294 S    
O29   Cr1   2.005998 S    
C73   H53   1.087209 S    
O15   C7    1.340142 A    
O40   C20   1.316871 A    
C131  C132  1.546769 S    
O18   Cr10  2.108208 S    
C69   H37   1.084095 S    
C91   H79   1.089009 S    
C41   H17   1.112156 S    
Cr9   O49   2.069347 S    
C72   H40   1.084102 S    
C43   H19   1.112140 S    
C18   O42   1.304512 A    
C13   C108  1.481964 S    
Cr11  O51   2.069347 S    
O26   C22   1.288385 A    
C68   H52   1.103116 S    
O20   Cr12  2.108208 S    
C118  H114  1.103821 S    
C49   C65   1.555829 S    
C94   H86   1.092693 S    
C76   H56   1.087205 S    
C19   C88   1.492158 S    
C34   C38   1.526797 S    
C30   H2    1.090175 S    
O34   Cr6   2.113284 S    
C44   C60   1.568898 S    
O30   C14   1.304155 A    
C124  H131  1.106973 S    
C101  C105  1.525225 S    
H31   C65   1.111546 S    
C33   C37   1.526926 S    
C62   C66   1.537041 S    
C81   H69   1.110796 S    
H27   C49   1.051316 S    
C133  C134  1.546785 S    
C134  H156  1.109244 S    
C26   C30   1.541637 S    
C8    C36   1.488052 S    
C132  H151  1.109244 S    
C63   C71   1.547526 S    
C72   H44   1.092047 S    
O42   Cr10  2.111828 S    
C100  C108  1.571451 S    
C118  H110  1.083886 S    
O31   Cr3   2.005998 S    
C74   C86   1.551865 S    
O6    Cr2   2.010718 S    
C109  C113  1.530439 S    
O24   Cr12  1.992093 S    
C131  H154  1.106684 S    
H29   C67   1.111589 S    
O30   Cr2   2.005995 S    
C111  C115  1.530439 S    
O48   Cr12  1.987750 S    
C84   C88   1.527493 S    
C112  C116  1.530439 S    
H28   C50   1.051794 S    
O37   C17   1.316873 A    
C15   O35   1.290177 A    
C111  C119  1.568450 S    
Cr10  O50   2.069333 S    
C45   C129  1.553149 S    
C25   C29   1.541627 S    
C36   C40   1.526925 S    
O43   Cr11  2.111821 S    
C94   H90   1.111292 S    
O37   Cr5   1.997374 S    
C128  H140  1.102352 S    
C48   C64   1.596022 S    
O21   Cr9   1.992091 S    
C42   C46   1.559110 S    
C83   C87   1.527494 S    
C98   C106  1.571451 S    
O39   Cr7   1.997374 S    
O45   Cr9   1.987743 S    
C62   C70   1.547522 S    
C13   O33   1.290176 A    
O13   Cr5   1.990503 S    
O23   Cr11  1.992091 S    
O15   Cr7   1.990503 S    
C31   C35   1.549878 S    
H66   C81   1.104934 S    
C123  H133  1.098255 S    
C95   H87   1.092692 S    
O9    Cr5   2.121921 S    
C61   C65   1.537687 S    
C52   C68   1.555829 S    
O23   C11   1.286828 A    
C120  H116  1.103821 S    
C130  H147  1.098953 S    
C74   H58   1.109247 S    
C122  H125  1.102307 S    
C54   H34   1.114613 S    
C92   C96   1.494194 S    
C27   C36   1.522908 S    
H25   C51   1.051795 S    
C115  H123  1.111560 S    
O6    C2    1.312473 A    
C121  H128  1.098271 S    
C44   H20   1.112160 S    
C80   C88   1.569105 S    
C104  H108  1.107715 S    
C77   C82   1.551764 S    
O1    Cr1   2.127893 S    
O19   Cr11  2.108203 S    
C37   C38   1.537703 S    
C103  C107  1.525226 S    
C101  H105  1.107715 S    
C102  H102  1.109893 S    
O45   C21   1.298591 A    
C103  H107  1.107715 S    
O47   C23   1.298590 A    
C73   C74   1.493733 S    
C11   C63   1.493044 S    
C96   H88   1.092691 S    
C52   H46   1.097334 S    
C6    O18   1.330305 A    
H32   C66   1.111588 S    
C12   C64   1.493808 S    
C52   C60   1.539123 S    
C25   C26   1.551324 S    
O36   Cr8   2.113284 S    
C53   H33   1.114556 S    
C5    C33   1.488063 S    
O38   Cr6   1.997371 S    
C122  H127  1.108081 S    
O13   C5    1.340249 A    
C56   H36   1.114558 S    
C14   C107  1.481963 S    
C119  H111  1.083884 S    
O8    Cr4   2.010718 S    
C4    C57   1.495171 S    
C100  H120  1.107170 S    
O1    C9    1.308644 A    
C121  C122  1.551022 S    
O7    C3    1.312463 A    
C91   H83   1.112867 S    
C75   H59   1.109245 S    
C47   H23   1.091309 S    
H97   C115  1.104735 S    
C89   C93   1.494191 S    
H98   C116  1.104737 S    
C125  H138  1.098254 S    
H99   C113  1.104733 S    
C41   H13   1.103694 S    
C29   C33   1.549503 S    
C116  H124  1.111559 S    
O16   C8    1.340246 A    
C91   C107  1.554846 S    
C92   C108  1.554843 S    
C47   C63   1.595838 S    
C119  H115  1.103819 S    
Cr4   O52   2.035397 S    
O2    Cr2   2.127895 S    
C37   H9    1.108209 S    
C49   C57   1.539132 S    
Cr6   O50   2.068789 S    
C114  H122  1.111560 S    
C127  H144  1.079366 S    
O5    Cr1   2.010714 S    
C124  H130  1.097267 S    
H62   C78   1.080968 S    
C75   H55   1.087209 S    
C21   C109  1.483512 S    
H95   C97   1.084994 S    
C102  C106  1.525228 S    
C75   C87   1.551865 S    
C81   C85   1.527495 S    
O7    Cr3   2.010714 S    
C6    C34   1.488297 S    
C97   H117  1.107168 S    
C65   H49   1.103100 S    
C95   C111  1.550794 S    
C48   C135  1.553142 S    
C91   C95   1.494193 S    
C28   C35   1.523643 S    
C67   H51   1.103167 S    
C135  H163  1.085909 S    
C136  H161  1.109208 S    
Cr2   O50   2.035397 S    
C128  H141  1.097761 S    
C129  H149  1.105941 S    
C126  H136  1.107009 S    
O14   Cr6   1.990493 S    
C16   C105  1.481965 S    
C110  C114  1.530439 S    
C7    O19   1.330328 A    
C78   H73   1.103802 S    
C90   H82   1.112869 S    
C76   C88   1.551865 S    
O3    Cr3   2.127893 S    
O38   C18   1.316871 A    
O25   Cr1   2.130612 S    
C30   C34   1.549861 S    
C43   C59   1.568794 S    
C96   H92   1.111292 S    
C44   C48   1.559427 S    
C93   C109  1.550795 S    
O17   Cr9   2.108203 S    
C83   H71   1.110796 S    
C53   C121  1.591952 S    
C14   O34   1.290181 A    
C78   C86   1.569105 S    
C41   C57   1.568906 S    
C46   C62   1.595819 S    
O10   Cr6   2.121912 S    
C50   C66   1.556201 S    
C135  C136  1.546173 S    
C56   C127  1.591964 S    
O4    Cr4   2.127895 S    
C74   H54   1.087205 S    
H94   C100  1.084993 S    
C133  H159  1.106705 S    
C27   C31   1.541634 S    
C130  H145  1.106930 S    
C54   C58   1.544330 S    
C92   H84   1.112868 S    
C39   H11   1.108250 S    
C42   H18   1.112143 S    
C132  H150  1.106778 S    
C44   H16   1.103706 S    
C109  C117  1.568450 S    
