data_mof_unit_66035.cif
_audit_creation_date              2012-12-10T21:25:08-0500
_audit_creation_method            fapswitch 2.2
_symmetry_space_group_name_H-M    P1
_symmetry_Int_Tables_number       1
_space_group_crystal_system       triclinic
_cell_length_a                    10.753132
_cell_length_b                    17.56078
_cell_length_c                    16.736807
_cell_angle_alpha                 89.495693
_cell_angle_beta                  89.894436
_cell_angle_gamma                 90.259653
_cell_volume                      3160.30745132

loop_
_atom_site_label
_atom_site_type_symbol
_atom_type_description
_atom_site_fract_x
_atom_site_fract_y
_atom_site_fract_z
_atom_type_partial_charge
C1    C     C_R   0.497517 0.353487 0.500326 0.941670
C2    C     C_R   0.502492 0.646514 0.499674 0.941623
C3    C     C_R   0.872561 0.497014 0.500063 -0.341697
C4    C     C_R   0.127440 0.502991 0.499940 -0.341714
C5    C     C_R   0.937601 0.464302 0.564743 -0.125625
C6    C     C_R   0.062399 0.535708 0.435262 -0.125594
C7    C     C_R   0.419667 0.845587 0.549903 0.721245
C8    C     C_R   0.580712 0.154435 0.450271 0.721292
C9    C     C_R   0.421399 0.766691 0.549433 -0.303561
C10   C     C_R   0.578862 0.233331 0.450686 -0.303592
C11   C     C_R   0.504675 0.728632 0.499455 -0.195681
C12   C     C_R   0.495408 0.271372 0.500556 -0.195609
C13   C     C_R   0.588817 0.769709 0.450860 0.298568
C14   C     C_R   0.411210 0.230281 0.549095 0.298431
C15   C     C_R   0.586737 0.848692 0.451850 -0.191678
C16   C     C_R   0.413400 0.151299 0.548155 -0.191626
C17   C     C_R   0.502131 0.886031 0.500823 -0.083339
C18   C     C_R   0.498183 0.113976 0.499293 -0.083278
C19   C     C_1   0.500680 0.966219 0.500383 0.132744
C20   C     C_1   0.499696 0.033788 0.499754 0.132765
C21   C     C_R   0.426597 0.449186 0.833175 -0.209541
C22   C     C_R   0.573512 0.550746 0.166822 -0.209633
C23   C     C_R   0.259689 0.501654 0.499970 0.986614
C24   C     C_R   0.740311 0.498347 0.500030 0.986572
C25   C     C_R   0.427068 0.449914 0.749019 0.062255
C26   C     C_R   0.573042 0.550022 0.250977 0.062303
C27   C     C_R   0.573908 0.550398 0.746965 -0.068323
C28   C     C_R   0.425986 0.449658 0.253038 -0.068346
C29   C     C_R   0.576037 0.551960 0.831215 0.266857
C30   C     C_R   0.423854 0.448091 0.168788 0.266842
C31   C     C_R   0.501422 0.500588 0.875557 0.050842
C32   C     C_R   0.498576 0.499403 0.124442 0.050806
C33   C     C_1   0.500427 0.500148 0.963439 0.141143
C34   C     C_1   0.499569 0.499840 0.036561 0.141113
C35   C     C_R   0.240610 0.682974 0.313117 0.176073
C36   C     C_R   0.759382 0.317073 0.686933 0.176051
C37   C     C_R   0.184357 0.645529 0.378060 -0.273193
C38   C     C_R   0.815652 0.354493 0.621981 -0.273113
C39   C     C_R   0.124146 0.575278 0.367125 0.109721
C40   C     C_R   0.875854 0.424751 0.632892 0.109745
C41   C     C_R   0.120841 0.542977 0.290706 -0.263308
C42   C     C_R   0.879134 0.457083 0.709297 -0.263282
C43   C     C_R   0.177821 0.580194 0.226104 0.534706
C44   C     C_R   0.822139 0.419889 0.773908 0.534706
C45   C     C_R   0.238112 0.649974 0.237247 0.570847
C46   C     C_R   0.761858 0.350103 0.762789 0.570768
C47   C     C_R   0.934592 0.531948 0.435759 0.627681
C48   C     C_R   0.065408 0.468060 0.564245 0.627748
H1    H     H_    0.651162 0.880919 0.414703 0.218540
H2    H     H_    0.348922 0.119060 0.585253 0.218539
H3    H     H_    0.367811 0.408786 0.864917 0.209121
H4    H     H_    0.632385 0.591098 0.135077 0.209135
H5    H     H_    0.368648 0.410355 0.717092 0.217901
H6    H     H_    0.631553 0.589533 0.282902 0.217981
H7    H     H_    0.631746 0.589595 0.713073 0.172087
H8    H     H_    0.368069 0.410506 0.286932 0.172080
H9    H     H_    0.186587 0.671256 0.436635 0.186539
H10   H     H_    0.813438 0.328744 0.563416 0.186549
H11   H     H_    0.074462 0.488899 0.281411 0.214451
H12   H     H_    0.925503 0.511167 0.718573 0.214425
H13   H     H_    0.356693 0.735210 0.587050 0.194876
H14   H     H_    0.643621 0.264827 0.413120 0.194804
N1    N     N_R   0.500030 0.500030 0.707230 -0.137156
N2    N     N_R   0.499970 0.499970 0.292770 -0.137141
O1    O     O_R   0.500000 0.389130 0.566570 -0.594280
O2    O     O_R   0.500000 0.610870 0.433430 -0.594204
O3    O     O_R   0.499990 0.389100 0.433480 -0.628214
O4    O     O_R   0.500010 0.610900 0.566520 -0.628278
O5    O     O_R   0.316760 0.500020 0.566540 -0.556060
O6    O     O_R   0.683240 0.499980 0.433460 -0.556113
O7    O     O_R   0.316760 0.499990 0.433460 -0.643334
O8    O     O_R   0.683240 0.500010 0.566540 -0.643330
Zn1   Zn    Zn3+2 0.500010 0.500020 0.588860 0.997295
Zn2   Zn    Zn3+2 0.499990 0.499980 0.411140 0.997321
F1    F     F_    0.292949 0.685789 0.174170 -0.557723
F2    F     F_    0.707004 0.314312 0.825875 -0.557803
Br1   Br    Br    0.681759 0.624482 0.882932 -0.336739
Br2   Br    Br    0.317987 0.375646 0.117075 -0.336777
Br3   Br    Br    0.317119 0.780215 0.327736 -0.342309
Br4   Br    Br    0.682872 0.219828 0.672347 -0.342317
F3    F     F_    0.173650 0.548806 0.152431 -0.574448
F4    F     F_    0.826283 0.451309 0.847568 -0.574499
F5    F     F_    0.870889 0.565273 0.374658 -0.618926
F6    F     F_    0.129110 0.434741 0.625351 -0.618855
F7    F     F_    0.337752 0.882389 0.597663 -0.617376
F8    F     F_    0.662802 0.117649 0.402621 -0.617397
Br5   Br    Br    0.711858 0.721596 0.385601 -0.369164
Br6   Br    Br    0.287970 0.278379 0.614213 -0.369199

loop_
_geom_bond_atom_site_label_1
_geom_bond_atom_site_label_2
_ccdc_geom_bond_type
C38   C40   A    
C27   C29   A    
C23   O5    A    
C19   C20   T    
C46   F2    S    
C28   H8    S    
C24   O6    A    
C39   C41   A    
C21   C31   A    
C22   C32   A    
C9    H13   S    
C35   C37   A    
C25   H5    S    
C44   F4    S    
C27   H7    S    
O2    Zn2   S    
O1    Zn1   S    
C15   C17   A    
C25   N1    A    
C35   Br3   S    
C26   N2    A    
C1    O3    A    
C38   H10   S    
C7    C17   A    
O6    Zn2   S    
C1    O1    A    
C31   C33   S    
C36   C46   A    
C47   F5    S    
C8    F8    S    
C40   C42   A    
C41   C43   A    
C3    C24   S    
C10   H14   S    
C1    C12   S    
C42   C44   A    
C2    C11   S    
C26   H6    S    
C44   C46   A    
C5    C48   A    
C6    C47   A    
C23   O7    A    
C41   H11   S    
C4    C6    A    
C36   Br4   S    
C42   H12   S    
C4    C23   S    
N1    Zn1   S    
C3    C5    A    
O4    Zn1   S    
C8    C18   A    
C48   F6    S    
C32   C34   S    
C9    C11   A    
C13   Br5   S    
C33   C34   T    
O3    Zn2   S    
O5    Zn1   S    
C43   C45   A    
C10   C12   A    
C28   N2    A    
C8    C10   A    
C12   C14   A    
C13   C15   A    
C43   F3    S    
C14   C16   A    
C36   C38   A    
C35   C45   A    
C21   H3    S    
C24   O8    A    
C22   H4    S    
C4    C48   A    
C7    C9    A    
C21   C25   A    
C16   C18   A    
C16   H2    S    
O8    Zn1   S    
C2    O2    A    
O7    Zn2   S    
C2    O4    A    
C45   F1    S    
C28   C30   A    
C14   Br6   S    
C37   C39   A    
C30   C32   A    
C11   C13   A    
C7    F7    S    
C3    C47   A    
C17   C19   S    
C18   C20   S    
C15   H1    S    
C30   Br2   S    
C29   Br1   S    
C29   C31   A    
C22   C26   A    
C5    C40   S    
N2    Zn2   S    
C6    C39   S    
C27   N1    A    
C37   H9    S    
