data_mof_unit_59206.cif
_audit_creation_date              2013-03-05T15:45:15-0500
_audit_creation_method            fapswitch 2.2
_symmetry_space_group_name_H-M    P1
_symmetry_Int_Tables_number       1
_space_group_crystal_system       triclinic
_cell_length_a                    8.195711
_cell_length_b                    12.817498
_cell_length_c                    19.039054
_cell_angle_alpha                 94.902213
_cell_angle_beta                  94.284002
_cell_angle_gamma                 98.109645
_cell_volume                      1965.13558705

loop_
_atom_site_label
_atom_site_type_symbol
_atom_site_description
_atom_site_fract_x
_atom_site_fract_y
_atom_site_fract_z
_atom_type_partial_charge
P1    P     P_3+3 0.986780 0.745970 0.554690 0.464198
O1    O     O_2   0.160820 0.763040 0.533820 -0.344511
O2    O     O_3   0.890970 0.628600 0.535400 -0.389815
O3    O     O_3   0.385950 0.698560 0.408070 -0.399203
O4    O     O_2   0.295693 0.883314 0.451237 -0.404776
O5    O     O_3   0.038675 0.783093 0.645427 -0.601676
O6    O     O_3   0.386514 0.870002 0.322307 -0.522257
H1    H     H_    0.364948 0.723124 0.265230 0.130011
C1    C     C_3   0.481670 0.846602 0.205688 0.053185
H2    H     H_    0.547397 0.928894 0.216323 0.099276
P2    P     P_3+3 0.341450 0.417130 0.341310 0.549018
P3    P     P_3+3 0.925884 0.652114 0.282465 0.589408
O7    O     O_2   0.172860 0.449730 0.330520 -0.360313
O8    O     O_3   0.962080 0.644700 0.373110 -0.369905
O9    O     O_2   0.055914 0.594725 0.246116 -0.293208
O10   O     O_3   0.300720 0.279119 0.320538 -0.538388
O11   O     O_3   0.975743 0.784580 0.267783 -0.472343
C2    C     C_3   0.940241 0.846423 0.327721 0.510126
H3    H     H_    0.050768 0.861622 0.366176 0.152194
H4    H     H_    0.834442 0.808565 0.353992 0.004605
C3    C     C_3   0.895791 0.950516 0.306796 -1.047778
H5    H     H_    0.955383 0.015388 0.346672 0.231018
H6    H     H_    0.935279 0.964134 0.253670 0.330091
C4    C     C_3   0.889386 0.257139 0.310924 1.025526
H7    H     H_    0.005338 0.292623 0.340625 0.004339
C5    C     C_3   0.923861 0.178236 0.251275 -1.013749
H8    H     H_    0.810338 0.121866 0.232304 0.272138
H9    H     H_    0.970087 0.218222 0.205628 0.283363
H10   H     H_    0.025173 0.136863 0.269966 0.225902
Ba1   Ba    Ba6+2 0.160910 0.552960 0.466220 1.628104
C6    C     C_3   0.995625 0.705098 0.690492 0.107001
H11   H     H_    0.109828 0.673620 0.707553 0.127129
H12   H     H_    0.904724 0.638541 0.665395 0.138192
C7    C     C_3   0.928827 0.760808 0.754658 0.134715
H13   H     H_    0.994830 0.843180 0.765519 0.133408
H14   H     H_    0.795849 0.765362 0.743211 0.108137
C8    C     C_3   0.297217 0.225101 0.381884 0.437222
H15   H     H_    0.173371 0.217655 0.401375 -0.047075
H16   H     H_    0.385524 0.264052 0.425820 0.161914
C9    C     C_3   0.336620 0.114319 0.363667 -0.848111
H17   H     H_    0.243270 0.069476 0.323071 0.250899
H18   H     H_    0.336099 0.071631 0.411797 0.245312
H19   H     H_    0.459529 0.118549 0.342471 0.280237
P4    P     P_3+3 0.823520 0.254020 0.445250 0.494830
O12   O     O_2   0.649470 0.236890 0.466160 -0.354638
O13   O     O_3   0.919320 0.371390 0.464540 -0.367038
O14   O     O_3   0.424350 0.301430 0.591880 -0.353513
O15   O     O_3   0.775468 0.210646 0.354429 -0.615179
P5    P     P_3+3 0.862301 0.358113 0.718838 0.585727
O16   O     O_3   0.382770 0.553920 0.582990 -0.399302
O17   O     O_3   0.848220 0.355290 0.626830 -0.399532
O18   O     O_2   0.720373 0.414014 0.745583 -0.286725
O19   O     O_3   0.810217 0.228375 0.739995 -0.450414
Ba2   Ba    Ba6+2 0.649260 0.447030 0.533730 1.630176
P6    P     P_3+3 0.426013 0.836492 0.408782 0.438280
C10   C     C_3   0.451372 0.798811 0.275369 0.338989
H20   H     H_    0.572783 0.781440 0.297223 -0.082270
H21   H     H_    0.561357 0.799315 0.175556 0.054237
O20   O     O_3   0.427530 0.446070 0.416950 -0.404195
C11   C     C_3   0.544235 0.770278 0.627931 0.379780
H22   H     H_    0.669987 0.753733 0.617878 0.052488
H23   H     H_    0.457156 0.741579 0.580585 0.150290
C12   C     C_3   0.547151 0.888967 0.640111 -0.912547
H24   H     H_    0.626883 0.919996 0.688805 0.250291
H25   H     H_    0.596067 0.928730 0.594988 0.236064
H26   H     H_    0.420015 0.906532 0.646340 0.268640
P7    P     P_3+3 0.461626 0.586543 0.671094 0.471156
O21   O     O_2   0.637430 0.550200 0.669460 -0.373729
O22   O     O_3   0.494362 0.724383 0.688740 -0.560723
H27   H     H_    0.760677 0.950380 0.305095 0.233854
C13   C     C_3   0.890842 0.160067 0.697799 0.529855
H28   H     H_    0.811967 0.132752 0.647754 0.112837
H29   H     H_    0.014593 0.197476 0.684924 -0.036449
C14   C     C_3   0.914944 0.064951 0.737856 -0.994123
H30   H     H_    0.945216 0.999874 0.701059 0.206974
H31   H     H_    0.016703 0.087619 0.780578 0.278818
H32   H     H_    0.801091 0.036884 0.762962 0.286998
P8    P     P_3+3 0.384543 0.163648 0.592369 0.458221
C15   C     C_3   0.338938 0.115526 0.718769 0.299513
H33   H     H_    0.236538 0.054559 0.694140 0.045991
O23   O     O_2   0.497459 0.117775 0.540462 -0.392441
O24   O     O_3   0.465854 0.130738 0.673762 -0.476532
H34   H     H_    0.292844 0.191603 0.732372 0.120188
H35   H     H_    0.308967 0.064776 0.823377 0.244228
C16   C     C_3   0.406868 0.075251 0.786260 -0.673394
H36   H     H_    0.513300 0.132396 0.812049 0.296776
H37   H     H_    0.448688 0.997643 0.773958 0.222491
C17   C     C_R   0.072908 0.183566 0.530657 -0.472470
C18   C     C_R   0.728826 0.818632 0.478654 -0.538798
C19   C     C_R   0.699651 0.996818 0.451518 -0.207984
C20   C     C_R   0.635360 0.889248 0.449315 0.243313
C21   C     C_R   0.886177 0.852162 0.512517 0.248826
C22   C     C_R   0.950150 0.963927 0.518840 -0.037992
C23   C     C_R   0.855316 0.037661 0.487301 -0.043573
C24   C     C_R   0.919442 0.149495 0.492934 0.218893
C25   C     C_R   0.168173 0.112427 0.558848 0.161241
C26   C     C_R   0.106599 0.004157 0.554073 -0.225289
H38   H     H_    0.626216 0.047590 0.425514 0.188728
H39   H     H_    0.183865 0.952225 0.576928 0.185056
H40   H     H_    0.124181 0.266568 0.534068 0.163127
H41   H     H_    0.677012 0.735758 0.475718 0.170882
C27   C     C_R   0.597232 0.565779 0.299887 -0.371394
C28   C     C_R   0.452569 0.495859 0.277039 0.396251
C29   C     C_R   0.400449 0.480458 0.204393 -0.237116
C30   C     C_R   0.499166 0.528879 0.155001 0.029511
C31   C     C_R   0.656166 0.585563 0.178716 -0.257250
C32   C     C_R   0.708153 0.599978 0.250888 0.272513
C33   C     C_R   0.456314 0.602964 0.038680 -0.096415
C34   C     C_R   0.405997 0.590619 0.966371 -0.073259
C35   C     C_R   0.345159 0.490058 0.931459 0.001225
C36   C     C_R   0.339512 0.400176 0.970600 0.398225
C37   C     C_R   0.385355 0.414466 0.043930 -0.237402
C38   C     C_R   0.444315 0.515310 0.078312 0.110804
C39   C     C_R   0.119712 0.432754 0.830798 0.338344
C40   C     C_R   0.069622 0.422514 0.757470 0.102307
C41   C     C_R   0.335823 0.517156 0.734219 0.306370
C42   C     C_R   0.388427 0.525418 0.806350 -0.189993
C43   C     C_R   0.283166 0.481906 0.855128 -0.018409
C44   C     C_R   0.179193 0.463464 0.710222 -0.518970
H42   H     H_    0.510786 0.566587 0.824622 0.188476
H43   H     H_    0.412569 0.660288 0.937674 0.189052
H44   H     H_    0.502383 0.681521 0.063972 0.158246
H45   H     H_    0.284924 0.429957 0.186466 0.175954
H46   H     H_    0.381627 0.346159 0.073903 0.169911
H47   H     H_    0.739733 0.615127 0.141052 0.177601
H48   H     H_    0.139772 0.457721 0.654325 0.178800
H49   H     H_    0.634597 0.581464 0.355983 0.165172
S1    S     S_3+6 0.956460 0.699188 0.834105 -0.022635
O25   O     O_2   0.852585 0.592235 0.827184 -0.280631
O26   O     O_2   0.135679 0.688985 0.849072 -0.314586
O27   O     O_3   0.896786 0.775009 0.901069 -0.473097
H50   H     H_    0.911784 0.735786 0.943239 0.398117
S2    S     S_3+6 0.294838 0.848267 0.151612 0.041539
O28   O     O_2   0.336337 0.877528 0.079589 -0.238354
O29   O     O_2   0.191311 0.740775 0.143880 -0.219004
O30   O     O_3   0.187990 0.938038 0.188318 -0.462579
H51   H     H_    0.261943 0.006539 0.190368 0.349382
N1    N     N_R   0.293877 0.294338 0.936651 0.247859
O31   O     O_R   0.233620 0.217934 0.972399 -0.328725
O32   O     O_R   0.329189 0.271387 0.872246 -0.441101
N2    N     N_R   0.004654 0.398413 0.880491 0.250657
O33   O     O_R   0.984194 0.461984 0.935114 -0.335857
O34   O     O_R   0.931526 0.300881 0.875091 -0.311719
S3    S     S_3+6 0.798577 0.356161 0.274138 -0.027152
O35   O     O_2   0.803085 0.437355 0.335616 -0.301265
O36   O     O_2   0.894897 0.400566 0.216571 -0.325145
O37   O     O_3   0.603514 0.306851 0.242368 -0.552833
H52   H     H_    0.602034 0.307224 0.190202 0.356104

loop_
_geom_bond_atom_site_label_1
_geom_bond_atom_site_label_2
_geom_bond_distance
_ccdc_geom_bond_type
C17   C25   1.396778 A    
C22   C23   1.446500 A    
C2    C3    1.509251 S    
C36   C37   1.407992 A    
O6    P6    1.755107 S    
S1    O25   1.498166 D    
H1    C10   1.110756 S    
C15   O24   1.399537 S    
C12   H25   1.107768 S    
C39   C40   1.415159 A    
C29   H45   1.083048 S    
C16   H36   1.110294 S    
C41   C42   1.398893 A    
Ba1   Ba2   4.536239 S    
C31   H47   1.083265 S    
C5    H8    1.110709 S    
O16   Ba2   2.908178 S    
C14   H31   1.109708 S    
C11   C12   1.515696 S    
C30   C38   1.483452 S    
C4    C5    1.524671 S    
C37   H46   1.083311 S    
C8    C9    1.517485 S    
N2    O34   1.300005 A    
C7    H13   1.111280 S    
O2    Ba2   2.831736 S    
Ba2   O21   2.815241 S    
C31   C32   1.396675 A    
C33   C34   1.396400 A    
C11   H23   1.109204 S    
P1    O1    1.500600 D    
C35   C36   1.421809 A    
C37   C38   1.401666 A    
P6    C20   1.839086 S    
C9    H19   1.108856 S    
O37   H52   0.992786 S    
P2    Ba1   3.379502 S    
P8    C25   1.847649 S    
P5    O17   1.743863 S    
C14   H32   1.109006 S    
P3    O11   1.740784 S    
S2    O30   1.678540 S    
C6    H12   1.099521 S    
C18   C20   1.391453 A    
C1    H2    1.109340 S    
C7    H14   1.106037 S    
O10   C8    1.407826 S    
C9    H18   1.106664 S    
O5    C6    1.397272 S    
Ba1   O16   2.762970 S    
C17   C24   1.394619 A    
C3    H5    1.108358 S    
C25   C26   1.400992 A    
C35   C43   1.493240 S    
C23   C24   1.447480 A    
O6    C10   1.407934 S    
O8    Ba1   2.765139 S    
S3    O37   1.681145 S    
P2    O20   1.546711 S    
C29   C30   1.412737 A    
C26   H39   1.077350 S    
P4    O13   1.594919 S    
C19   C23   1.409457 A    
Ba2   O20   2.762481 S    
C16   H37   1.109150 S    
C14   H30   1.110234 S    
C42   C43   1.410745 A    
P7    O21   1.577204 D    
C4    O15   1.398490 S    
C39   N2    1.437167 S    
O7    Ba1   2.815211 S    
C4    H7    1.087902 S    
S3    O36   1.502492 D    
C27   H49   1.082544 S    
C42   H42   1.082740 S    
C13   H29   1.112957 S    
C2    H3    1.105117 S    
C12   H24   1.103550 S    
P1    O5    1.756227 S    
C11   H22   1.108146 S    
P1    O2    1.594947 S    
C33   C38   1.402172 A    
O2    Ba1   2.896811 S    
P7    C41   1.845953 S    
C8    H15   1.100928 S    
P3    C32   1.851190 S    
P2    O10   1.758165 S    
P8    O24   1.749325 S    
C6    H11   1.108090 S    
P3    O9    1.549198 D    
P5    O18   1.544980 D    
Ba1   O20   2.909140 S    
O13   Ba2   2.897734 S    
O11   C2    1.405464 S    
C6    C7    1.537261 S    
C27   C32   1.404657 A    
C1    C10   1.530389 S    
C39   C43   1.423160 A    
H35   C16   1.109834 S    
C18   C21   1.391228 A    
C21   C22   1.445945 A    
C17   H40   1.081953 S    
N1    O32   1.299731 A    
O14   Ba2   2.791727 S    
C9    H17   1.106682 S    
P5    C40   1.850203 S    
P3    O8    1.742104 S    
O12   Ba2   2.884303 S    
P1    C21   1.892527 S    
C40   C44   1.399838 A    
C3    H6    1.105171 S    
O3    P6    1.750731 S    
S2    O28   1.502732 D    
C10   H20   1.108748 S    
O27   H50   0.992051 S    
O19   C13   1.403901 S    
S1    O27   1.680648 S    
C22   C26   1.409185 A    
C15   C16   1.521567 S    
P4    O12   1.500970 D    
O16   P7    1.745898 S    
C1    H21   1.109606 S    
C18   H41   1.082058 S    
O4    P6    1.543107 D    
C33   H44   1.082125 S    
O30   H51   0.990085 S    
S1    O26   1.501257 D    
C13   C14   1.520300 S    
C30   C31   1.407398 A    
C5    H9    1.109976 S    
C41   C44   1.392700 A    
Ba1   O13   2.831142 S    
C3    H27   1.105160 S    
O1    Ba1   2.883662 S    
O17   Ba2   2.765658 S    
C13   H28   1.111498 S    
C8    H16   1.099545 S    
P4    C24   1.906719 S    
N2    O33   1.301284 A    
C15   H34   1.111770 S    
P2    O7    1.503693 D    
P8    O23   1.539359 D    
C34   H43   1.083059 S    
C19   C20   1.400813 A    
C11   O22   1.404557 S    
C4    S3    1.730853 S    
P5    O19   1.746327 S    
P1    Ba1   3.411315 S    
C2    H4    1.106824 S    
C27   C28   1.398083 A    
C12   H26   1.109288 S    
N1    O31   1.301468 A    
C15   H33   1.108333 S    
C44   H48   1.082090 S    
P4    Ba2   3.411997 S    
S3    O35   1.492963 D    
C5    H10   1.099823 S    
C7    S1    1.779476 S    
C28   C29   1.405589 A    
S2    O29   1.502231 D    
P2    C28   1.860986 S    
O14   P8    1.751020 S    
P7    O22   1.748618 S    
C34   C35   1.405189 A    
C19   H38   1.073253 S    
O3    Ba1   2.792361 S    
P4    O15   1.768143 S    
C36   N1    1.438348 S    
C1    S2    1.783963 S    
