data_mof_unit_68174.cif
_audit_creation_date              2012-12-11T16:30:27-0500
_audit_creation_method            fapswitch 2.2
_symmetry_space_group_name_H-M    P1
_symmetry_Int_Tables_number       1
_space_group_crystal_system       triclinic
_cell_length_a                    6.950613
_cell_length_b                    14.448844
_cell_length_c                    16.172041
_cell_angle_alpha                 89.999972
_cell_angle_beta                  89.038517
_cell_angle_gamma                 89.99994
_cell_volume                      1623.9022811

loop_
_atom_site_label
_atom_site_type_symbol
_atom_type_description
_atom_site_fract_x
_atom_site_fract_y
_atom_site_fract_z
_atom_type_partial_charge
O1    O     O_R   0.611670 0.415650 0.164070 -0.501277
O2    O     O_R   0.388330 0.915650 0.835930 -0.501277
O3    O     O_R   0.940950 0.405490 0.337780 -0.529441
O4    O     O_R   0.059050 0.905490 0.662220 -0.529441
O5    O     O_R   0.111350 0.584350 0.338470 -0.554292
O6    O     O_R   0.888650 0.084350 0.661530 -0.554289
C1    C     C_R   0.771844 0.382642 0.366322 0.637041
C2    C     C_R   0.228157 0.882643 0.633677 0.637052
O7    O     O_R   0.941380 0.404630 0.164680 -0.546870
O8    O     O_R   0.058620 0.904630 0.835320 -0.546869
O9    O     O_R   0.111780 0.583470 0.164130 -0.537461
O10   O     O_R   0.888220 0.083470 0.835870 -0.537453
C3    C     C_R   0.774263 0.381496 0.136737 0.680696
C4    C     C_R   0.225737 0.881496 0.863263 0.680699
O11   O     O_R   0.611240 0.416530 0.338400 -0.529484
O12   O     O_R   0.388760 0.916530 0.661600 -0.529479
O13   O     O_3   0.778020 0.558680 0.251290 -0.362701
O14   O     O_3   0.221980 0.058680 0.748710 -0.362716
V1    V     V_3+5 0.052840 0.489110 0.251260 1.540516
V2    V     V_3+5 0.947160 0.989110 0.748740 1.540516
O15   O     O_R   0.441500 0.594510 0.164760 -0.511566
O16   O     O_R   0.558500 0.094510 0.835240 -0.511593
C5    C     C_R   0.275703 0.618111 0.136485 0.748942
C6    C     C_R   0.724298 0.118111 0.863515 0.748927
O17   O     O_R   0.441080 0.595370 0.337860 -0.518071
O18   O     O_R   0.558920 0.095370 0.662140 -0.518076
C7    C     C_R   0.271221 0.619390 0.365525 0.686662
C8    C     C_R   0.728779 0.119389 0.634474 0.686659
V3    V     V_3+5 0.552850 0.510890 0.251270 1.588801
V4    V     V_3+5 0.447150 0.010890 0.748730 1.588771
O19   O     O_3   0.277800 0.441320 0.251250 -0.342908
O20   O     O_3   0.722200 0.941320 0.748750 -0.342903
C9    C     C_3   0.053558 0.693607 0.474755 -0.434797
C10   C     C_3   0.946445 0.193608 0.525245 -0.434799
H1    H     H_    0.947742 0.717402 0.429116 0.207606
H2    H     H_    0.052253 0.217406 0.570885 0.207619
H3    H     H_    0.009363 0.621649 0.491191 0.150614
H4    H     H_    0.990647 0.121650 0.508811 0.150614
C11   C     C_3   0.042995 0.758339 0.551762 -0.135263
C12   C     C_3   0.957007 0.258339 0.448237 -0.135257
H5    H     H_    0.926379 0.809672 0.540714 0.182004
H6    H     H_    0.073623 0.309672 0.459285 0.182007
H7    H     H_    0.131025 0.901120 0.466233 0.111305
H8    H     H_    0.868975 0.401117 0.533766 0.111306
C13   C     C_3   0.307166 0.794734 0.402513 -0.012155
C14   C     C_3   0.692829 0.294733 0.597484 -0.012143
C15   C     C_3   0.395846 0.664747 0.505673 -0.280017
C16   C     C_3   0.604161 0.164743 0.494324 -0.280002
C17   C     C_3   0.259511 0.692627 0.434391 -0.024933
C18   C     C_3   0.740489 0.192625 0.565607 -0.024937
H9    H     H_    0.543282 0.648529 0.482975 0.178475
H10   H     H_    0.456727 0.148520 0.517019 0.178479
H11   H     H_    0.338244 0.599634 0.532688 0.195160
H12   H     H_    0.661772 0.099632 0.467307 0.195157
C19   C     C_3   0.238550 0.812522 0.562156 -0.090126
C20   C     C_3   0.761452 0.312520 0.437842 -0.090129
C21   C     C_3   0.269861 0.864806 0.477298 -0.149492
C22   C     C_3   0.730139 0.364805 0.522700 -0.149494
C23   C     C_3   0.407068 0.741193 0.573058 -0.154922
C24   C     C_3   0.592935 0.241191 0.426940 -0.154920
H13   H     H_    0.545169 0.778148 0.562668 0.197407
H14   H     H_    0.454833 0.278145 0.437332 0.197407
H15   H     H_    0.989560 0.580865 0.769681 0.173454
H16   H     H_    0.010449 0.080866 0.230318 0.173455
C25   C     C_R   0.307022 0.934488 0.031270 -0.108040
C26   C     C_R   0.692978 0.434489 0.968731 -0.108043
C27   C     C_R   0.390255 0.962057 0.104852 -0.042852
C28   C     C_R   0.609748 0.462059 0.895148 -0.042861
C29   C     C_R   0.483137 0.897066 0.153103 -0.150463
C30   C     C_R   0.516875 0.397068 0.846894 -0.150417
C31   C     C_R   0.478316 0.803021 0.131827 -0.072871
C32   C     C_R   0.521702 0.303022 0.868168 -0.072886
C33   C     C_R   0.352163 0.772461 0.068548 0.056016
C34   C     C_R   0.647844 0.272462 0.931450 0.056027
C35   C     C_R   0.295712 0.839804 0.010115 0.064449
C36   C     C_R   0.704290 0.339805 0.989885 0.064465
C37   C     C_R   0.280951 0.679564 0.061440 -0.145293
C38   C     C_R   0.719051 0.179565 0.938560 -0.145295
C39   C     C_R   0.204941 0.649900 0.983530 0.080606
C40   C     C_R   0.795059 0.149900 0.016469 0.080618
C41   C     C_R   0.181988 0.717824 0.919189 0.042694
C42   C     C_R   0.818012 0.217825 0.080810 0.042696
C43   C     C_R   0.230667 0.812122 0.932113 -0.171301
C44   C     C_R   0.769333 0.312122 0.067887 -0.171302
C45   C     C_R   0.155687 0.555164 0.964240 -0.032788
C46   C     C_R   0.844312 0.055164 0.035759 -0.032786
C47   C     C_R   0.076770 0.533554 0.887564 -0.216243
C48   C     C_R   0.923231 0.033555 0.112435 -0.216249
C49   C     C_R   0.050905 0.600326 0.828051 -0.049932
C50   C     C_R   0.949099 0.100326 0.171948 -0.049921
C51   C     C_R   0.106793 0.690666 0.842490 -0.125246
C52   C     C_R   0.893210 0.190667 0.157510 -0.125246
H17   H     H_    0.253092 0.987909 0.990825 0.125009
H18   H     H_    0.746904 0.487910 0.009177 0.125020
H19   H     H_    0.399473 0.034889 0.120059 0.152096
H20   H     H_    0.600527 0.534892 0.879942 0.152096
H21   H     H_    0.575376 0.921641 0.201701 0.130817
H22   H     H_    0.424641 0.421642 0.798293 0.130816
H23   H     H_    0.040004 0.462731 0.872107 0.137883
H24   H     H_    0.959998 0.962731 0.127893 0.137873
H25   H     H_    0.088654 0.739347 0.792726 0.127028
H26   H     H_    0.911351 0.239347 0.207273 0.127032
C53   C     C_2   0.511252 0.805747 0.367009 0.342070
H27   H     H_    0.552310 0.871059 0.338761 0.104411
O21   O     O_2   0.631951 0.744893 0.369461 -0.569181
C54   C     C_2   0.488738 0.305743 0.632982 0.342051
H28   H     H_    0.447676 0.371053 0.661233 0.104410
O22   O     O_2   0.368041 0.244890 0.630522 -0.569190
C55   C     C_2   0.411773 0.944252 0.480157 0.317927
H29   H     H_    0.369208 0.010648 0.455328 0.084564
O23   O     O_2   0.574656 0.933848 0.505737 -0.550149
C56   C     C_2   0.588230 0.444252 0.519839 0.317955
H30   H     H_    0.630804 0.510650 0.544660 0.084552
O24   O     O_2   0.425342 0.433847 0.494265 -0.550149
C57   C     C_2   0.650724 0.749717 0.155035 0.403115
H31   H     H_    0.720099 0.762862 0.213367 0.061478
O25   O     O_2   0.726933 0.696274 0.105943 -0.522859
C58   C     C_2   0.349311 0.249714 0.844949 0.403070
H32   H     H_    0.280019 0.262818 0.786590 0.061521
O26   O     O_2   0.273036 0.196306 0.894057 -0.522857
C59   C     C_2   0.191183 0.472220 0.015518 0.373371
H33   H     H_    0.091378 0.414811 0.013677 0.050861
O27   O     O_2   0.339852 0.461675 0.052700 -0.519786
C60   C     C_2   0.808818 0.972221 0.984481 0.373360
H34   H     H_    0.908624 0.914812 0.986323 0.050848
O28   O     O_2   0.660148 0.961676 0.947300 -0.519787
C61   C     C_2   0.983058 0.703611 0.627092 0.322470
H35   H     H_    0.055874 0.639518 0.641378 0.096613
O29   O     O_2   0.848616 0.729219 0.670827 -0.535754
C62   C     C_2   0.016944 0.203609 0.372908 0.322464
H36   H     H_    0.944131 0.139515 0.358623 0.096624
O30   O     O_2   0.151384 0.229218 0.329172 -0.535760
C63   C     C_2   0.175632 0.820114 0.331361 0.231192
H37   H     H_    0.093375 0.767584 0.299597 0.069982
O31   O     O_2   0.165690 0.899882 0.306628 -0.537734
C64   C     C_2   0.824353 0.320114 0.668639 0.231179
H38   H     H_    0.906603 0.267584 0.700407 0.069981
O32   O     O_2   0.834295 0.399882 0.693370 -0.537729
C65   C     C_2   0.420595 0.702041 0.660251 0.378344
H39   H     H_    0.426479 0.748633 0.712671 0.071090
O33   O     O_2   0.431579 0.618960 0.673403 -0.536499
C66   C     C_2   0.579405 0.202042 0.339746 0.378326
H40   H     H_    0.573500 0.248635 0.287328 0.071108
O34   O     O_2   0.568442 0.118961 0.326591 -0.536506

loop_
_geom_bond_atom_site_label_1
_geom_bond_atom_site_label_2
_ccdc_geom_bond_type
C26   C28   A    
O11   V3    S    
C19   C23   S    
O13   V3    S    
H16   C50   S    
O4    C2    A    
V1    O19   S    
C36   C44   A    
C56   O24   D    
C11   H5    S    
C16   H12   S    
C3    C44   S    
C13   C21   S    
C9    C11   S    
C34   C36   A    
C22   C56   S    
C1    C20   S    
O3    C1    A    
C55   O23   D    
C38   C40   A    
C25   C27   A    
C54   H28   S    
C9    C17   S    
C57   H31   S    
C31   C33   A    
C42   C52   A    
C24   H14   S    
C29   C31   A    
O7    C3    A    
C58   H32   S    
C40   C46   A    
C13   C53   S    
C24   C66   S    
O5    C7    A    
C8    C18   S    
O7    V1    S    
C11   C19   S    
O8    V2    S    
C57   O25   D    
O3    V1    S    
O14   V4    S    
C13   C17   S    
C49   C51   A    
C10   H2    S    
C52   H26   S    
C26   H18   S    
C16   C18   S    
C26   C36   A    
C2    O12   A    
C14   C22   S    
C27   H19   S    
C33   C35   A    
O10   V2    S    
C4    C43   S    
C51   H25   S    
C2    C19   S    
C56   H30   S    
C41   C43   A    
C14   C18   S    
C16   C24   S    
C47   H23   S    
C37   C39   A    
O17   V3    S    
C21   C55   S    
C23   H13   S    
C15   C23   S    
C11   C61   S    
C45   C47   A    
C40   C42   A    
O8    C4    A    
H8    C22   S    
C39   C41   A    
O13   V1    S    
C15   H9    S    
C1    O11   A    
C12   C20   S    
O15   V3    S    
C9    H3    S    
C20   C24   S    
C27   C29   A    
O4    V2    S    
C62   O30   D    
C61   O29   D    
C50   C52   A    
C23   C65   S    
O9    V1    S    
H15   C49   S    
O1    V3    S    
C31   C57   S    
C53   O21   D    
C28   H20   S    
C5    C37   S    
C45   C59   S    
C59   H33   S    
C48   H24   S    
C32   C34   A    
C48   C50   A    
O18   V4    S    
C42   C44   A    
C19   C21   S    
C46   C60   S    
C63   H37   S    
O16   C6    A    
O1    C3    A    
C61   H35   S    
C39   C45   A    
C66   O34   D    
C64   O32   D    
C60   O28   D    
V2    O20   S    
C6    C38   S    
C12   C62   S    
C33   C37   A    
O16   V4    S    
C10   H4    S    
C13   C63   S    
C64   H38   S    
C10   C18   S    
C65   H39   S    
O5    V1    S    
C15   C17   S    
O6    V2    S    
O10   C6    A    
O18   C8    A    
C25   C35   A    
C15   H11   S    
O2    V4    S    
O15   C5    A    
C62   H36   S    
V3    O19   S    
C55   H29   S    
V4    O20   S    
C65   O33   D    
C35   C43   A    
C54   O22   D    
C14   C54   S    
C46   C48   A    
O9    C5    A    
C25   H17   S    
C9    H1    S    
C20   C22   S    
O14   V2    S    
O2    C4    A    
C58   O26   D    
C59   O27   D    
H7    C21   S    
C14   C64   S    
C41   C51   A    
C30   H22   S    
O6    C8    A    
C16   H10   S    
C28   C30   A    
C34   C38   A    
C32   C58   S    
C53   H27   S    
C63   O31   D    
C47   C49   A    
C12   H6    S    
C66   H40   S    
C10   C12   S    
C30   C32   A    
O12   V4    S    
C7    C17   S    
C60   H34   S    
O17   C7    A    
C29   H21   S    
