data_mof_unit_14555.cif
_audit_creation_date              2012-12-10T19:01:23-0500
_audit_creation_method            fapswitch 2.2
_symmetry_space_group_name_H-M    P1
_symmetry_Int_Tables_number       1
_space_group_crystal_system       triclinic
_cell_length_a                    9.58348
_cell_length_b                    10.802381
_cell_length_c                    15.475702
_cell_angle_alpha                 89.665434
_cell_angle_beta                  74.461317
_cell_angle_gamma                 89.702017
_cell_volume                      1543.5179593

loop_
_atom_site_label
_atom_site_type_symbol
_atom_type_description
_atom_site_fract_x
_atom_site_fract_y
_atom_site_fract_z
_atom_type_partial_charge
C1    C     C_R   0.000856 0.262583 0.499064 0.800614
C2    C     C_R   0.671888 0.480849 0.906282 0.091609
C3    C     C_R   0.770352 0.438418 0.953999 0.167743
C4    C     C_R   0.521721 0.493114 0.951383 0.067300
C5    C     C_R   0.474382 0.472035 0.045705 0.066815
C6    C     C_R   0.576832 0.430124 0.090574 -0.223689
C7    C     C_R   0.721405 0.413103 0.045290 -0.242108
C8    C     C_R   0.416850 0.522447 0.904969 -0.221242
C9    C     C_R   0.271588 0.535910 0.949731 -0.242575
C10   C     C_R   0.224818 0.521960 0.042340 0.168159
C11   C     C_R   0.325562 0.491383 0.091612 0.090421
C12   C     C_R   0.918379 0.498485 0.672013 0.794893
C13   C     C_R   0.077716 0.539110 0.086329 -0.212259
C14   C     C_R   0.028964 0.527982 0.179158 -0.205481
C15   C     C_R   0.274028 0.484631 0.185535 -0.250442
C16   C     C_R   0.108021 0.063216 0.523899 0.120998
C17   C     C_R   0.006095 0.129515 0.492613 -0.087966
C18   C     C_R   0.915410 0.065915 0.450361 -0.214935
C19   C     C_R   0.916387 0.936716 0.449598 -0.228156
C20   C     C_R   0.005274 0.871038 0.492844 -0.087022
C21   C     C_R   0.106951 0.935747 0.524539 0.118276
C22   C     C_3   0.137377 0.928945 0.614246 -0.473087
C23   C     C_R   0.000456 0.737575 0.498897 0.791412
C24   C     C_3   0.139517 0.069439 0.613201 -0.476093
C25   C     C_R   0.570814 0.608651 0.503089 0.242265
C26   C     C_R   0.573263 0.392439 0.503280 -0.086480
C27   C     C_R   0.425265 0.392418 0.503120 -0.088342
C28   C     C_R   0.423324 0.608330 0.504176 0.205136
C29   C     C_3   0.439851 0.713420 0.439841 -0.474530
C30   C     C_3   0.599259 0.714907 0.437481 -0.106707
C31   C     C_R   0.081743 0.500366 0.327893 0.788651
C32   C     C_R   0.872862 0.486822 0.770041 -0.051729
C33   C     C_R   0.127436 0.502947 0.229383 -0.049388
C34   C     C_R   0.917163 0.420173 0.909584 -0.220238
C35   C     C_R   0.968096 0.443667 0.817999 -0.205036
C36   C     C_R   0.727601 0.508871 0.814721 -0.246896
Cu1   Cu    Cu3+1 0.140670 0.499980 0.500000 0.937084
Cu2   Cu    Cu3+1 0.859330 0.500020 0.500000 0.934853
H1    H     H_    0.795608 0.379667 0.082244 0.148318
H2    H     H_    0.000487 0.562847 0.048983 0.144438
H3    H     H_    0.842076 0.115601 0.419958 0.152562
H4    H     H_    0.846508 0.888930 0.416800 0.154064
H5    H     H_    0.045597 0.889424 0.666982 0.196842
H6    H     H_    0.244844 0.887176 0.610930 0.190945
H7    H     H_    0.049527 0.111816 0.665654 0.197956
H8    H     H_    0.248513 0.108432 0.608257 0.190957
H9    H     H_    0.626829 0.304664 0.504799 0.145424
H10   H     H_    0.371343 0.304702 0.504359 0.144333
H11   H     H_    0.416248 0.686227 0.375942 0.220624
H12   H     H_    0.346603 0.468622 0.226703 0.152267
H13   H     H_    0.381450 0.797594 0.471229 0.173478
H14   H     H_    0.628694 0.800596 0.467529 0.158758
H15   H     H_    0.915211 0.542142 0.211544 0.155524
H16   H     H_    0.195337 0.558583 0.911373 0.149569
H17   H     H_    0.992069 0.385148 0.945411 0.142998
H18   H     H_    0.080724 0.425174 0.784452 0.155243
H19   H     H_    0.660424 0.548270 0.775969 0.147533
H20   H     H_    0.548705 0.405600 0.160594 0.142074
H21   H     H_    0.442160 0.532737 0.833246 0.142851
N1    N     N_R   0.648210 0.500930 0.499430 -0.177703
N2    N     N_R   0.352300 0.500890 0.499430 -0.178320
O1    O     O_R   0.118810 0.319640 0.500000 -0.587765
O2    O     O_R   0.881230 0.319680 0.499990 -0.590928
O3    O     O_R   0.055580 0.499970 0.629840 -0.579748
O4    O     O_R   0.818000 0.500010 0.629830 -0.578690
O5    O     O_R   0.118770 0.680320 0.500010 -0.577582
O6    O     O_R   0.881190 0.680360 0.500000 -0.586476
O7    O     O_R   0.182000 0.499990 0.370170 -0.581075
O8    O     O_R   0.944420 0.500030 0.370160 -0.583414
C37   C     C_3   0.698085 0.685353 0.344432 -0.778918
H22   H     H_    0.812853 0.691180 0.345402 0.248700
H23   H     H_    0.675538 0.591725 0.322074 0.235565
H24   H     H_    0.680560 0.754874 0.295216 0.217769

loop_
_geom_bond_atom_site_label_1
_geom_bond_atom_site_label_2
_ccdc_geom_bond_type
C27   H10   S    
C8    C9    A    
C16   C21   A    
C6    H20   S    
C19   C20   A    
C4    C8    A    
C1    O1    A    
C14   C33   A    
Cu1   O1    S    
C29   H11   S    
C25   C28   A    
C26   C27   A    
C29   C30   S    
C24   H7    S    
C32   C36   A    
C23   O5    A    
C28   C29   S    
C5    C11   A    
C3    C7    A    
C8    H21   S    
C5    C6    A    
C12   O3    A    
Cu1   O7    S    
C34   C35   A    
C15   H12   S    
C23   O6    A    
C13   H2    S    
C27   N2    A    
C11   C15   A    
C22   H6    S    
C16   C17   A    
C31   C33   S    
C37   H22   S    
C25   N1    A    
C9    C10   A    
C19   H4    S    
C28   N2    A    
Cu2   O8    S    
C34   H17   S    
C16   C24   S    
C13   C14   A    
C12   C32   S    
C1    O2    A    
C30   C37   S    
C31   O7    A    
C32   C35   A    
C36   H19   S    
C18   H3    S    
C18   C19   A    
C3    C34   A    
C20   C23   S    
C2    C4    A    
Cu1   Cu2   S    
C22   H5    S    
Cu2   O4    S    
Cu1   O5    S    
C37   H24   S    
C17   C18   A    
Cu2   O6    S    
C26   H9    S    
Cu2   N1    S    
C22   C24   S    
Cu1   O3    S    
Cu2   O2    S    
C29   H13   S    
C2    C36   A    
C25   C30   S    
C30   H14   S    
C35   H18   S    
C4    C5    A    
C10   C13   A    
Cu1   N2    S    
C6    C7    A    
C12   O4    A    
C1    C17   S    
C24   H8    S    
C2    C3    A    
C10   C11   A    
C31   O8    A    
C14   H15   S    
C20   C21   A    
C7    H1    S    
C37   H23   S    
C9    H16   S    
C21   C22   S    
C26   N1    A    
C15   C33   A    
