data_mof_unit_66836.cif
_audit_creation_date              2013-03-05T15:42:03-0500
_audit_creation_method            fapswitch 2.2
_symmetry_space_group_name_H-M    P1
_symmetry_Int_Tables_number       1
_space_group_crystal_system       triclinic
_cell_length_a                    8.826489
_cell_length_b                    16.33446
_cell_length_c                    17.328111
_cell_angle_alpha                 111.332295
_cell_angle_beta                  97.871839
_cell_angle_gamma                 79.26426
_cell_volume                      2279.85259733

loop_
_atom_site_label
_atom_site_type_symbol
_atom_site_description
_atom_site_fract_x
_atom_site_fract_y
_atom_site_fract_z
_atom_type_partial_charge
P1    P     P_3+3 0.589930 0.617420 0.700180 0.635773
O1    O     O_2   0.426270 0.593440 0.713420 -0.270685
O2    O     O_3   0.647730 0.570260 0.604850 -0.343650
O3    O     O_3   0.203920 0.417520 0.657950 -0.301097
O4    O     O_2   0.309206 0.526746 0.800997 -0.345256
O5    O     O_3   0.536926 0.735986 0.735731 -0.513268
O6    O     O_3   0.284187 0.374861 0.808614 -0.503688
H1    H     H_    0.320246 0.285277 0.690693 0.178335
C1    C     C_3   0.346831 0.219934 0.779965 0.304191
H2    H     H_    0.450328 0.243425 0.819748 0.154474
P2    P     P_3+3 0.161520 0.277720 0.428790 0.661538
P3    P     P_3+3 0.669245 0.245308 0.593434 0.483813
O7    O     O_2   0.343970 0.269780 0.454840 -0.329205
O8    O     O_3   0.615710 0.361880 0.613490 -0.387711
O9    O     O_2   0.518931 0.205541 0.557377 -0.308727
O10   O     O_3   0.172368 0.231329 0.317327 -0.494905
O11   O     O_3   0.702868 0.218976 0.684642 -0.576719
C2    C     C_3   0.727721 0.293858 0.753106 0.973151
H3    H     H_    0.820469 0.323732 0.738932 -0.117183
C3    C     C_3   0.785083 0.268940 0.832041 1.070895
C4    C     C_3   0.684861 0.185567 0.271373 0.828055
C5    C     C_3   0.702632 0.087475 0.191842 0.379156
Ba1   Ba    Ba6+2 0.364960 0.465930 0.541880 0.781287
C6    C     C_3   0.523102 0.784402 0.680616 1.145557
C7    C     C_3   0.628214 0.860081 0.718385 0.171187
H4    H     H_    0.744819 0.830169 0.713802 0.096470
C8    C     C_3   0.136381 0.287309 0.266537 1.083304
C9    C     C_3   0.018543 0.246189 0.190950 0.242139
H5    H     H_    0.910873 0.250174 0.215346 0.145180
P4    P     P_3+3 0.599780 0.382500 0.299810 0.638713
O12   O     O_2   0.763420 0.406520 0.286530 -0.245360
O13   O     O_3   0.541980 0.429670 0.395140 -0.405936
O14   O     O_3   0.985790 0.582400 0.342040 -0.242022
O15   O     O_3   0.646088 0.261354 0.243946 -0.529378
P5    P     P_3+3 0.510240 0.757050 0.405852 0.617393
O16   O     O_3   0.119470 0.618230 0.545790 -0.228003
O17   O     O_3   0.574000 0.638040 0.386500 -0.197519
O18   O     O_2   0.631903 0.801386 0.473203 -0.302455
O19   O     O_3   0.567922 0.778180 0.322471 -0.495293
Ba2   Ba    Ba6+2 0.824870 0.533990 0.458110 1.740508
P6    P     P_3+3 0.199775 0.456683 0.768022 0.557271
C10   C     C_3   0.264680 0.292806 0.747317 0.226910
H6    H     H_    0.139820 0.286047 0.731126 0.036083
O20   O     O_3   0.070240 0.381690 0.454200 -0.346450
C11   C     C_3   0.040955 0.793149 0.751373 1.068860
C12   C     C_3   0.990680 0.885806 0.823173 -0.446721
H7    H     H_    0.924134 0.932883 0.793921 0.192334
H8    H     H_    0.906694 0.879309 0.861581 0.239776
P7    P     P_3+3 0.027156 0.740043 0.570870 0.734021
O21   O     O_2   0.845720 0.730180 0.545110 -0.218607
O22   O     O_3   0.013947 0.813726 0.676633 -0.579203
H9    H     H_    0.901238 0.290670 0.852415 -0.742051
C13   C     C_3   0.444414 0.782219 0.262042 0.568244
H10   H     H_    0.329557 0.790186 0.285403 0.087790
C14   C     C_3   0.448626 0.862342 0.237267 0.138772
H11   H     H_    0.473738 0.918809 0.294432 0.188318
H12   H     H_    0.547097 0.847498 0.198196 0.084316
P8    P     P_3+3 0.988987 0.549440 0.230220 0.646634
C15   C     C_3   0.974407 0.671306 0.162537 0.087788
H13   H     H_    0.948492 0.634890 0.096030 0.030377
O23   O     O_2   0.866741 0.486140 0.196754 -0.278210
O24   O     O_3   0.888674 0.643377 0.208575 -0.435047
H14   H     H_    0.100649 0.660991 0.179004 0.158252
C16   C     C_3   0.921708 0.770156 0.176081 0.743232
H15   H     H_    0.795829 0.778932 0.156272 -0.062482
C17   C     C_2   0.315939 0.485101 0.225121 -0.003881
C18   C     C_R   0.899878 0.540740 0.752857 0.039982
C19   C     C_2   0.453775 0.364728 0.122521 0.324971
C20   C     C_2   0.454048 0.413406 0.207025 0.210176
C21   C     C_2   0.181175 0.491050 0.176801 0.024368
C22   C     C_3   0.212344 0.473489 0.087258 0.072832
C23   C     C_3   0.335174 0.392176 0.057281 0.127848
C24   C     C_2   0.087300 0.483594 0.017995 -0.263291
C25   C     C_2   0.105237 0.521755 0.961110 0.430861
C26   C     C_R   0.837577 0.585735 0.918172 -0.256198
C27   C     C_R   0.980422 0.534555 0.894049 -0.152980
C28   C     C_R   0.721815 0.611772 0.861773 0.528345
C29   C     C_R   0.747709 0.583777 0.776207 0.083331
C30   C     C_R   0.010763 0.513620 0.809442 0.157968
H16   H     H_    0.982222 0.457977 0.014229 0.150396
C31   C     C_R   0.198440 0.785131 0.459574 0.091165
C32   C     C_R   0.312791 0.826484 0.447580 0.054224
C33   C     C_R   0.272546 0.918545 0.466336 -0.156921
C34   C     C_R   0.129507 0.965478 0.502136 0.076386
C35   C     C_R   0.064368 0.918253 0.546219 0.444405
C36   C     C_R   0.094079 0.821701 0.520672 0.109491
C37   C     C_R   0.899432 0.094607 0.514044 0.330324
C38   C     C_R   0.844226 0.187402 0.532474 -0.092869
C39   C     C_R   0.075390 0.206680 0.478667 0.149070
C40   C     C_R   0.133105 0.114822 0.467969 0.259518
C41   C     C_R   0.057542 0.060906 0.497995 -0.092339
C42   C     C_R   0.934902 0.241817 0.516819 0.212342
H17   H     H_    0.354654 0.949634 0.451700 0.195792
N1    N     N_R   0.783587 0.091304 0.124838 0.249552
O25   O     O_R   0.832994 0.017359 0.066799 -0.281072
O26   O     O_R   0.757076 0.161954 0.105534 -0.366488
N2    N     N_R   0.792813 0.013936 0.218105 0.231574
O27   O     O_R   0.936541 0.985207 0.201256 -0.200898
O28   O     O_R   0.725596 0.966022 0.244703 -0.421291
N3    N     N_R   0.552929 0.058382 0.152653 0.191317
O29   O     O_R   0.471383 0.026828 0.189264 -0.406236
O30   O     O_R   0.513108 0.047917 0.074709 -0.337467
O31   O     O_3   0.364952 0.821627 0.669187 -0.709268
C43   C     C_3   0.314219 0.896133 0.737291 0.019322
H18   H     H_    0.357165 0.956309 0.739730 0.187138
H19   H     H_    0.344695 0.883527 0.796364 0.192500
H20   H     H_    0.189277 0.912112 0.728837 0.184275
O32   O     O_3   0.577200 0.728338 0.602775 -0.709547
C44   C     C_3   0.461847 0.679370 0.552677 1.404205
H21   H     H_    0.383712 0.661059 0.586722 -0.482124
H22   H     H_    0.512316 0.618839 0.504588 -1.231915
H23   H     H_    0.395450 0.719329 0.522707 -0.154202
N4    N     N_R   0.613987 0.911486 0.807567 0.187252
O33   O     O_R   0.629657 0.871023 0.861138 -0.347675
O34   O     O_R   0.598687 0.997920 0.835079 -0.340138
N5    N     N_R   0.614826 0.918602 0.670641 0.253278
O35   O     O_R   0.730457 0.960255 0.678075 -0.333574
O36   O     O_R   0.502575 0.921447 0.614223 -0.395465
O37   O     O_3   0.272648 0.295072 0.235075 -0.747641
C45   C     C_3   0.335685 0.214427 0.178542 -0.045360
H24   H     H_    0.278332 0.199723 0.115929 0.180651
H25   H     H_    0.338809 0.162418 0.204121 0.230840
H26   H     H_    0.447747 0.216868 0.163969 0.200486
O38   O     O_3   0.063175 0.373139 0.311612 -0.657621
C46   C     C_3   0.172355 0.430041 0.355347 0.335296
H27   H     H_    0.282526 0.396090 0.375723 0.115063
H28   H     H_    0.124789 0.484565 0.409619 0.204558
H29   H     H_    0.189623 0.462146 0.317061 0.061502
N6    N     N_R   0.398138 0.139812 0.711437 0.233981
O39   O     O_R   0.541102 0.103903 0.715717 -0.270082
O40   O     O_R   0.319394 0.119030 0.639578 -0.469992
N7    N     N_R   0.064463 0.151196 0.143848 0.204571
O41   O     O_R   0.104473 0.094523 0.182315 -0.283743
O42   O     O_R   0.060366 0.121932 0.062954 -0.274518
N8    N     N_R   0.981190 0.297610 0.135201 0.244748
O43   O     O_R   0.085399 0.308613 0.095184 -0.451887
O44   O     O_R   0.837090 0.322395 0.116492 -0.330371
N9    N     N_R   0.249427 0.201407 0.831454 0.204630
O45   O     O_R   0.184889 0.267199 0.891846 -0.389173
O46   O     O_R   0.265633 0.121794 0.834171 -0.380783
N10   N     N_R   0.938986 0.731759 0.749722 0.171590
O47   O     O_R   0.907883 0.726049 0.818667 -0.503178
O48   O     O_R   0.858560 0.694062 0.681556 -0.355173
O49   O     O_3   0.197775 0.755159 0.760189 -0.613522
C47   C     C_3   0.242765 0.747016 0.839153 0.076520
H30   H     H_    0.291308 0.678477 0.831491 0.248472
H31   H     H_    0.149736 0.763823 0.881444 0.118773
H32   H     H_    0.335312 0.788007 0.870526 0.177728
N11   N     N_R   0.112179 0.930118 0.881315 0.261477
O50   O     O_R   0.144158 0.002545 0.876618 -0.352006
O51   O     O_R   0.137052 0.921461 0.953841 -0.380566
N12   N     N_R   0.462468 0.701939 0.188072 0.228979
O52   O     O_R   0.347018 0.684300 0.132615 -0.407720
O53   O     O_R   0.584175 0.641973 0.182247 -0.298214
O54   O     O_3   0.302553 0.888042 0.200803 -0.521550
C48   C     C_3   0.305373 0.872676 0.115361 0.320782
H33   H     H_    0.271869 0.806987 0.078093 0.115096
H34   H     H_    0.417212 0.878006 0.096204 0.067656
H35   H     H_    0.217345 0.923257 0.099900 0.225857
O55   O     O_3   0.012951 0.797615 0.131207 -0.598801
C49   C     C_3   0.932306 0.803658 0.056919 -0.104162
H36   H     H_    0.819428 0.848002 0.068356 0.188487
H37   H     H_    0.917096 0.736883 0.012480 0.132015
H38   H     H_    0.001878 0.832594 0.027665 0.219487
N13   N     N_R   0.940719 0.823398 0.264444 0.291982
O56   O     O_R   0.050806 0.872111 0.292750 -0.281919
O57   O     O_R   0.840991 0.827302 0.314823 -0.304571
O58   O     O_3   0.585152 0.350171 0.766014 -0.626088
C50   C     C_3   0.609347 0.438013 0.806859 0.125319
H39   H     H_    0.730839 0.445767 0.829085 -0.106265
H40   H     H_    0.542186 0.467387 0.862290 0.225138
H41   H     H_    0.569900 0.473219 0.762929 0.188253
O59   O     O_3   0.557389 0.287115 0.093318 -0.570071
C51   C     C_3   0.505689 0.230456 0.013372 0.098998
H42   H     H_    0.511401 0.258898 0.965095 0.145650
H43   H     H_    0.386446 0.217104 0.012262 0.151392
H44   H     H_    0.579225 0.164917 0.994610 0.215024
O60   O     O_3   0.579898 0.662300 0.886397 -0.606657
C52   C     C_3   0.565563 0.688215 0.972373 -0.087228
H45   H     H_    0.650516 0.732505 0.008955 0.105935
H46   H     H_    0.575627 0.629661 0.992006 0.200388
H47   H     H_    0.449848 0.726801 0.985692 0.168543
N14   N     N_R   0.337487 0.559050 0.292027 0.256094
O61   O     O_R   0.355982 0.627635 0.276120 -0.381536
O62   O     O_R   0.391615 0.547499 0.360568 -0.352913
N15   N     N_R   0.956646 0.540317 0.678748 0.295588
O63   O     O_R   0.080165 0.575350 0.683046 -0.256218
O64   O     O_R   0.910499 0.488987 0.607029 -0.288342
N16   N     N_R   0.240478 0.562482 0.970469 0.275687
O65   O     O_R   0.377260 0.523483 0.986494 -0.393242
O66   O     O_R   0.226475 0.638581 0.960241 -0.436429
O67   O     O_3   0.795568 0.034191 0.479789 -0.637660
C53   C     C_3   0.714208 0.024992 0.539669 0.282513
H48   H     H_    0.589912 0.044229 0.529150 0.182250
H49   H     H_    0.748792 0.063693 0.604553 0.188483
H50   H     H_    0.729319 0.953565 0.531033 0.190092
N17   N     N_R   0.251325 0.073231 0.413372 0.236813
O68   O     O_R   0.392720 0.081016 0.441276 -0.463666
O69   O     O_R   0.217799 0.033404 0.334672 -0.232504
O70   O     O_3   0.981322 0.962676 0.615377 -0.619027
C54   C     C_3   0.049161 0.035627 0.671953 -0.087019
H51   H     H_    0.999414 0.098290 0.661395 0.131749
H52   H     H_    0.176319 0.025183 0.671329 0.176018
H53   H     H_    0.022393 0.044548 0.735272 0.223326
O71   O     O_3   0.889512 0.331967 0.543727 -0.619262
C55   C     C_3   0.764746 0.355480 0.491673 0.396912
H54   H     H_    0.689441 0.414869 0.527019 0.184906
H55   H     H_    0.692239 0.302892 0.456783 0.038608
H56   H     H_    0.805557 0.383211 0.452258 0.188519
N18   N     N_R   0.180055 0.705098 0.402413 0.253154
O72   O     O_R   0.188144 0.641172 0.429630 -0.384310
O73   O     O_R   0.098577 0.707079 0.335267 -0.361834
O74   O     O_3   0.675444 0.310834 0.893015 -0.688462
C56   C     C_3   0.738450 0.371968 0.965185 -0.116855
H57   H     H_    0.658474 0.391357 0.014899 0.229484
H58   H     H_    0.748667 0.433444 0.954805 0.129240
H59   H     H_    0.852227 0.342558 0.986783 0.228951
O75   O     O_3   0.801255 0.175831 0.811718 -0.640241
C57   C     C_3   0.864765 0.152410 0.881457 0.177198
H60   H     H_    0.794069 0.185675 0.935598 0.140155
H61   H     H_    0.985198 0.166751 0.899133 0.214521
H62   H     H_    0.865354 0.080530 0.865332 0.180702
N19   N     N_R   0.831882 0.195915 0.320966 0.133126
O76   O     O_R   0.934540 0.129391 0.324626 -0.414394
O77   O     O_R   0.876812 0.271838 0.343947 -0.481935
O78   O     O_3   0.566396 0.192038 0.320942 -0.677830
C58   C     C_3   0.598478 0.129749 0.361354 -0.004552
H63   H     H_    0.718776 0.097994 0.365538 0.159060
H64   H     H_    0.522995 0.078485 0.333168 0.251532
H65   H     H_    0.574548 0.165182 0.425035 0.218589

loop_
_geom_bond_atom_site_label_1
_geom_bond_atom_site_label_2
_geom_bond_distance
_ccdc_geom_bond_type
P8    O24   1.760863 S    
C17   N14   1.358550 S    
O14   P8    1.815324 S    
C3    O74   1.424237 S    
C37   C41   1.427121 A    
C9    N8    1.465371 S    
C50   H40   1.104035 S    
C24   C25   1.382659 D    
O2    Ba1   3.132083 S    
N19   O76   1.293606 A    
C27   C30   1.430628 A    
C26   C27   1.400262 A    
C47   H32   1.108352 S    
C43   H19   1.104474 S    
C47   H30   1.087804 S    
O75   C57   1.411327 S    
N8    O43   1.298507 A    
C40   N17   1.408570 S    
C17   C21   1.367016 D    
C28   C29   1.421385 A    
N5    O35   1.296177 A    
C14   O54   1.416328 S    
C4    O78   1.407507 S    
C1    N9    1.459540 S    
C15   C16   1.533931 S    
N13   O56   1.300552 A    
C25   C27   1.532334 S    
C33   C34   1.440298 A    
C8    C9    1.579728 S    
C48   H33   1.103429 S    
P5    O17   1.837938 S    
H1    C10   1.113530 S    
C2    H3    1.122375 S    
O17   Ba2   2.951475 S    
P1    O2    1.655607 S    
N11   O51   1.299915 A    
P4    O12   1.631242 D    
C55   H55   1.110841 S    
C17   C20   1.503824 S    
O3    P6    1.780791 S    
C11   O22   1.431572 S    
Ba1   Ba2   4.928601 S    
C25   N16   1.434623 S    
O32   C44   1.409319 S    
O7    Ba1   3.033734 S    
N16   O66   1.299556 A    
P1    O1    1.630869 D    
C5    N1    1.469455 S    
O6    C10   1.397997 S    
P7    O21   1.624139 D    
C51   H42   1.105096 S    
C39   C42   1.409763 A    
C42   O71   1.370450 S    
C44   H22   1.099344 S    
N2    O28   1.298963 A    
O12   Ba2   2.990698 S    
N18   O72   1.280292 A    
C38   C42   1.415673 A    
C13   H10   1.110618 S    
O70   C54   1.412342 S    
P7    O22   1.795079 S    
C58   H65   1.072794 S    
P3    O11   1.757677 S    
C46   H29   1.024191 S    
C13   N12   1.463946 S    
C21   C22   1.526156 S    
C6    O32   1.414500 S    
C34   C41   1.593229 S    
N17   O68   1.287097 A    
C1    H2    1.105717 S    
C2    C3    1.559310 S    
C31   C36   1.388600 A    
C45   H26   1.064960 S    
C52   H47   1.101170 S    
O10   C8    1.453386 S    
O6    P6    1.733650 S    
C31   N18   1.345121 S    
C15   H13   1.101818 S    
N13   O57   1.300036 A    
C5    N2    1.491939 S    
O59   C51   1.426630 S    
C4    C5    1.688244 S    
C11   N10   1.457655 S    
P1    C29   1.927702 S    
C54   H52   1.104333 S    
N1    O25   1.304089 A    
C18   C29   1.432483 A    
C43   H18   1.102660 S    
C49   H37   1.102646 S    
P5    C32   1.964328 S    
C45   H25   1.086660 S    
N2    O27   1.301853 A    
C13   C14   1.526380 S    
C12   H8    1.104352 S    
O54   C48   1.411759 S    
O14   Ba2   3.007654 S    
C5    N3    1.478619 S    
C47   H31   1.105036 S    
P1    O5    1.795150 S    
C11   O49   1.419639 S    
O60   C52   1.409824 S    
O16   Ba2   3.113372 S    
P5    O18   1.539867 D    
C18   C30   1.416745 A    
C6    C7    1.577834 S    
C7    N5    1.455569 S    
C57   H60   1.108113 S    
C22   C24   1.548972 S    
O3    Ba1   3.008304 S    
P4    O15   1.852932 S    
C56   H57   1.107019 S    
C19   C20   1.388904 D    
C4    O15   1.449524 S    
C53   H49   1.103477 S    
C7    H4    1.054102 S    
C35   C36   1.456653 A    
C32   C33   1.403620 A    
C31   C32   1.389886 A    
Ba1   O20   3.114274 S    
C9    N7    1.474107 S    
N10   O48   1.297035 A    
O8    Ba1   2.950854 S    
P5    O19   1.759451 S    
N14   O61   1.289507 A    
C16   N13   1.464277 S    
C7    N4    1.476053 S    
C57   H61   1.109074 S    
N14   O62   1.283929 A    
P2    O10   1.809050 S    
P2    C39   1.977302 S    
C35   O70   1.381927 S    
C58   H63   1.096734 S    
P3    O9    1.539905 D    
O74   C56   1.406480 S    
C19   C23   1.563527 S    
C53   H50   1.105399 S    
O5    C6    1.426221 S    
P4    C20   2.067972 S    
C16   O55   1.419251 S    
C14   H11   1.110129 S    
N3    O30   1.304343 A    
O11   C2    1.387297 S    
C1    C10   1.522737 S    
P4    Ba2   3.604869 S    
P2    O20   1.664497 S    
O78   C58   1.400898 S    
C50   H39   1.102852 S    
C34   C35   1.491087 A    
N17   O69   1.298548 A    
N1    O26   1.287335 A    
C26   C28   1.430712 A    
C51   H44   1.103971 S    
C8    O38   1.413220 S    
N9    O46   1.298915 A    
N15   O63   1.304155 A    
O71   C55   1.412895 S    
O58   C50   1.392577 S    
C58   H64   1.097623 S    
P3    O8    1.788337 S    
O2    Ba2   2.984783 S    
Ba1   O16   2.966113 S    
C8    O37   1.430611 S    
C14   H12   1.111667 S    
C46   H27   1.106945 S    
C54   H53   1.105777 S    
C44   H23   1.029524 S    
C10   H6    1.115163 S    
N15   O64   1.282110 A    
O1    Ba1   2.990226 S    
C49   H38   1.106873 S    
C45   H24   1.093787 S    
N4    O33   1.301855 A    
N8    O44   1.295151 A    
O4    P6    1.534290 D    
C12   H7    1.107703 S    
C9    H5    1.073822 S    
C15   O24   1.405676 S    
C2    O58   1.405639 S    
C4    N19   1.456577 S    
C55   H54   1.094078 S    
C3    O75   1.414454 S    
P7    C36   2.040355 S    
C48   H35   1.105875 S    
P8    C21   1.956803 S    
N12   O53   1.299758 A    
O49   C47   1.418284 S    
C56   H59   1.107916 S    
P6    C30   1.851390 S    
O37   C45   1.393493 S    
N19   O77   1.278477 A    
P1    Ba1   3.604260 S    
C1    N6    1.457331 S    
C15   H14   1.108767 S    
C28   O60   1.391881 S    
C54   H51   1.104875 S    
C6    O31   1.432897 S    
O67   C53   1.404510 S    
N18   O73   1.289005 A    
C48   H34   1.111318 S    
N6    O39   1.293101 A    
C22   C23   1.524854 S    
C3    H9    1.116697 S    
C49   H36   1.112376 S    
N10   O47   1.300683 A    
Ba1   O13   2.984178 S    
C57   H62   1.102766 S    
P4    O13   1.655615 S    
P2    O7    1.606117 D    
C55   H56   1.074545 S    
C40   C41   1.462336 A    
O19   C13   1.414215 S    
P8    O23   1.541952 D    
Ba2   O21   3.034007 S    
C16   H15   1.115723 S    
P2    Ba1   3.636702 S    
N3    O29   1.298996 A    
C50   H41   1.096669 S    
C24   H16   1.071315 S    
N5    O36   1.300040 A    
C19   O59   1.388439 S    
N7    O41   1.299481 A    
C56   H58   1.103835 S    
O13   Ba2   3.132891 S    
N16   O65   1.300322 A    
O55   C49   1.410237 S    
C51   H43   1.110223 S    
C18   N15   1.438304 S    
N9    O45   1.300587 A    
C52   H45   1.107117 S    
C11   C12   1.602040 S    
N6    O40   1.300798 A    
Ba2   O20   2.965502 S    
C12   N11   1.466860 S    
N12   O52   1.297913 A    
C37   C38   1.432555 A    
N7    O42   1.303736 A    
C53   H48   1.092721 S    
C44   H21   1.108953 S    
O31   C43   1.403959 S    
C46   H28   1.101518 S    
O38   C46   1.409991 S    
C52   H46   1.111400 S    
C39   C40   1.443595 A    
N11   O50   1.298714 A    
C43   H20   1.087233 S    
P3    C38   1.889855 S    
O16   P7    1.917222 S    
C37   O67   1.388704 S    
N4    O34   1.302214 A    
C33   H17   1.062359 S    
