data_mof_unit_26282.cif
_audit_creation_date              2012-12-11T15:34:03-0500
_audit_creation_method            fapswitch 2.2
_symmetry_space_group_name_H-M    P1
_symmetry_Int_Tables_number       1
_space_group_crystal_system       triclinic
_cell_length_a                    15.049059
_cell_length_b                    15.048809
_cell_length_c                    34.983932
_cell_angle_alpha                 90.565653
_cell_angle_beta                  90.076377
_cell_angle_gamma                 59.981632
_cell_volume                      6859.70411077

loop_
_atom_site_label
_atom_site_type_symbol
_atom_type_description
_atom_site_fract_x
_atom_site_fract_y
_atom_site_fract_z
_atom_type_partial_charge
C1    C     C_R   0.303195 0.608289 0.555897 0.538062
C2    C     C_R   0.205228 0.729350 0.393701 -0.153084
C3    C     C_R   0.774110 0.087038 0.273910 -0.141907
C4    C     C_R   0.778277 0.080311 0.234057 -0.085065
C5    C     C_R   0.688276 0.134916 0.212407 0.046461
C6    C     C_R   0.735203 0.193595 0.352438 -0.119321
C7    C     C_R   0.712298 0.232726 0.389651 -0.131540
C8    C     C_R   0.571709 0.197553 0.391931 -0.125838
C9    C     C_R   0.706498 0.555536 0.656003 -0.190262
C10   C     C_R   0.594770 0.158364 0.354823 -0.130294
C11   C     C_R   0.673405 0.160810 0.334235 0.030007
C12   C     C_R   0.627211 0.239540 0.408973 0.021122
C13   C     C_R   0.173108 0.744994 0.355611 0.264530
C14   C     C_R   0.077930 0.711374 0.095419 0.042818
C15   C     C_R   0.065956 0.637416 0.115476 -0.167105
C16   C     C_R   0.089079 0.621709 0.154107 -0.147347
C17   C     C_R   0.124835 0.679319 0.173465 0.006622
C18   C     C_R   0.144973 0.747136 0.153086 -0.103115
C19   C     C_R   0.123459 0.762658 0.114017 0.141380
C20   C     C_R   0.220506 0.672000 0.232457 -0.123494
C21   C     C_3   0.542391 0.835826 0.566137 0.022305
C22   C     C_3   0.558211 0.913888 0.589309 -0.257720
C23   C     C_3   0.602802 0.965051 0.564497 -0.494043
C24   C     C_R   0.163399 0.668369 0.336302 0.008198
C25   C     C_3   0.932668 0.471994 0.888244 0.015954
C26   C     C_3   0.960569 0.361982 0.877860 -0.268059
C27   C     C_3   0.053950 0.311783 0.851429 -0.478352
C28   C     C_3   0.964616 0.657522 0.805025 -0.004164
C29   C     C_3   0.877047 0.739510 0.830035 -0.291148
C30   C     C_3   0.787196 0.814177 0.805533 -0.469962
C31   C     C_3   0.740337 0.506862 0.069182 -0.289667
C32   C     C_3   0.839398 0.455241 0.322232 0.034859
C33   C     C_3   0.953289 0.376940 0.317204 -0.257158
C34   C     C_3   0.969307 0.276056 0.300253 -0.494168
C35   C     C_R   0.564012 0.729867 0.650222 0.268187
C36   C     C_3   0.538648 0.573307 0.214562 0.006609
C37   C     C_3   0.644903 0.476402 0.210720 -0.265917
C38   C     C_3   0.640567 0.381048 0.221548 -0.488942
C39   C     C_3   0.765737 0.865659 0.296841 -0.315764
C40   C     C_3   0.894498 0.520999 0.181538 -0.011514
C41   C     C_3   0.947376 0.430431 0.208629 -0.258145
C42   C     C_3   0.055589 0.407415 0.218512 -0.489663
C43   C     C_3   0.850404 0.551446 0.437290 0.025479
C44   C     C_3   0.920076 0.584133 0.417258 -0.255378
C45   C     C_3   0.967284 0.625517 0.445931 -0.493437
C46   C     C_R   0.235234 0.635219 0.411550 -0.023996
C47   C     C_3   0.403173 0.834242 0.674038 0.033531
C48   C     C_3   0.338748 0.932885 0.697194 -0.248434
C49   C     C_3   0.233828 0.947469 0.707573 -0.497056
C50   C     C_3   0.859550 0.218999 0.146992 0.001465
C51   C     C_3   0.971222 0.164418 0.133215 -0.262625
C52   C     C_3   0.995201 0.236477 0.110850 -0.486623
C53   C     C_3   0.231999 0.785410 0.069296 -0.291334
C54   C     C_3   0.225486 0.859971 0.337301 0.001346
C55   C     C_3   0.187084 0.965353 0.355988 -0.256207
C56   C     C_3   0.270237 0.995131 0.356451 -0.493704
C57   C     C_R   0.736155 0.025060 0.943239 0.540493
C58   C     C_3   0.247343 0.382428 0.390889 -0.308162
C59   C     C_3   0.484111 0.941825 0.840878 0.013968
C60   C     C_3   0.385581 0.011629 0.863217 -0.261376
C61   C     C_3   0.353848 0.124531 0.859455 -0.489183
C62   C     C_R   0.744732 0.722258 0.945389 0.560557
C63   C     C_R   0.039127 0.733402 0.948729 0.534886
C64   C     C_R   0.723641 0.036752 0.053459 0.545819
C65   C     C_R   0.734194 0.734999 0.055159 0.553830
C66   C     C_R   0.635318 0.648650 0.673389 -0.004328
C67   C     C_R   0.027288 0.744884 0.058021 0.549304
C68   C     C_R   0.563358 0.715354 0.610335 0.266636
C69   C     C_R   0.638468 0.668753 0.793127 0.357147
C70   C     C_R   0.635438 0.656810 0.715615 0.346482
C71   C     C_R   0.732755 0.592864 0.853476 -0.168233
C72   C     C_R   0.762197 0.603644 0.890640 0.238380
C73   C     C_R   0.617424 0.778006 0.892652 -0.173783
C74   C     C_R   0.590326 0.768181 0.855038 0.256319
C75   C     C_R   0.651694 0.676062 0.834749 0.006239
C76   C     C_R   0.610324 0.587807 0.555629 0.545146
C77   C     C_R   0.227988 0.671946 0.272008 -0.086503
C78   C     C_R   0.706507 0.699162 0.909709 -0.014473
C79   C     C_R   0.724068 0.070622 0.905170 0.021440
C80   C     C_R   0.632338 0.103526 0.885022 -0.133591
C81   C     C_R   0.627741 0.123134 0.846058 -0.128887
C82   C     C_R   0.714611 0.111079 0.826629 0.032283
C83   C     C_R   0.804160 0.085668 0.847213 -0.123650
C84   C     C_R   0.808951 0.065434 0.886242 -0.129015
C85   C     C_R   0.751608 0.176073 0.766755 -0.110662
C86   C     C_R   0.744981 0.187646 0.727156 -0.108950
C87   C     C_R   0.701020 0.141414 0.704828 0.028615
C88   C     C_R   0.151148 0.672677 0.294813 0.061654
C89   C     C_R   0.590353 0.300306 0.553505 0.541564
C90   C     C_R   0.666899 0.080780 0.722797 -0.116733
C91   C     C_R   0.671823 0.070843 0.762368 -0.123072
C92   C     C_R   0.713018 0.119422 0.784692 0.026735
C93   C     C_R   0.587902 0.183746 0.647726 -0.123174
C94   C     C_R   0.561473 0.221276 0.610794 -0.135944
C95   C     C_R   0.723806 0.216921 0.604069 -0.129045
C96   C     C_R   0.750648 0.178534 0.641023 -0.121097
C97   C     C_R   0.681379 0.164983 0.663684 0.034133
C98   C     C_R   0.627541 0.241681 0.589110 0.020577
C99   C     C_R   0.067320 0.671834 0.277885 -0.120541
C100  C     C_R   0.093194 0.695498 0.912113 -0.025139
C101  C     C_R   0.297968 0.611154 0.446595 0.548774
C102  C     C_R   0.156242 0.731545 0.897855 -0.149008
C103  C     C_R   0.188148 0.713247 0.859740 -0.167396
C104  C     C_R   0.154801 0.661544 0.835214 0.025661
C105  C     C_R   0.091136 0.625364 0.849500 0.275459
C106  C     C_R   0.065910 0.637762 0.888248 -0.112134
C107  C     C_R   0.227221 0.560792 0.775152 -0.075601
C108  C     C_R   0.236533 0.556866 0.735426 -0.113473
C109  C     C_R   0.193184 0.647994 0.714184 0.030294
C110  C     C_R   0.059180 0.672940 0.238202 -0.118287
C111  C     C_R   0.142487 0.742918 0.733721 -0.125556
C112  C     C_R   0.136355 0.746654 0.773406 -0.137274
C113  C     C_R   0.608742 0.591052 0.445797 0.544980
C114  C     C_R   0.177050 0.655716 0.794220 0.037416
C115  C     C_R   0.218059 0.720158 0.653941 -0.128062
C116  C     C_R   0.240343 0.712689 0.615217 -0.125744
C117  C     C_R   0.235645 0.554363 0.611062 -0.130156
C118  C     C_R   0.210675 0.563307 0.649923 -0.118757
C119  C     C_R   0.205417 0.644477 0.672075 0.037511
C120  C     C_R   0.253781 0.627523 0.593700 0.022183
C121  C     C_R   0.135766 0.673180 0.215238 0.030082
C122  C     C_R   0.699970 0.724338 0.093626 -0.002713
C123  C     C_R   0.634258 0.813895 0.114531 -0.182087
C124  C     C_R   0.622176 0.810169 0.153810 -0.168207
C125  C     C_R   0.588783 0.301116 0.444286 0.543708
C126  C     C_R   0.677363 0.717483 0.173109 0.052224
C127  C     C_R   0.742382 0.626562 0.152679 0.286670
C128  C     C_R   0.748324 0.628592 0.112458 0.146335
C129  C     C_R   0.600982 0.684097 0.230387 0.296727
C130  C     C_R   0.594699 0.680250 0.270394 -0.158133
C131  C     C_R   0.656406 0.701892 0.294418 0.010898
C132  C     C_R   0.180353 0.579974 0.355257 -0.147886
C133  C     C_R   0.720237 0.736421 0.278620 0.176961
C134  C     C_R   0.724647 0.742200 0.238672 -0.144018
C135  C     C_R   0.666383 0.715751 0.214827 0.036160
C136  C     C_R   0.558379 0.740943 0.355032 -0.200776
C137  C     C_R   0.628554 0.617180 0.594059 -0.023638
C138  C     C_R   0.546524 0.713753 0.391780 -0.202728
C139  C     C_R   0.726920 0.582608 0.392753 0.267063
C140  C     C_R   0.736436 0.604683 0.354469 0.267363
C141  C     C_R   0.652152 0.685313 0.335743 -0.012353
C142  C     C_R   0.629067 0.631491 0.410457 -0.027743
C143  C     C_R   0.216975 0.561473 0.392989 0.122914
C144  C     C_R   0.703342 0.086632 0.091332 -0.020941
C145  C     C_R   0.775572 0.106470 0.108934 -0.119103
C146  C     C_R   0.767785 0.131450 0.148263 0.271488
C147  C     C_R   0.690792 0.127795 0.170202 0.041203
C148  C     C_R   0.615299 0.114579 0.151789 -0.178057
C149  C     C_R   0.703176 0.539988 0.617043 -0.195593
C150  C     C_R   0.620226 0.096501 0.112772 -0.147798
C151  C     C_R   0.593886 0.192871 0.231372 -0.138772
C152  C     C_R   0.589580 0.198152 0.270996 -0.122837
C153  C     C_R   0.679547 0.145888 0.292564 0.019405
Cr1   Cr    Cr6+3 0.421670 0.426920 0.499620 1.013320
Cr2   Cr    Cr6+3 0.427030 0.651190 0.500980 1.024587
Cr3   Cr    Cr6+3 0.651280 0.421870 0.499380 1.017401
Cr4   Cr    Cr6+3 0.910810 0.908010 0.001130 1.017226
Cr5   Cr    Cr6+3 0.682800 0.909890 0.998370 1.000521
Cr6   Cr    Cr6+3 0.908370 0.682300 0.002180 1.030593
H1    H     H_    0.755644 0.464501 0.605424 0.151955
H2    H     H_    0.486695 0.239580 0.600094 0.127957
H3    H     H_    0.951590 0.361200 0.195249 0.160586
H4    H     H_    0.102797 0.389756 0.192152 0.143133
H5    H     H_    0.092572 0.339798 0.237506 0.143296
H6    H     H_    0.052780 0.474095 0.233570 0.151606
H7    H     H_    0.896635 0.492479 0.458843 0.152456
H8    H     H_    0.788109 0.617473 0.453492 0.106428
H9    H     H_    0.982394 0.517307 0.401670 0.184576
H10   H     H_    0.874885 0.645243 0.396274 0.172573
H11   H     H_    0.906065 0.692396 0.461838 0.145624
H12   H     H_    0.015111 0.650809 0.430544 0.160736
H13   H     H_    0.872087 0.075944 0.832735 0.101049
H14   H     H_    0.016422 0.564925 0.466513 0.137632
H15   H     H_    0.412294 0.768009 0.691158 0.135852
H16   H     H_    0.362297 0.838228 0.646997 0.161283
H17   H     H_    0.380003 0.930128 0.723942 0.198590
H18   H     H_    0.328010 0.999745 0.680315 0.164565
H19   H     H_    0.189409 0.954601 0.681276 0.138158
H20   H     H_    0.190376 0.018750 0.724917 0.147083
H21   H     H_    0.242701 0.881667 0.724638 0.156581
H22   H     H_    0.848541 0.280323 0.167613 0.153957
H23   H     H_    0.806080 0.259052 0.122870 0.115930
H24   H     H_    0.776559 0.231282 0.587881 0.120489
H25   H     H_    0.023051 0.135006 0.158317 0.167145
H26   H     H_    0.986745 0.097850 0.114664 0.167300
H27   H     H_    0.944687 0.266352 0.085449 0.148509
H28   H     H_    0.076288 0.194139 0.101000 0.146476
H29   H     H_    0.984180 0.301732 0.129238 0.145788
H30   H     H_    0.143181 0.889419 0.111522 0.238344
H31   H     H_    0.302877 0.739870 0.086290 0.134109
H32   H     H_    0.238780 0.845570 0.053627 0.138990
H33   H     H_    0.224287 0.734500 0.047978 0.156440
H34   H     H_    0.246019 0.863479 0.307072 0.147867
H35   H     H_    0.177462 0.777062 0.915755 0.134266
H36   H     H_    0.297719 0.801665 0.351399 0.109621
H37   H     H_    0.119687 0.024031 0.339922 0.172668
H38   H     H_    0.162378 0.964465 0.385828 0.162712
H39   H     H_    0.335877 0.940751 0.374253 0.143142
H40   H     H_    0.238527 0.073462 0.368851 0.143565
H41   H     H_    0.297606 0.994828 0.326948 0.143234
H42   H     H_    0.200874 0.481975 0.438424 0.249148
H43   H     H_    0.276988 0.315048 0.409968 0.135521
H44   H     H_    0.302969 0.362712 0.367016 0.151806
H45   H     H_    0.171490 0.398812 0.379791 0.121202
H46   H     H_    0.014489 0.612525 0.898486 0.132138
H47   H     H_    0.475161 0.969952 0.811081 0.160037
H48   H     H_    0.549685 0.947069 0.853275 0.105475
H49   H     H_    0.322286 0.000625 0.852290 0.180797
H50   H     H_    0.397217 0.990507 0.893896 0.153042
H51   H     H_    0.416207 0.137947 0.869196 0.141621
H52   H     H_    0.285237 0.171651 0.877546 0.146164
H53   H     H_    0.334863 0.149119 0.829281 0.147314
H54   H     H_    0.198597 0.505055 0.662782 0.100661
H55   H     H_    0.278285 0.482516 0.721490 0.102241
H56   H     H_    0.258305 0.490042 0.791028 0.127317
H57   H     H_    0.235161 0.743317 0.848888 0.132781
H58   H     H_    0.105853 0.814645 0.718418 0.103860
H59   H     H_    0.880967 0.039748 0.900976 0.129359
H60   H     H_    0.095008 0.820523 0.787806 0.106174
H61   H     H_    0.216619 0.782548 0.669936 0.093594
H62   H     H_    0.254142 0.770437 0.602861 0.139735
H63   H     H_    0.245215 0.488070 0.595109 0.118624
H64   H     H_    0.596106 0.888099 0.100886 0.142840
H65   H     H_    0.542386 0.659849 0.283421 0.097990
H66   H     H_    0.572352 0.880358 0.169438 0.121495
H67   H     H_    0.763354 0.492521 0.672768 0.148905
H68   H     H_    0.775620 0.764848 0.225819 0.104675
H69   H     H_    0.492544 0.801810 0.340656 0.122289
H70   H     H_    0.824098 0.162761 0.652315 0.099535
H71   H     H_    0.470927 0.754070 0.404737 0.144669
H72   H     H_    0.840203 0.098029 0.092498 0.124708
H73   H     H_    0.563160 0.081615 0.100122 0.137121
H74   H     H_    0.547241 0.131869 0.341335 0.098046
H75   H     H_    0.516052 0.246066 0.284799 0.105959
H76   H     H_    0.523408 0.236449 0.215505 0.099431
H77   H     H_    0.844259 0.045791 0.290176 0.120578
H78   H     H_    0.851564 0.031661 0.220267 0.158750
H79   H     H_    0.795940 0.196466 0.336928 0.103477
H80   H     H_    0.756809 0.263993 0.402196 0.137286
H81   H     H_    0.770259 0.236393 0.714277 0.110485
H82   H     H_    0.554972 0.112502 0.167903 0.109178
H83   H     H_    0.506681 0.200417 0.406367 0.126794
H84   H     H_    0.032488 0.595946 0.101997 0.137393
H85   H     H_    0.776172 0.520292 0.838556 0.137808
H86   H     H_    0.294447 0.669995 0.284908 0.097458
H87   H     H_    0.281101 0.670631 0.215335 0.100345
H88   H     H_    0.075512 0.567137 0.169197 0.102886
H89   H     H_    0.008174 0.671363 0.295352 0.140535
H90   H     H_    0.992320 0.675412 0.225495 0.102826
H91   H     H_    0.169656 0.523754 0.339549 0.115799
H92   H     H_    0.783290 0.214510 0.783492 0.111085
H93   H     H_    0.173919 0.791109 0.167803 0.106595
H94   H     H_    0.212741 0.788747 0.408508 0.135153
H95   H     H_    0.569831 0.848612 0.908323 0.134431
H96   H     H_    0.565835 0.108765 0.899018 0.123336
H97   H     H_    0.492053 0.875772 0.541446 0.147475
H98   H     H_    0.616806 0.775106 0.553813 0.102145
H99   H     H_    0.483534 0.973729 0.601460 0.186325
H100  H     H_    0.611815 0.874599 0.613278 0.182001
H101  H     H_    0.677308 0.906431 0.551884 0.146656
H102  H     H_    0.615978 0.018809 0.582279 0.162551
H103  H     H_    0.557240 0.144706 0.830803 0.102428
H104  H     H_    0.548747 0.008895 0.541188 0.147324
H105  H     H_    0.994506 0.468126 0.906733 0.154819
H106  H     H_    0.931857 0.514256 0.862109 0.149828
H107  H     H_    0.977709 0.316408 0.904429 0.168477
H108  H     H_    0.895091 0.361383 0.863453 0.167217
H109  H     H_    0.035493 0.351772 0.823547 0.168009
H110  H     H_    0.076845 0.230126 0.846305 0.140009
H111  H     H_    0.119228 0.315411 0.864586 0.153537
H112  H     H_    0.933003 0.617220 0.787889 0.159260
H113  H     H_    0.989955 0.694955 0.784032 0.152566
H114  H     H_    0.634484 0.042610 0.706337 0.113097
H115  H     H_    0.850475 0.701856 0.850456 0.158237
H116  H     H_    0.903966 0.784979 0.846520 0.164016
H117  H     H_    0.812046 0.855647 0.786117 0.155202
H118  H     H_    0.724573 0.871036 0.824227 0.148032
H119  H     H_    0.757691 0.772511 0.788192 0.173460
H120  H     H_    0.859847 0.474072 0.105993 0.262242
H121  H     H_    0.789755 0.436554 0.052053 0.138405
H122  H     H_    0.690555 0.568956 0.049209 0.156832
H123  H     H_    0.691807 0.490934 0.088685 0.135476
H124  H     H_    0.799856 0.468648 0.294222 0.119948
H125  H     H_    0.642905 0.025489 0.775581 0.103707
H126  H     H_    0.806096 0.421914 0.342166 0.148842
H127  H     H_    0.989272 0.408856 0.298224 0.168464
H128  H     H_    0.991786 0.361812 0.345469 0.175260
H129  H     H_    0.937303 0.241107 0.319715 0.145482
H130  H     H_    0.052692 0.221634 0.296462 0.144264
H131  H     H_    0.931391 0.289102 0.271962 0.147211
H132  H     H_    0.486906 0.566098 0.193658 0.146948
H133  H     H_    0.503190 0.578456 0.242863 0.108858
H134  H     H_    0.671727 0.467942 0.180642 0.206160
H135  H     H_    0.701371 0.481827 0.229632 0.175095
H136  H     H_    0.532177 0.175373 0.664498 0.104467
H137  H     H_    0.611845 0.388166 0.251299 0.153236
H138  H     H_    0.718704 0.312879 0.219773 0.185762
H139  H     H_    0.589355 0.370036 0.201590 0.153769
H140  H     H_    0.784587 0.745669 0.330713 0.268871
H141  H     H_    0.814624 0.878998 0.317233 0.149528
H142  H     H_    0.684186 0.924495 0.302202 0.148461
H143  H     H_    0.788413 0.874258 0.267565 0.156006
H144  H     H_    0.888470 0.589933 0.196143 0.127954
H145  H     H_    0.942519 0.504454 0.155393 0.123260
H146  H     H_    0.901128 0.448729 0.235231 0.170682
N1    N     N_R   0.686657 0.576444 0.774875 -0.255492
N2    N     N_R   0.684691 0.570633 0.736967 -0.250794
N3    N     N_R   0.586784 0.749084 0.733863 -0.196660
N4    N     N_R   0.588517 0.754907 0.771800 -0.202103
N5    N     N_2   0.804083 0.535245 0.091100 -0.492392
N6    N     N_2   0.780775 0.763729 0.302238 -0.507692
N7    N     N_2   0.143336 0.833294 0.094284 -0.493787
N8    N     N_2   0.237172 0.469836 0.412333 -0.478896
O1    O     O_R   0.502070 0.323090 0.541280 -0.523962
O2    O     O_R   0.831550 0.656950 0.958960 -0.464570
O3    O     O_R   0.998590 0.685540 0.963930 -0.508757
O4    O     O_R   0.338340 0.520690 0.539540 -0.507303
O5    O     O_R   0.008220 0.831200 0.045060 -0.476318
O6    O     O_R   0.813270 0.997930 0.038810 -0.498833
O7    O     O_R   0.657500 0.016560 0.039940 -0.520824
O8    O     O_R   0.685680 0.820940 0.038120 -0.511698
O9    O     O_R   0.822130 0.666070 0.043610 -0.478857
O10   O     O_R   0.989860 0.694000 0.042400 -0.516348
O11   O     O_3   0.833990 0.833400 0.000560 -0.244276
O12   O     O_R   0.520720 0.641670 0.461580 -0.514598
O13   O     O_R   0.324760 0.674070 0.543580 -0.510011
O14   O     O_R   0.522400 0.640310 0.540110 -0.459158
O15   O     O_R   0.675940 0.500630 0.542210 -0.534262
O16   O     O_R   0.641790 0.337020 0.538150 -0.503606
O17   O     O_R   0.500260 0.324550 0.456580 -0.508064
O18   O     O_R   0.336660 0.522040 0.461020 -0.472480
O19   O     O_R   0.322940 0.675540 0.458880 -0.530687
O20   O     O_3   0.492239 0.795722 0.588385 -0.556081
O21   O     O_3   0.840146 0.520374 0.909682 -0.544898
O22   O     O_3   0.048632 0.581433 0.826179 -0.598620
O23   O     O_R   0.674120 0.502090 0.457500 -0.474381
O24   O     O_3   0.829566 0.548597 0.335791 -0.566666
O25   O     O_3   0.540560 0.663979 0.205506 -0.565298
O26   O     O_3   0.796981 0.535151 0.171999 -0.603538
O27   O     O_3   0.812505 0.506298 0.411001 -0.550757
O28   O     O_3   0.499124 0.825628 0.665975 -0.555929
O29   O     O_3   0.840049 0.148505 0.166645 -0.594317
O30   O     O_3   0.145104 0.836668 0.337227 -0.565311
O31   O     O_3   0.498125 0.841526 0.839137 -0.549976
O32   O     O_R   0.640110 0.338380 0.459630 -0.502455
O33   O     O_3   0.499990 0.499990 0.499990 -0.241376
O34   O     O_R   0.017640 0.822070 0.960410 -0.518551
O35   O     O_R   0.822000 0.989470 0.960340 -0.503103
O36   O     O_R   0.666920 0.007430 0.955290 -0.520748
O37   O     O_R   0.694410 0.812480 0.959650 -0.518511

loop_
_geom_bond_atom_site_label_1
_geom_bond_atom_site_label_2
_ccdc_geom_bond_type
C126  C127  A    
C139  O27   S    
C45   H11   S    
C13   O30   S    
C145  C146  A    
Cr5   O37   S    
C6    H79   S    
C9    C149  A    
Cr1   O17   S    
C49   H19   S    
C65   O8    A    
C139  C142  A    
C152  H75   S    
C150  H73   S    
C113  C142  S    
C44   H9    S    
C116  H62   S    
H30   N7    S    
C77   C88   A    
C1    O4    A    
C86   H81   S    
C4    H78   S    
C39   H141  S    
C52   H28   S    
C53   H31   S    
C136  H69   S    
C67   O5    A    
C58   H45   S    
C59   C60   S    
C41   H3    S    
Cr6   O10   S    
C102  H35   S    
C127  O26   S    
C104  C105  A    
C56   H39   S    
C31   N5    S    
C51   C52   S    
C64   O6    A    
C140  C141  A    
Cr6   O2    S    
C6    C11   A    
C4    C5    A    
C35   C66   A    
C99   C110  A    
C123  H64   S    
C1    C120  S    
C43   C44   S    
Cr3   O32   S    
C45   H14   S    
C27   H109  S    
Cr2   O12   S    
C23   H104  S    
N1    N2    A    
C65   C122  S    
C58   N8    S    
C84   H59   S    
C47   O28   S    
C59   H47   S    
H120  N5    S    
C146  C147  A    
C43   H7    S    
C59   O31   S    
C10   H74   S    
C37   H134  S    
C129  O25   S    
C14   C19   A    
C39   N6    S    
C36   O25   S    
C144  C145  A    
C139  C140  A    
C6    C7    A    
C100  C106  A    
C5    C151  A    
C134  H68   S    
C130  C131  A    
C21   H97   S    
C43   O27   S    
C95   H24   S    
C55   H38   S    
C118  H54   S    
C61   H51   S    
C53   H33   S    
C47   H15   S    
C73   H95   S    
C107  H56   S    
C58   H43   S    
C8    C10   A    
C22   C23   S    
C103  H57   S    
C49   H20   S    
C28   H113  S    
Cr1   O33   S    
C147  C148  A    
C21   H98   S    
C112  C114  A    
C124  H66   S    
C123  C124  A    
C66   C70   S    
C76   C137  S    
C108  C109  A    
C36   C37   S    
C31   H122  S    
C148  C150  A    
C71   H85   S    
C62   O37   A    
C110  C121  A    
C79   C84   A    
C42   H5    S    
Cr5   O8    S    
C23   H102  S    
C115  C116  A    
C144  C150  A    
C129  C135  A    
C33   H128  S    
C34   H129  S    
H42   N8    S    
C14   C67   S    
Cr4   O6    S    
Cr5   O7    S    
C69   N1    A    
C32   H124  S    
C131  C141  S    
C42   H6    S    
C55   H37   S    
C38   H137  S    
C117  H63   S    
C50   H23   S    
C52   H27   S    
C85   C92   A    
C7    C12   A    
C46   C101  S    
C15   H84   S    
C30   H119  S    
C50   O29   S    
C88   C99   A    
C138  H71   S    
C91   C92   A    
C25   H105  S    
C62   O2    A    
C74   O31   S    
C25   C26   S    
C116  C120  A    
C61   H53   S    
C40   H144  S    
C29   C30   S    
C83   C84   A    
C8    C12   A    
C151  H76   S    
C17   C18   A    
C96   H70   S    
C31   H121  S    
C94   H2    S    
Cr3   O15   S    
C67   O10   A    
C27   H110  S    
C23   H101  S    
C85   H92   S    
C115  C119  A    
C54   O30   S    
C115  H61   S    
C3    C4    A    
C73   C74   A    
C93   C97   A    
C124  C126  A    
C129  C130  A    
C76   O15   A    
C59   H48   S    
C54   C55   S    
C62   C78   S    
C69   N4    A    
C38   H139  S    
C134  C135  A    
C43   H8    S    
C89   C98   S    
C130  H65   S    
Cr1   O18   S    
C71   C72   A    
C57   O36   A    
C117  C118  A    
C136  C141  A    
C102  C103  A    
C149  H1    S    
C70   N2    A    
C10   C11   A    
C11   C153  S    
Cr2   O19   S    
C152  C153  A    
C14   C15   A    
C111  H58   S    
C56   H41   S    
C21   C22   S    
C47   H16   S    
C48   H17   S    
C101  O19   A    
C29   H116  S    
C36   H132  S    
C55   C56   S    
C30   H117  S    
C5    C147  S    
C41   C42   S    
C22   H99   S    
C26   C27   S    
C37   H135  S    
C20   C77   A    
C39   H143  S    
C26   H107  S    
C28   C29   S    
C64   O7    A    
C94   C98   A    
C82   C92   S    
C93   H136  S    
C18   C19   A    
C68   O20   S    
C44   H10   S    
Cr3   O33   S    
Cr4   O35   S    
Cr5   O11   S    
C111  C112  A    
C16   C17   A    
C89   O16   A    
C151  C152  A    
C60   H50   S    
C1    O13   A    
C34   H130  S    
C132  C143  A    
C145  H72   S    
C110  H90   S    
C68   C137  A    
C146  O29   S    
C45   H12   S    
Cr1   O4    S    
Cr5   O36   S    
C65   O9    A    
C138  C142  A    
C117  C120  A    
C21   O20   S    
C86   C87   A    
C60   H49   S    
C12   C125  S    
C85   C86   A    
C60   C61   S    
C19   N7    S    
C107  C114  A    
C3    H77   S    
C24   C132  A    
C83   H13   S    
C50   C51   S    
C32   O24   S    
C53   H32   S    
C17   C121  S    
C48   C49   S    
C58   H44   S    
C51   H25   S    
C133  C134  A    
C125  O17   A    
C127  C128  A    
C2    H94   S    
C44   C45   S    
C109  C119  S    
C26   H108  S    
C16   H88   S    
C54   H36   S    
Cr6   O3    S    
C140  O24   S    
C105  C106  A    
C32   C33   S    
C109  C111  A    
Cr1   O1    S    
C40   O26   S    
C90   C91   A    
Cr2   O13   S    
C41   H146  S    
C69   C75   S    
C122  C128  A    
C25   O21   S    
C33   H127  S    
C82   C83   A    
C87   C90   A    
C103  C104  A    
Cr4   O5    S    
C133  N6    S    
C93   C94   A    
C80   H96   S    
C57   C79   S    
C95   C96   A    
C106  H46   S    
C81   C82   A    
C95   C98   A    
C132  H91   S    
C2    C46   A    
C37   C38   S    
Cr3   O23   S    
C15   C16   A    
C3    C153  A    
C128  N5    S    
C63   O3    A    
C61   H52   S    
C53   N7    S    
C40   H145  S    
C2    C13   A    
C113  O12   A    
C118  C119  A    
C9    C66   A    
C18   H93   S    
Cr6   O9    S    
C72   C78   A    
C73   C78   A    
C89   O1    A    
C56   H40   S    
C20   H87   S    
C81   H103  S    
C28   H112  S    
C35   O28   S    
C137  C149  A    
C48   H18   S    
C74   C75   A    
C31   H123  S    
Cr2   O33   S    
C136  C138  A    
C32   H126  S    
C63   O34   A    
C42   H4    S    
C64   C144  S    
C13   C24   A    
C125  O32   A    
C63   C100  S    
C51   H26   S    
C57   O35   A    
C24   C88   S    
C47   C48   S    
C8    H83   S    
C107  C108  A    
C96   C97   A    
C100  C102  A    
C33   C34   S    
C91   H125  S    
C143  N8    S    
C70   N3    A    
C20   C121  A    
C104  C114  S    
Cr3   O16   S    
H140  N6    S    
C40   C41   S    
C7    H80   S    
C148  H82   S    
C50   H22   S    
C113  O23   A    
N3    N4    A    
C101  O18   A    
C29   H115  S    
C36   H133  S    
C28   O22   S    
C30   H118  S    
C72   O21   S    
C80   C81   A    
C131  C133  A    
C126  C135  S    
C25   H106  S    
C105  O22   S    
C46   C143  A    
C22   H100  S    
Cr4   O11   S    
C52   H29   S    
C39   H142  S    
C49   H21   S    
C99   H89   S    
C71   C75   A    
Cr6   O11   S    
C35   C68   A    
C112  H60   S    
C90   H114  S    
C77   H86   S    
C108  H55   S    
C79   C80   A    
Cr4   O34   S    
C27   H111  S    
Cr2   O14   S    
C38   H138  S    
C54   H34   S    
C9    H67   S    
C87   C97   S    
C122  C123  A    
C34   H131  S    
C76   O14   A    
