data_mof_unit_35549.cif
_audit_creation_date              2012-12-10T19:45:48-0500
_audit_creation_method            fapswitch 2.2
_symmetry_space_group_name_H-M    P1
_symmetry_Int_Tables_number       1
_space_group_crystal_system       triclinic
_cell_length_a                    10.834818
_cell_length_b                    14.722566
_cell_length_c                    14.722204
_cell_angle_alpha                 65.07371
_cell_angle_beta                  103.935286
_cell_angle_gamma                 103.112623
_cell_volume                      2045.92119889

loop_
_atom_site_label
_atom_site_type_symbol
_atom_type_description
_atom_site_fract_x
_atom_site_fract_y
_atom_site_fract_z
_atom_type_partial_charge
C1    C     C_R   0.480075 0.119414 0.312230 0.792535
C2    C     C_R   0.520342 0.880519 0.687801 0.792769
C3    C     C_R   0.870627 0.001745 0.495303 -0.074437
C4    C     C_R   0.129422 0.997925 0.505150 -0.071132
C5    C     C_R   0.905788 0.956641 0.439100 0.009011
C6    C     C_R   0.094250 0.042786 0.561616 0.016834
C7    C     C_R   0.464672 0.186293 0.204325 -0.062068
C8    C     C_R   0.532715 0.813426 0.795734 -0.067776
C9    C     C_R   0.369853 0.217913 0.029500 -0.199914
C10   C     C_R   0.612914 0.782662 0.972603 -0.201910
C11   C     C_R   0.396856 0.150289 0.129594 -0.200187
C12   C     C_R   0.592794 0.849868 0.871649 -0.208112
C13   C     C_R   0.511432 0.289186 0.177162 -0.254704
C14   C     C_R   0.487604 0.710326 0.822147 -0.211943
C15   C     C_R   0.477696 0.360014 0.078366 0.091553
C16   C     C_R   0.509490 0.640317 0.922987 0.087082
C17   C     C_R   0.406639 0.322335 0.003929 0.163191
C18   C     C_R   0.574818 0.678302 0.998412 0.159692
C19   C     C_R   0.509498 0.466616 0.052193 0.058262
C20   C     C_R   0.472750 0.533904 0.950217 0.062116
C21   C     C_R   0.400664 0.492534 0.878988 -0.155963
C22   C     C_R   0.573745 0.508290 0.124967 -0.173623
C23   C     C_R   0.262889 0.998731 0.502720 0.792955
C24   C     C_R   0.737135 0.001169 0.497437 0.791000
C25   C     C_R   0.369758 0.389000 0.905319 -0.231627
C26   C     C_R   0.603880 0.611927 0.098558 -0.228252
C27   C     C_R   0.744359 0.304911 0.634330 -0.305223
C28   C     C_R   0.251811 0.697878 0.364732 -0.307635
C29   C     C_R   0.702751 0.217846 0.614479 0.071484
C30   C     C_R   0.298470 0.785749 0.382435 0.071738
C31   C     C_R   0.504150 0.275689 0.524713 0.087762
C32   C     C_R   0.490519 0.720329 0.479454 0.090153
C33   C     C_R   0.544877 0.370822 0.533914 -0.014779
C34   C     C_R   0.444065 0.624993 0.471469 -0.012715
C35   C     C_R   0.665529 0.380845 0.595397 0.131188
C36   C     C_R   0.324536 0.617796 0.408383 0.132247
C37   C     C_R   0.470596 0.454101 0.488732 -0.021133
C38   C     C_R   0.513107 0.539064 0.519553 -0.018527
C39   C     C_R   0.623228 0.534572 0.596963 -0.035327
C40   C     C_R   0.355681 0.456986 0.415105 -0.027066
C41   C     C_R   0.703284 0.462199 0.625023 -0.245049
C42   C     C_R   0.280874 0.533781 0.383618 -0.242102
C43   C     C_R   0.358835 0.064690 0.776554 -0.116503
C44   C     C_R   0.640832 0.932862 0.225242 -0.116962
C45   C     C_R   0.269756 0.023928 0.712507 -0.094584
C46   C     C_R   0.731244 0.974610 0.287857 -0.091431
C47   C     C_R   0.188280 0.085167 0.630645 0.114791
C48   C     C_R   0.811505 0.913458 0.370908 0.118124
C49   C     C_R   0.195320 0.186974 0.615533 -0.158536
C50   C     C_R   0.801798 0.810636 0.388876 -0.160596
C51   C     C_R   0.284230 0.227298 0.679994 -0.166722
C52   C     C_R   0.711613 0.769326 0.325798 -0.160589
C53   C     C_R   0.366234 0.166318 0.760201 -0.126738
C54   C     C_R   0.630891 0.830288 0.244287 -0.127827
C55   C     C_R   0.964846 0.044815 0.554971 -0.222397
C56   C     C_R   0.035153 0.954720 0.445586 -0.224766
Cu1   Cu    Cu3+1 0.466270 0.918260 0.475690 0.956180
Cu2   Cu    Cu3+1 0.533730 0.081740 0.524310 0.954735
H1    H     H_    0.435354 0.197795 0.809727 0.132226
H2    H     H_    0.560654 0.798024 0.195933 0.129321
H3    H     H_    0.315865 0.188910 0.972720 0.134385
H4    H     H_    0.661769 0.811972 0.030245 0.135027
H5    H     H_    0.363403 0.537728 0.802024 0.169443
H6    H     H_    0.601706 0.463391 0.203994 0.177776
H7    H     H_    0.790500 0.463228 0.679729 0.176255
H8    H     H_    0.191928 0.532822 0.330518 0.166818
H9    H     H_    0.586369 0.737443 0.515618 0.140844
H10   H     H_    0.408306 0.254372 0.492420 0.151699
H11   H     H_    0.241076 0.846661 0.350598 0.124345
H12   H     H_    0.764367 0.159973 0.643287 0.123573
H13   H     H_    0.837340 0.312459 0.680694 0.139969
H14   H     H_    0.159428 0.692692 0.316877 0.140393
H15   H     H_    0.422086 0.017448 0.838908 0.123240
H16   H     H_    0.578348 0.980029 0.162046 0.123215
H17   H     H_    0.264846 0.945021 0.726133 0.103483
H18   H     H_    0.737882 0.054152 0.272394 0.106563
H19   H     H_    0.133083 0.235307 0.553169 0.163113
H20   H     H_    0.862714 0.762290 0.452515 0.150196
H21   H     H_    0.290163 0.306019 0.667329 0.143635
H22   H     H_    0.703555 0.689847 0.340634 0.141457
H23   H     H_    0.937451 0.077399 0.599697 0.146351
H24   H     H_    0.062417 0.921952 0.400960 0.148330
H25   H     H_    0.314351 0.360934 0.848157 0.141621
H26   H     H_    0.652975 0.640262 0.156920 0.141425
H27   H     H_    0.438861 0.686693 0.761443 0.189041
H28   H     H_    0.570833 0.311854 0.236031 0.172160
H29   H     H_    0.627070 0.929696 0.852833 0.152497
H30   H     H_    0.361709 0.070514 0.148878 0.150349
N1    N     N_R   0.584450 0.204570 0.560790 -0.186508
N2    N     N_R   0.415550 0.795430 0.439210 -0.185522
O1    O     O_R   0.455540 0.022090 0.338120 -0.588842
O2    O     O_R   0.544460 0.977910 0.661880 -0.588857
O3    O     O_R   0.512510 0.160150 0.379180 -0.567598
O4    O     O_R   0.487490 0.839850 0.620820 -0.563730
O5    O     O_R   0.291160 0.930970 0.479480 -0.597499
O6    O     O_R   0.708840 0.069030 0.520520 -0.595393
O7    O     O_R   0.348130 0.069020 0.520540 -0.576491
O8    O     O_R   0.651870 0.930980 0.479460 -0.576112
C57   C     C_2   0.648602 0.591267 0.663660 0.802904
O9    O     O_2   0.559734 0.601206 0.694769 -0.626439
O10   O     O_R   0.774507 0.630335 0.693774 -0.774591
H31   H     H_    0.779117 0.666997 0.739612 0.336511
C58   C     C_2   0.314528 0.391134 0.357159 0.791298
O11   O     O_2   0.203119 0.349993 0.349226 -0.608978
O12   O     O_R   0.401426 0.379161 0.308225 -0.779278
H32   H     H_    0.359965 0.333956 0.269717 0.339830

loop_
_geom_bond_atom_site_label_1
_geom_bond_atom_site_label_2
_ccdc_geom_bond_type
C43   H15   S    
O10   H31   S    
C27   C29   A    
C5    C56   A    
C36   C42   A    
C19   C20   A    
C18   C26   A    
C6    C55   A    
C30   N2    A    
C49   C51   A    
C46   H18   S    
C53   H1    S    
C39   C41   A    
C54   H2    S    
C15   C19   A    
C23   O5    A    
C9    H3    S    
Cu2   O3    S    
C37   C40   A    
C24   O6    A    
C38   C39   A    
Cu2   O6    S    
C3    C55   A    
C43   C53   A    
C32   N2    A    
C44   C46   A    
C31   N1    A    
C13   H28   S    
C50   C52   A    
C31   C33   A    
C14   C16   A    
C55   H23   S    
C16   C20   A    
C40   C42   A    
C1    O1    A    
C34   C38   A    
C4    C56   A    
C3    C24   S    
C28   H14   S    
Cu2   O7    S    
C50   H20   S    
C29   N1    A    
C52   C54   A    
C45   C47   A    
C31   H10   S    
C2    O2    A    
C5    C48   S    
C46   C48   A    
Cu1   N2    S    
C2    O4    A    
C19   C22   A    
C4    C6    A    
C6    C47   S    
C4    C23   S    
C41   H7    S    
C27   C35   A    
C33   C37   A    
C51   C53   A    
C32   C34   A    
C7    C11   A    
C37   C38   A    
C9    C11   A    
C39   C57   S    
C57   O9    D    
C11   H30   S    
C8    C12   A    
C58   O12   S    
C16   C18   A    
C44   H16   S    
C43   C45   A    
C10   C12   A    
C32   H9    S    
C9    C17   A    
C23   O7    A    
Cu1   O4    S    
C13   C15   A    
Cu1   O5    S    
C24   O8    A    
C10   H4    S    
C30   H11   S    
C27   H13   S    
C25   H25   S    
C29   H12   S    
C15   C17   A    
C21   C25   A    
C8    C14   A    
Cu1   O1    S    
C12   H29   S    
C57   O10   S    
C1    C7    S    
C2    C8    S    
C14   H27   S    
C3    C5    A    
C56   H24   S    
C47   C49   A    
O12   H32   S    
C45   H17   S    
C17   C25   A    
C28   C30   A    
C40   C58   S    
C26   H26   S    
Cu1   Cu2   S    
C10   C18   A    
Cu1   O8    S    
C48   C50   A    
C33   C35   A    
C49   H19   S    
C34   C36   A    
C35   C41   A    
Cu2   N1    S    
C51   H21   S    
C21   H5    S    
C22   H6    S    
C44   C54   A    
C7    C13   A    
C20   C21   A    
C28   C36   A    
C1    O3    A    
C22   C26   A    
C58   O11   D    
C42   H8    S    
C52   H22   S    
Cu2   O2    S    
