data_mof_unit_35892.cif
_audit_creation_date              2012-12-11T17:06:29-0500
_audit_creation_method            fapswitch 2.2
_symmetry_space_group_name_H-M    P1
_symmetry_Int_Tables_number       1
_space_group_crystal_system       triclinic
_cell_length_a                    6.966901
_cell_length_b                    14.512284
_cell_length_c                    15.964238
_cell_angle_alpha                 90.494506
_cell_angle_beta                  89.962098
_cell_angle_gamma                 89.997693
_cell_volume                      1614.01412381

loop_
_atom_site_label
_atom_site_type_symbol
_atom_type_description
_atom_site_fract_x
_atom_site_fract_y
_atom_site_fract_z
_atom_type_partial_charge
O1    O     O_R   0.494400 0.415450 0.412630 -0.536879
O2    O     O_R   0.823940 0.405730 0.586760 -0.540717
O3    O     O_R   0.994240 0.584550 0.587370 -0.535867
C1    C     C_R   0.655164 0.383885 0.615531 0.699796
O4    O     O_R   0.824110 0.404430 0.413240 -0.543091
O5    O     O_R   0.994420 0.583240 0.412620 -0.539515
C2    C     C_R   0.655428 0.382202 0.384286 0.694395
O6    O     O_R   0.494230 0.416760 0.587380 -0.538924
O7    O     O_3   0.660800 0.558670 0.500000 -0.368359
V1    V     V_3+5 0.935650 0.489120 0.500000 1.386602
O8    O     O_R   0.324140 0.594270 0.413240 -0.539046
C3    C     C_R   0.155149 0.616269 0.384438 0.691930
O9    O     O_R   0.323960 0.595570 0.586760 -0.542545
C4    C     C_R   0.155060 0.617756 0.615384 0.677626
V2    V     V_3+5 0.435660 0.510880 0.500000 1.391717
O10   O     O_3   0.160640 0.441330 0.500000 -0.370740
C5    C     C_3   0.002680 0.680821 0.759792 -0.130364
C6    C     C_3   0.168163 0.706582 0.820813 -0.183358
H1    H     H_    0.197859 0.672613 0.881475 0.106495
H2    H     H_    0.895001 0.625506 0.769441 0.104353
C7    C     C_3   0.120753 0.809570 0.809614 -0.015784
C8    C     C_3   0.957949 0.784160 0.749051 0.219899
C9    C     C_3   0.096932 0.789750 0.674142 -0.151748
C10   C     C_3   0.261727 0.815383 0.735312 -0.169580
C11   C     C_3   0.309653 0.711654 0.745934 -0.117414
C12   C     C_3   0.144254 0.686978 0.685745 -0.034448
H3    H     H_    0.066696 0.823677 0.613498 0.100446
H4    H     H_    0.365251 0.872307 0.725368 0.119488
H5    H     H_    0.454491 0.679864 0.744448 0.118098
C13   C     C_R   0.274823 0.750203 0.187168 0.099992
C14   C     C_R   0.118364 0.810068 0.178853 -0.111576
C15   C     C_R   0.965836 0.799855 0.236004 -0.178755
H6    H     H_    0.842529 0.844719 0.232340 0.131081
C16   C     C_R   0.977381 0.736475 0.302316 -0.181574
H7    H     H_    0.861521 0.733603 0.347290 0.130135
C17   C     C_R   0.142445 0.681884 0.313845 -0.110266
C18   C     C_R   0.286656 0.687804 0.252973 0.099048
C19   C     C_3   0.496112 0.704436 0.263794 -0.415093
C20   C     C_3   0.483304 0.772017 0.191856 -0.396604
H8    H     H_    0.583013 0.642250 0.248611 0.172133
H9    H     H_    0.528942 0.738050 0.324941 0.170407
H10   H     H_    0.562183 0.748740 0.134941 0.173604
H11   H     H_    0.509471 0.844736 0.211135 0.166695
C21   C     C_R   0.498828 0.318848 0.744509 0.102657
C22   C     C_R   0.647773 0.317546 0.685382 -0.140508
C23   C     C_R   0.796465 0.253045 0.697259 -0.179681
H12   H     H_    0.916659 0.250428 0.654413 0.129087
C24   C     C_R   0.785544 0.187160 0.761368 -0.177530
H13   H     H_    0.898112 0.136120 0.766190 0.122132
C25   C     C_R   0.624808 0.183365 0.814938 -0.107191
C26   C     C_R   0.486926 0.252826 0.807024 0.056927
C27   C     C_3   0.273804 0.246634 0.800601 -0.396705
C28   C     C_3   0.286039 0.319997 0.732847 -0.023124
H14   H     H_    0.201309 0.269294 0.859349 0.178459
H15   H     H_    0.226896 0.178390 0.776104 0.144619
H16   H     H_    0.242033 0.295207 0.669642 0.141411
C29   C     C_R   0.491038 0.251159 0.308910 0.100009
C30   C     C_R   0.647500 0.311140 0.317187 -0.111035
C31   C     C_R   0.800003 0.300102 0.260036 -0.179536
H17   H     H_    0.923257 0.345066 0.263758 0.131325
C32   C     C_R   0.788401 0.235693 0.193652 -0.180553
H18   H     H_    0.904175 0.232098 0.148622 0.130400
C33   C     C_R   0.623322 0.180947 0.182149 -0.109329
C34   C     C_R   0.479160 0.187713 0.243025 0.097827
C35   C     C_3   0.269695 0.204180 0.232225 -0.414652
C36   C     C_3   0.282550 0.272948 0.304282 -0.396433
H19   H     H_    0.182777 0.142255 0.247292 0.171713
H20   H     H_    0.236851 0.236779 0.171143 0.170416
H21   H     H_    0.203666 0.250636 0.361157 0.172306
H22   H     H_    0.256398 0.345348 0.285137 0.166926
O11   O     O_R   0.771650 0.079500 0.908680 -0.539726
O12   O     O_R   0.441690 0.091800 0.082800 -0.539494
O13   O     O_R   0.271460 0.912980 0.083410 -0.536540
C37   C     C_R   0.610651 0.114254 0.111578 0.692973
O14   O     O_R   0.441930 0.090510 0.909280 -0.540224
O15   O     O_R   0.271690 0.911670 0.908660 -0.538405
C38   C     C_R   0.611000 0.112373 0.880581 0.699221
O16   O     O_R   0.771410 0.080810 0.083440 -0.540011
O17   O     O_3   0.605100 0.937580 0.996050 -0.368378
V3    V     V_3+5 0.330220 0.007110 0.996030 1.392411
O18   O     O_R   0.941980 0.900620 0.909250 -0.537385
C39   C     C_R   0.110660 0.879031 0.880071 0.685687
O19   O     O_R   0.941740 0.901920 0.082770 -0.542570
C40   C     C_R   0.110438 0.880120 0.111748 0.693925
V4    V     V_3+5 0.830220 0.985300 0.996000 1.390406
O20   O     O_3   0.105210 0.054870 0.996020 -0.370538
C41   C     C_3   0.196610 0.412340 0.758508 -0.733079
H23   H     H_    0.037883 0.406163 0.759422 0.211891
H24   H     H_    0.246556 0.434927 0.821541 0.199071
H25   H     H_    0.237237 0.465605 0.712553 0.207533
C42   C     C_3   0.758563 0.826023 0.748183 -0.811129
H26   H     H_    0.679339 0.799185 0.692900 0.202943
H27   H     H_    0.680971 0.807604 0.806414 0.220550
H28   H     H_    0.769217 0.902142 0.743801 0.199235

loop_
_geom_bond_atom_site_label_1
_geom_bond_atom_site_label_2
_ccdc_geom_bond_type
C41   H23   S    
C6    C7    S    
O11   C38   A    
C29   C36   S    
C1    O6    A    
O18   C39   A    
C36   H22   S    
C22   C23   A    
C27   C28   S    
C5    C12   S    
C17   C18   A    
C16   H7    S    
O5    C3    A    
C13   C14   A    
C36   H21   S    
V2    O10   S    
C5    H2    S    
C6    H1    S    
C9    C12   S    
C32   C33   A    
V3    O20   S    
O11   V4    S    
O8    V2    S    
C21   C28   S    
O19   C40   A    
C35   H19   S    
C8    C42   S    
O1    V2    S    
C9    H3    S    
C3    C17   S    
O14   V3    S    
O13   C40   A    
C41   H25   S    
C27   H15   S    
C24   C25   A    
C31   H17   S    
O9    C4    A    
C6    C11   S    
C27   H14   S    
C25   C26   A    
C20   H10   S    
C1    C22   S    
C11   H5    S    
C23   C24   A    
C31   C32   A    
C26   C27   S    
O15   V3    S    
C10   C11   S    
C19   H9    S    
O12   C37   A    
O15   C39   A    
C42   H26   S    
O4    C2    A    
C20   H11   S    
C11   C12   S    
V4    O20   S    
C14   C40   S    
O17   V3    S    
C13   C18   A    
C15   C16   A    
O2    C1    A    
C18   C19   S    
C42   H27   S    
C14   C15   A    
C9    C10   S    
C35   H20   S    
C5    C6    S    
C28   C41   S    
C4    C12   S    
O14   C38   A    
O3    C4    A    
C21   C26   A    
C24   H13   S    
O19   V4    S    
O6    V2    S    
O9    V2    S    
C30   C31   A    
O2    V1    S    
C25   C38   S    
O17   V4    S    
C21   C22   A    
O16   V4    S    
C29   C34   A    
O7    V1    S    
C28   H16   S    
C23   H12   S    
C2    C30   S    
O1    C2    A    
C10   H4    S    
O5    V1    S    
O8    C3    A    
C33   C37   S    
C5    C8    S    
C15   H6    S    
C41   H24   S    
O7    V2    S    
O4    V1    S    
O12   V3    S    
O3    V1    S    
V1    O10   S    
C34   C35   S    
C42   H28   S    
C19   H8    S    
C29   C30   A    
C19   C20   S    
O13   V3    S    
C13   C20   S    
C16   C17   A    
C32   H18   S    
C33   C34   A    
C7    C39   S    
C35   C36   S    
C37   O16   A    
C7    C10   S    
C8    C9    S    
C7    C8    S    
O18   V4    S    
