data_mof_unit_56974.cif
_audit_creation_date              2013-03-05T16:53:31-0500
_audit_creation_method            fapswitch 2.2
_symmetry_space_group_name_H-M    P1
_symmetry_Int_Tables_number       1
_space_group_crystal_system       triclinic
_cell_length_a                    17.311711
_cell_length_b                    16.809663
_cell_length_c                    10.864552
_cell_angle_alpha                 89.336828
_cell_angle_beta                  90.239966
_cell_angle_gamma                 89.553238
_cell_volume                      3161.29156672

loop_
_atom_site_label
_atom_site_type_symbol
_atom_site_description
_atom_site_fract_x
_atom_site_fract_y
_atom_site_fract_z
_atom_type_partial_charge
O1    O     O_R   0.389110 0.566570 0.499990 -0.639755
O2    O     O_R   0.610890 0.566570 0.500010 -0.651744
O3    O     O_R   0.389090 0.433480 0.499980 -0.570388
O4    O     O_R   0.610910 0.433480 0.500020 -0.545783
C1    C     C_R   0.354818 0.500387 0.522667 0.933334
C2    C     C_R   0.647334 0.499965 0.493089 0.901661
O5    O     O_R   0.500000 0.566530 0.319070 -0.617153
O6    O     O_R   0.500000 0.566530 0.680930 -0.623101
O7    O     O_R   0.499970 0.433440 0.319070 -0.589378
O8    O     O_R   0.500030 0.433440 0.680930 -0.590106
C3    C     C_R   0.500660 0.500499 0.262332 0.803334
C4    C     C_R   0.503043 0.499225 0.736572 0.775676
Zn1   Zn    Zn3+2 0.500000 0.588860 0.500000 0.913565
Zn2   Zn    Zn3+2 0.500000 0.411140 0.500000 1.003758
C5    C     C_2   0.487082 0.442116 0.936345 0.033192
C6    C     C_2   0.512031 0.439560 0.063082 0.051968
C7    C     C_2   0.523877 0.494737 0.863623 0.406225
C8    C     C_2   0.490033 0.501997 0.131490 0.345738
C9    C     C_R   0.848254 0.582408 0.478182 0.044725
C10   C     C_R   0.163354 0.578667 0.645310 0.046013
C11   C     C_R   0.771691 0.566973 0.438280 0.017889
C12   C     C_R   0.244731 0.569748 0.634655 0.018008
C13   C     C_R   0.731893 0.501553 0.491537 -0.312656
C14   C     C_R   0.274684 0.502284 0.570534 -0.327553
C15   C     C_R   0.772792 0.442659 0.557939 0.374325
C16   C     C_R   0.226598 0.435590 0.554606 0.410823
C17   C     C_R   0.848163 0.456960 0.595680 0.442048
C18   C     C_R   0.147030 0.443227 0.569737 0.441021
C19   C     C_R   0.885535 0.526038 0.555838 -0.127826
C20   C     C_R   0.115787 0.516481 0.605830 -0.148736
C21   C     C_1   0.966167 0.530618 0.580125 0.047599
C22   C     C_1   0.034333 0.527181 0.594930 0.036631
C23   C     C_R   0.435056 0.834126 0.466620 0.026129
C24   C     C_R   0.570190 0.829333 0.531044 0.026186
C25   C     C_R   0.435510 0.749548 0.468107 -0.056091
C26   C     C_R   0.566158 0.745518 0.530653 -0.048145
H1    H     H_    0.384736 0.716550 0.443246 0.140161
H2    H     H_    0.616852 0.710663 0.554788 0.141553
N1    N     N_R   0.500000 0.707230 0.500000 -0.113797
C27   C     C_R   0.503638 0.875054 0.498948 0.064672
C28   C     C_1   0.504534 0.963035 0.500117 -0.092395
C29   C     C_1   0.503832 0.035908 0.501013 0.136881
C30   C     C_R   0.470754 0.167129 0.401123 0.312912
C31   C     C_R   0.528703 0.166632 0.604429 0.292924
C32   C     C_R   0.469980 0.251638 0.402583 0.421941
C33   C     C_R   0.528439 0.251653 0.600970 0.432406
N2    N     N_R   0.500000 0.292770 0.500000 -0.205734
C34   C     C_R   0.501897 0.123767 0.501827 -0.234236
C35   C     C_3   0.416914 0.394183 0.895264 -0.467747
C36   C     C_3   0.371200 0.356851 0.001440 -0.307047
C37   C     C_3   0.298457 0.316233 0.954505 -0.924335
H3    H     H_    0.259957 0.360353 0.907674 0.254973
H4    H     H_    0.313940 0.268242 0.889446 0.267567
H5    H     H_    0.266497 0.289548 0.032857 0.251705
H6    H     H_    0.408215 0.311868 0.049297 0.260839
H7    H     H_    0.353924 0.403561 0.067716 0.235929
H8    H     H_    0.377079 0.433934 0.842160 0.177859
H9    H     H_    0.436274 0.345539 0.834458 0.263897
C38   C     C_3   0.569938 0.374699 0.099668 -0.428240
C39   C     C_3   0.649706 0.408507 0.130686 -0.364486
C40   C     C_3   0.710942 0.342786 0.136303 -0.922133
H10   H     H_    0.693603 0.295259 0.202218 0.266924
H11   H     H_    0.718814 0.316465 0.043806 0.259300
H12   H     H_    0.766875 0.367991 0.166725 0.244581
H13   H     H_    0.667133 0.452606 0.059541 0.258488
H14   H     H_    0.647816 0.438763 0.220957 0.208703
H15   H     H_    0.548957 0.337844 0.176986 0.268604
H16   H     H_    0.576456 0.333172 0.021283 0.216453
O9    O     O_3   0.441350 0.292964 0.301820 -0.598643
C41   C     C_3   0.359944 0.296985 0.306248 -0.162260
H17   H     H_    0.333532 0.268286 0.388450 0.158950
H18   H     H_    0.336026 0.267647 0.223999 0.149823
H19   H     H_    0.341470 0.360260 0.302005 0.205539
O10   O     O_3   0.547039 0.294627 0.704921 -0.581376
C42   C     C_3   0.620164 0.274575 0.754620 -0.147112
H20   H     H_    0.648463 0.330008 0.784983 0.177296
H21   H     H_    0.659516 0.244950 0.688781 0.149550
H22   H     H_    0.612820 0.236535 0.837804 0.174098
O11   O     O_3   0.582958 0.541844 0.910905 -0.634664
C43   C     C_3   0.647916 0.542347 0.832448 -0.381818
H23   H     H_    0.639672 0.586182 0.756224 0.202596
H24   H     H_    0.661458 0.482244 0.795704 0.162947
H25   H     H_    0.698981 0.561175 0.886134 0.182418
O12   O     O_3   0.444428 0.562270 0.078927 -0.635595
C44   C     C_3   0.482105 0.636568 0.085432 -0.202192
H26   H     H_    0.545015 0.632670 0.107413 0.159930
H27   H     H_    0.452921 0.674248 0.154733 0.168060
H28   H     H_    0.476987 0.666984 0.994745 0.186667
C45   C     C_3   0.889248 0.659671 0.444433 -0.393428
C46   C     C_3   0.888590 0.717103 0.553190 -0.347569
C47   C     C_3   0.911968 0.800737 0.512505 -0.914158
H29   H     H_    0.967420 0.799001 0.461690 0.271892
H30   H     H_    0.866665 0.827327 0.451726 0.258007
H31   H     H_    0.918860 0.839009 0.594316 0.251725
H32   H     H_    0.829643 0.720337 0.593326 0.223385
H33   H     H_    0.929155 0.695287 0.625814 0.223738
H34   H     H_    0.949634 0.646980 0.416038 0.185352
H35   H     H_    0.862620 0.690628 0.364522 0.215809
C48   C     C_3   0.126723 0.655970 0.690120 -0.386641
C49   C     C_3   0.118295 0.716277 0.583960 -0.335851
C50   C     C_3   0.102657 0.799804 0.631955 -0.905054
H36   H     H_    0.050405 0.800103 0.690896 0.268532
H37   H     H_    0.152906 0.820664 0.686358 0.260745
H38   H     H_    0.093262 0.841605 0.553444 0.256005
H39   H     H_    0.171656 0.717320 0.527863 0.220335
H40   H     H_    0.070065 0.698240 0.522943 0.225295
H41   H     H_    0.068973 0.645119 0.730969 0.181782
H42   H     H_    0.160251 0.682058 0.766245 0.217393
C51   C     C_3   0.735276 0.615215 0.332659 -0.369936
C52   C     C_3   0.775645 0.597441 0.209908 -0.377019
C53   C     C_3   0.748426 0.654626 0.108394 -0.902145
H43   H     H_    0.685568 0.647671 0.091628 0.273898
H44   H     H_    0.760326 0.717063 0.134445 0.260714
H45   H     H_    0.779917 0.641658 0.022035 0.243966
H46   H     H_    0.839360 0.601586 0.218027 0.225672
H47   H     H_    0.762536 0.535568 0.182320 0.221162
H48   H     H_    0.673806 0.600694 0.317223 0.209679
H49   H     H_    0.736173 0.679613 0.354398 0.195871
C54   C     C_3   0.296837 0.629140 0.700337 -0.400246
C55   C     C_3   0.295208 0.616557 0.841011 -0.344156
C56   C     C_3   0.314773 0.693193 0.907939 -0.860468
H50   H     H_    0.370955 0.716723 0.875447 0.258629
H51   H     H_    0.269195 0.738882 0.890730 0.245590
H52   H     H_    0.318344 0.681296 0.008538 0.267869
H53   H     H_    0.238041 0.595493 0.873351 0.220115
H54   H     H_    0.338205 0.569953 0.867398 0.238208
H55   H     H_    0.358178 0.625500 0.675780 0.235930
H56   H     H_    0.279157 0.690646 0.673709 0.205441
O13   O     O_3   0.739045 0.370904 0.588221 -0.595640
C57   C     C_3   0.756010 0.317099 0.492968 -0.258466
H57   H     H_    0.819032 0.303484 0.489379 0.180315
H58   H     H_    0.735419 0.340222 0.402104 0.161583
H59   H     H_    0.725622 0.260365 0.510519 0.150775
O14   O     O_3   0.255776 0.363144 0.517346 -0.589318
C58   C     C_3   0.280208 0.319820 0.623040 -0.306053
H60   H     H_    0.294219 0.257921 0.596362 0.167348
H61   H     H_    0.234712 0.316544 0.694567 0.142361
H62   H     H_    0.333143 0.345765 0.663593 0.184262
O15   O     O_3   0.887108 0.400292 0.665978 -0.600621
C59   C     C_3   0.870691 0.414057 0.790998 -0.335414
H63   H     H_    0.808101 0.406505 0.810767 0.180857
H64   H     H_    0.889983 0.474194 0.819396 0.147011
H65   H     H_    0.902955 0.369644 0.847813 0.185395
O16   O     O_3   0.099605 0.382718 0.529177 -0.573968
C60   C     C_3   0.068044 0.341556 0.631051 -0.233227
H66   H     H_    0.014337 0.311978 0.600556 0.218670
H67   H     H_    0.052550 0.380653 0.709458 0.153780
H68   H     H_    0.108248 0.294024 0.663107 0.145400
C61   C     C_3   0.363579 0.882209 0.429583 -0.422442
C62   C     C_3   0.290729 0.833941 0.402381 -0.367974
C63   C     C_3   0.222540 0.888439 0.369998 -0.887820
H69   H     H_    0.208857 0.927862 0.448452 0.261648
H70   H     H_    0.236034 0.925503 0.287655 0.258277
H71   H     H_    0.171022 0.851898 0.349363 0.250681
H72   H     H_    0.301269 0.793807 0.323479 0.220825
H73   H     H_    0.275669 0.798022 0.485064 0.219885
H74   H     H_    0.349962 0.924037 0.505194 0.209102
H75   H     H_    0.378000 0.917664 0.346037 0.208625
C64   C     C_3   0.646689 0.866621 0.564517 -0.441094
C65   C     C_3   0.665022 0.853861 0.701743 -0.338696
C66   C     C_3   0.741458 0.892213 0.736854 -0.906588
H76   H     H_    0.789490 0.864930 0.684412 0.270127
H77   H     H_    0.739586 0.957172 0.717292 0.254966
H78   H     H_    0.752641 0.882713 0.836672 0.252894
H79   H     H_    0.618037 0.879899 0.758275 0.226631
H80   H     H_    0.668943 0.789189 0.723629 0.216976
H81   H     H_    0.693017 0.838965 0.508252 0.197967
H82   H     H_    0.647188 0.931171 0.542265 0.207357
O17   O     O_3   0.447596 0.128318 0.295463 -0.552927
C67   C     C_3   0.374041 0.094093 0.313301 -0.283347
H83   H     H_    0.327599 0.138920 0.299829 0.151134
H84   H     H_    0.366672 0.065199 0.405004 0.140936
H85   H     H_    0.365505 0.047884 0.242621 0.183919
O18   O     O_3   0.545791 0.127604 0.714464 -0.567143
C68   C     C_3   0.614995 0.082932 0.704695 -0.324936
H86   H     H_    0.650133 0.092107 0.788875 0.176712
H87   H     H_    0.651655 0.099080 0.624022 0.127439
H88   H     H_    0.600821 0.018947 0.701767 0.200987

loop_
_geom_bond_atom_site_label_1
_geom_bond_atom_site_label_2
_geom_bond_distance
_ccdc_geom_bond_type
C58   H62   1.109681 S    
C3    C8    1.432539 S    
C50   H36   1.110506 S    
C17   C19   1.398825 A    
O17   C67   1.414533 S    
C25   N1    1.360579 A    
C53   H43   1.109867 S    
C59   H65   1.109175 S    
C33   O10   1.385814 S    
O7    Zn2   1.996877 S    
C15   O13   1.381237 S    
C60   H68   1.107668 S    
C60   H66   1.108981 S    
C30   O17   1.386248 S    
C51   H48   1.106170 S    
C46   H32   1.112607 S    
C68   H87   1.116466 S    
C10   C20   1.405577 A    
C44   H26   1.115257 S    
O5    C3    1.275864 A    
C48   H42   1.105260 S    
C10   C48   1.527112 S    
C49   H39   1.108965 S    
O6    Zn1   1.996968 S    
C24   C27   1.419970 A    
C9    C11   1.419566 A    
C31   O18   1.386701 S    
C55   H54   1.110791 S    
C67   H83   1.105739 S    
C5    C6    1.441427 S    
C7    O11   1.398088 S    
C35   H8    1.111511 S    
C64   H82   1.109042 S    
C58   H61   1.109995 S    
C28   C29   1.225076 T    
C63   H71   1.110430 S    
C40   H11   1.111192 S    
O2    Zn1   1.953049 S    
C52   C53   1.525282 S    
C56   H52   1.110212 S    
C16   O14   1.380429 S    
C38   H15   1.102456 S    
O18   C68   1.413978 S    
C64   C65   1.535279 S    
C4    C7    1.426228 S    
C8    O12   1.395087 S    
C63   H69   1.110905 S    
C41   H17   1.111886 S    
C18   O16   1.386793 S    
C65   H80   1.111613 S    
C61   H75   1.110450 S    
C40   H10   1.110641 S    
C54   H56   1.110730 S    
C44   H27   1.110205 S    
C39   H14   1.110484 S    
C38   C39   1.535004 S    
C50   H37   1.110971 S    
C62   H73   1.109660 S    
C63   H70   1.110955 S    
O2    C2    1.283959 A    
C43   H25   1.107338 S    
C66   H77   1.110212 S    
C31   C33   1.429208 A    
C51   H49   1.110857 S    
C66   H76   1.109244 S    
C68   H88   1.105844 S    
C32   N2    1.373411 A    
C12   C54   1.531262 S    
C23   C27   1.421671 A    
Zn1   N1    1.989760 S    
O10   C42   1.411075 S    
C60   H67   1.114297 S    
C32   O9    1.378114 S    
C37   H3    1.110789 S    
C58   H60   1.108660 S    
C59   H63   1.113444 S    
O4    C2    1.289080 A    
O8    Zn2   2.005402 S    
C47   H29   1.109759 S    
C55   H53   1.110741 S    
C43   H23   1.110127 S    
C26   N1    1.360192 A    
C36   H7    1.111611 S    
C35   H9    1.107919 S    
C45   H34   1.110962 S    
C39   C40   1.525656 S    
C37   H4    1.110706 S    
C6    C38   1.523569 S    
C40   H12   1.110552 S    
C57   H58   1.112979 S    
C42   H20   1.109047 S    
C9    C45   1.526573 S    
C38   H16   1.112934 S    
C47   H30   1.110976 S    
C30   C32   1.420803 A    
C68   H86   1.109200 S    
O6    C4    1.277179 A    
C41   H19   1.108682 S    
C36   C37   1.525837 S    
C53   H44   1.110794 S    
C29   C34   1.477130 S    
C65   H79   1.111429 S    
O12   C44   1.415844 S    
C54   C55   1.540909 S    
O7    C3    1.278666 A    
C56   H50   1.110261 S    
Zn2   N2    1.989760 S    
O3    Zn2   1.953544 S    
O8    C4    1.267736 A    
C43   H24   1.114204 S    
C27   C28   1.479337 S    
C10   C12   1.420919 A    
C39   H13   1.109134 S    
C50   H38   1.109487 S    
C62   H72   1.111780 S    
C11   C13   1.421001 A    
C12   C14   1.432632 A    
C57   H59   1.107736 S    
O1    Zn1   1.958786 S    
C9    C19   1.411956 A    
C52   H47   1.110589 S    
O1    C1    1.286863 A    
C66   H78   1.110324 S    
C55   C56   1.526244 S    
O13   C57   1.412558 S    
C30   C34   1.410503 A    
C44   H28   1.107667 S    
C5    C7    1.345085 D    
C33   N2    1.376988 A    
C25   H1    1.078113 S    
C16   C18   1.393036 A    
C21   C22   1.191174 T    
C14   C16   1.413377 A    
O16   C60   1.412648 S    
O3    C1    1.294185 A    
C11   C51   1.528480 S    
O15   C59   1.410229 S    
C46   H33   1.111228 S    
O14   C58   1.414087 S    
C59   H64   1.113664 S    
C15   C17   1.389642 A    
C48   H41   1.111045 S    
C49   H40   1.110181 S    
C36   H6    1.110517 S    
C48   C49   1.532473 S    
C45   H35   1.104313 S    
C37   H5    1.109475 S    
C65   C66   1.525406 S    
C26   H2    1.081079 S    
C57   H57   1.113950 S    
C19   C21   1.422354 S    
C23   C61   1.522835 S    
C61   C62   1.534457 S    
C24   C64   1.514325 S    
C47   H31   1.109828 S    
C20   C22   1.424403 S    
C46   C47   1.526962 S    
C1    C14   1.483790 S    
C67   H84   1.111603 S    
C2    C13   1.464476 S    
C18   C20   1.401836 A    
C49   C50   1.526031 S    
C23   C25   1.421593 A    
C64   H81   1.112606 S    
C53   H45   1.110053 S    
C24   C26   1.411227 A    
C5    C35   1.530698 S    
O4    Zn2   1.959290 S    
O9    C41   1.411407 S    
C42   H22   1.109361 S    
C17   O15   1.383511 S    
C56   H51   1.110582 S    
O11   C43   1.413943 S    
O5    Zn1   2.005504 S    
C13   C15   1.403604 A    
C6    C8    1.346536 D    
C35   C36   1.532783 S    
C42   H21   1.109414 S    
C62   C63   1.526019 S    
C41   H18   1.106101 S    
C45   C46   1.534497 S    
C51   C52   1.539485 S    
C61   H74   1.112283 S    
C52   H46   1.108967 S    
C31   C34   1.413024 A    
C67   H85   1.108824 S    
C54   H55   1.097427 S    
