data_mof_unit_22116.cif
_audit_creation_date              2012-12-10T17:16:39-0500
_audit_creation_method            fapswitch 2.2
_symmetry_space_group_name_H-M    P1
_symmetry_Int_Tables_number       1
_space_group_crystal_system       triclinic
_cell_length_a                    10.106374
_cell_length_b                    10.398882
_cell_length_c                    10.834853
_cell_angle_alpha                 90.517395
_cell_angle_beta                  95.856373
_cell_angle_gamma                 81.885646
_cell_volume                      1121.3883655

loop_
_atom_site_label
_atom_site_type_symbol
_atom_type_description
_atom_site_fract_x
_atom_site_fract_y
_atom_site_fract_z
_atom_type_partial_charge
C1    C     C_R   0.442908 0.503804 0.267575 0.967955
C2    C     C_R   0.557323 0.492464 0.732523 0.873730
C3    C     C_2   0.408395 0.512365 0.135379 -0.385447
C4    C     C_2   0.592728 0.470956 0.863468 -0.356535
C5    C     C_2   0.498352 0.458958 0.060198 0.216504
C6    C     C_2   0.510169 0.527072 0.943531 0.231045
C7    C     C_2   0.074131 0.484219 0.491888 -0.112572
C8    C     C_2   0.933186 0.493256 0.522509 -0.154301
C9    C     C_R   0.507798 0.262595 0.528004 0.889462
C10   C     C_R   0.508060 0.736464 0.527382 0.891596
C11   C     C_R   0.774344 0.097057 0.594159 -0.145506
C12   C     C_R   0.311584 0.896227 0.682150 -0.158328
C13   C     C_R   0.894151 0.013435 0.593328 -0.164898
C14   C     C_R   0.215799 0.977819 0.740435 -0.176807
C15   C     C_R   0.893998 0.880284 0.597173 -0.151292
C16   C     C_R   0.218769 0.110948 0.743474 -0.162460
C17   C     C_R   0.773060 0.830907 0.598039 -0.132867
C18   C     C_R   0.318452 0.163108 0.689129 -0.141543
C19   C     C_R   0.648769 0.913537 0.584957 0.090988
C20   C     C_R   0.417243 0.082002 0.630039 0.088389
C21   C     C_R   0.649293 0.048850 0.584627 0.094421
C22   C     C_R   0.415307 0.946478 0.627732 0.102523
C23   C     C_R   0.523484 0.866062 0.579224 -0.272144
C24   C     C_R   0.524353 0.130772 0.580629 -0.265117
H1    H     H_    0.145294 0.173715 0.790549 0.137786
H2    H     H_    0.988091 0.815587 0.604581 0.128817
H3    H     H_    0.783371 0.198231 0.609545 0.170189
H4    H     H_    0.307452 0.793708 0.689188 0.164836
H5    H     H_    0.987535 0.052791 0.595013 0.160204
H6    H     H_    0.140005 0.937193 0.785262 0.140303
H7    H     H_    0.778683 0.729072 0.617036 0.149681
H8    H     H_    0.322457 0.265631 0.702292 0.168042
H9    H     H_    0.668758 0.388475 0.888587 0.128888
H10   H     H_    0.325605 0.586447 0.103373 0.137162
H11   H     H_    0.905648 0.539591 0.607757 0.148689
H12   H     H_    0.108005 0.420561 0.418045 0.167202
H13   H     H_    0.872760 0.406436 0.367952 0.171308
H14   H     H_    0.123138 0.608366 0.622786 0.146809
N1    N     N_2   0.157300 0.551390 0.551120 -0.201059
N2    N     N_2   0.842700 0.448610 0.448880 -0.194748
O1    O     O_R   0.568940 0.489660 0.307530 -0.578097
O2    O     O_R   0.431060 0.510340 0.692470 -0.615535
O3    O     O_R   0.348880 0.522640 0.340350 -0.600358
O4    O     O_R   0.651120 0.477360 0.659650 -0.642492
O5    O     O_R   0.610030 0.300280 0.483580 -0.616365
O6    O     O_R   0.389970 0.699720 0.516420 -0.608913
O7    O     O_R   0.389970 0.333270 0.516400 -0.615438
O8    O     O_R   0.610030 0.666730 0.483600 -0.600501
Zn1   Zn    Zn3+2 0.646940 0.477980 0.478080 0.924657
Zn2   Zn    Zn3+2 0.353060 0.522020 0.521920 0.919771
C25   C     C_3   0.433769 0.662332 0.916623 -0.890115
H15   H     H_    0.444720 0.724766 0.999678 0.234496
H16   H     H_    0.475514 0.711550 0.842069 0.227608
H17   H     H_    0.325718 0.656694 0.889922 0.233178
C26   C     C_3   0.587903 0.331297 0.095189 -0.866722
H18   H     H_    0.576634 0.259838 0.019424 0.221774
H19   H     H_    0.694486 0.347707 0.111390 0.237658
H20   H     H_    0.560221 0.285488 0.179316 0.244487

loop_
_geom_bond_atom_site_label_1
_geom_bond_atom_site_label_2
_ccdc_geom_bond_type
O4    Zn1   S    
C10   O6    A    
C19   C23   A    
C26   H18   S    
C9    C24   S    
C9    O5    A    
C11   H3    S    
C10   C23   S    
O7    Zn2   S    
C1    O3    A    
C7    H12   S    
O6    Zn2   S    
C2    C4    S    
O5    Zn1   S    
C8    H11   S    
C13   H5    S    
C25   H17   S    
C3    C5    D    
C26   H19   S    
C12   C14   A    
C7    C8    S    
O3    Zn2   S    
C16   C18   A    
C20   C24   A    
C11   C13   A    
C5    C6    S    
O2    Zn2   S    
C1    O1    A    
O8    Zn1   S    
C19   C21   A    
C2    O2    A    
C9    O7    A    
H13   N2    S    
C18   C20   A    
C13   C15   A    
C10   O8    A    
H14   N1    S    
C17   H7    S    
C14   C16   A    
C21   C24   A    
C18   H8    S    
C20   C22   A    
C11   C21   A    
N2    Zn1   S    
C12   C22   A    
N1    Zn2   S    
C12   H4    S    
C4    C6    D    
C1    C3    S    
C26   H20   S    
O1    Zn1   S    
C16   H1    S    
C15   C17   A    
C7    N1    D    
C4    H9    S    
C15   H2    S    
C8    N2    D    
C3    H10   S    
C17   C19   A    
C14   H6    S    
C5    C26   S    
C22   C23   A    
C25   H15   S    
C2    O4    A    
C25   H16   S    
C6    C25   S    
