data_mof_unit_54390.cif
_audit_creation_date              2012-12-11T15:34:47-0500
_audit_creation_method            fapswitch 2.2
_symmetry_space_group_name_H-M    P1
_symmetry_Int_Tables_number       1
_space_group_crystal_system       orthorhombic
_cell_length_a                    17.397848
_cell_length_b                    17.38086
_cell_length_c                    17.45839
_cell_angle_alpha                 90.0
_cell_angle_beta                  90.0
_cell_angle_gamma                 90.0
_cell_volume                      5279.2348772

loop_
_atom_site_label
_atom_site_type_symbol
_atom_type_description
_atom_site_fract_x
_atom_site_fract_y
_atom_site_fract_z
_atom_type_partial_charge
C1    C     C_R   0.826401 0.082285 0.358940 0.526443
C2    C     C_R   0.198156 0.106610 0.402978 0.513047
C3    C     C_R   0.890148 0.197570 0.597590 0.563412
C4    C     C_R   0.080161 0.830188 0.356454 0.448228
C5    C     C_R   0.173599 0.082285 0.641060 0.526444
C6    C     C_R   0.801844 0.893390 0.402977 0.513046
C7    C     C_R   0.109852 0.802430 0.597590 0.563412
C8    C     C_R   0.919839 0.169812 0.356454 0.448227
C9    C     C_R   0.326400 0.582285 0.858940 0.526444
C10   C     C_R   0.698156 0.393390 0.097022 0.513045
C11   C     C_R   0.390148 0.302430 0.902409 0.563410
C12   C     C_R   0.198156 0.893390 0.597022 0.513048
C13   C     C_R   0.580161 0.669812 0.143546 0.448227
C14   C     C_R   0.673600 0.417715 0.858940 0.526444
C15   C     C_R   0.301844 0.606610 0.097022 0.513047
C16   C     C_R   0.609852 0.697570 0.902409 0.563411
C17   C     C_R   0.419839 0.330188 0.143546 0.448227
C18   C     C_R   0.326401 0.417715 0.141060 0.526445
C19   C     C_R   0.698156 0.606610 0.902978 0.513047
C20   C     C_R   0.390148 0.697570 0.097590 0.563411
C21   C     C_R   0.580161 0.330187 0.856454 0.448227
C22   C     C_R   0.673599 0.582285 0.141060 0.526444
C23   C     C_R   0.890148 0.802430 0.402409 0.563410
C24   C     C_R   0.301844 0.393391 0.902978 0.513045
C25   C     C_R   0.609852 0.302430 0.097591 0.563410
C26   C     C_R   0.419839 0.669813 0.856454 0.448228
C27   C     C_R   0.182143 0.184424 0.740937 0.161598
C28   C     C_R   0.765391 0.771155 0.341940 0.161596
C29   C     C_R   0.765390 0.228845 0.658059 0.161596
C30   C     C_R   0.182143 0.815576 0.259063 0.161598
C31   C     C_R   0.817857 0.815576 0.740937 0.161598
C32   C     C_R   0.234609 0.228845 0.341941 0.161596
C33   C     C_R   0.234609 0.771155 0.658059 0.161596
C34   C     C_R   0.080161 0.169812 0.643546 0.448227
C35   C     C_R   0.817857 0.184424 0.259062 0.161597
C36   C     C_R   0.682143 0.684424 0.240937 0.161598
C37   C     C_R   0.265391 0.271155 0.841940 0.161596
C38   C     C_R   0.265391 0.728845 0.158059 0.161596
C39   C     C_R   0.682143 0.315576 0.759062 0.161598
C40   C     C_R   0.317857 0.315576 0.240937 0.161597
C41   C     C_R   0.734609 0.728845 0.841940 0.161596
C42   C     C_R   0.734609 0.271155 0.158059 0.161596
C43   C     C_R   0.317856 0.684424 0.759063 0.161598
C44   C     C_R   0.858325 0.140695 0.315419 -0.343348
C45   C     C_R   0.173599 0.917715 0.358940 0.526444
C46   C     C_R   0.185704 0.817137 0.611366 -0.307079
C47   C     C_R   0.814296 0.817138 0.388633 -0.307073
C48   C     C_R   0.141674 0.140695 0.684581 -0.343350
C49   C     C_R   0.141675 0.859305 0.315419 -0.343349
C50   C     C_R   0.814295 0.182863 0.611366 -0.307081
C51   C     C_R   0.185704 0.182862 0.388634 -0.307079
C52   C     C_R   0.858325 0.859305 0.684581 -0.343350
C53   C     C_R   0.358325 0.640695 0.815419 -0.343349
C54   C     C_R   0.685704 0.317138 0.111366 -0.307075
C55   C     C_R   0.314296 0.317138 0.888633 -0.307073
C56   C     C_R   0.801844 0.106610 0.597021 0.513049
C57   C     C_R   0.641674 0.640695 0.184581 -0.343350
C58   C     C_R   0.641675 0.359305 0.815419 -0.343349
C59   C     C_R   0.314296 0.682862 0.111366 -0.307076
C60   C     C_R   0.685704 0.682862 0.888633 -0.307076
C61   C     C_R   0.358325 0.359305 0.184581 -0.343349
C62   C     C_R   0.243080 0.303139 0.772151 -0.195048
C63   C     C_R   0.703058 0.652153 0.311281 -0.234673
C64   C     C_R   0.702308 0.240482 0.778672 -0.119264
C65   C     C_R   0.245986 0.804143 0.137825 -0.050329
C66   C     C_R   0.756920 0.696861 0.772152 -0.195044
C67   C     C_R   0.109852 0.197570 0.402410 0.563412
C68   C     C_R   0.296941 0.347847 0.311281 -0.234672
C69   C     C_R   0.297691 0.759517 0.778673 -0.119261
C70   C     C_R   0.754014 0.195857 0.137825 -0.050329
C71   C     C_R   0.243080 0.696861 0.227848 -0.195043
C72   C     C_R   0.703059 0.347848 0.688719 -0.234672
C73   C     C_R   0.702310 0.759517 0.221326 -0.119256
C74   C     C_R   0.245986 0.195857 0.862175 -0.050328
C75   C     C_R   0.756920 0.303139 0.227848 -0.195045
C76   C     C_R   0.296942 0.652153 0.688719 -0.234672
C77   C     C_R   0.297691 0.240482 0.221327 -0.119261
C78   C     C_R   0.919839 0.830188 0.643546 0.448227
C79   C     C_R   0.754014 0.804143 0.862175 -0.050329
C80   C     C_R   0.743081 0.803138 0.272151 -0.195049
C81   C     C_R   0.203058 0.152153 0.811281 -0.234672
C82   C     C_R   0.202309 0.740483 0.278673 -0.119260
C83   C     C_R   0.745986 0.304144 0.637825 -0.050332
C84   C     C_R   0.256920 0.196861 0.272152 -0.195040
C85   C     C_R   0.796942 0.847847 0.811281 -0.234673
C86   C     C_R   0.797692 0.259517 0.278673 -0.119260
C87   C     C_R   0.254014 0.695857 0.637825 -0.050331
C88   C     C_R   0.743079 0.196861 0.727847 -0.195037
C89   C     C_R   0.826401 0.917715 0.641060 0.526446
C90   C     C_R   0.203058 0.847847 0.188719 -0.234672
C91   C     C_R   0.202309 0.259517 0.721327 -0.119257
C92   C     C_R   0.745985 0.695857 0.362175 -0.050327
C93   C     C_R   0.256919 0.803139 0.727848 -0.195039
C94   C     C_R   0.796941 0.152153 0.188719 -0.234672
C95   C     C_R   0.797691 0.740483 0.721327 -0.119258
C96   C     C_R   0.254014 0.304143 0.362175 -0.050330
H1    H     H_    0.259655 0.361041 0.755920 0.137312
H2    H     H_    0.687409 0.406421 0.674341 0.131463
H3    H     H_    0.687431 0.783892 0.166112 0.150692
H4    H     H_    0.264225 0.171459 0.916293 0.149229
H5    H     H_    0.740346 0.361041 0.244079 0.137313
H6    H     H_    0.312593 0.593580 0.674340 0.131463
H7    H     H_    0.312570 0.216106 0.166114 0.150693
H8    H     H_    0.735775 0.828542 0.916293 0.149229
H9    H     H_    0.759657 0.861041 0.255919 0.137312
H10   H     H_    0.187408 0.093580 0.825660 0.131463
H11   H     H_    0.187430 0.716107 0.333887 0.150693
H12   H     H_    0.687407 0.593580 0.325660 0.131463
H13   H     H_    0.764226 0.328543 0.583707 0.149230
H14   H     H_    0.240345 0.138958 0.255922 0.137313
H15   H     H_    0.812592 0.906420 0.825659 0.131463
H16   H     H_    0.812571 0.283894 0.333886 0.150693
H17   H     H_    0.235776 0.671458 0.583706 0.149229
H18   H     H_    0.759654 0.138958 0.744078 0.137314
H19   H     H_    0.187408 0.906420 0.174341 0.131463
H20   H     H_    0.187430 0.283893 0.666113 0.150693
H21   H     H_    0.764224 0.671459 0.416294 0.149228
H22   H     H_    0.240344 0.861041 0.744079 0.137312
H23   H     H_    0.687429 0.216106 0.833886 0.150694
H24   H     H_    0.812592 0.093579 0.174341 0.131463
H25   H     H_    0.812570 0.716107 0.666113 0.150693
H26   H     H_    0.235774 0.328542 0.416293 0.149230
H27   H     H_    0.735338 0.064200 0.298180 0.321821
H28   H     H_    0.308690 0.886103 0.587718 0.322237
H29   H     H_    0.964226 0.736229 0.449203 0.339894
H30   H     H_    0.045383 0.243943 0.718157 0.333719
H31   H     H_    0.264661 0.935800 0.298180 0.321821
H32   H     H_    0.691310 0.113898 0.587714 0.322236
H33   H     H_    0.035773 0.263771 0.449203 0.339895
H34   H     H_    0.264225 0.828542 0.083707 0.149229
H35   H     H_    0.954617 0.756057 0.718157 0.333719
H36   H     H_    0.735339 0.935801 0.701820 0.321820
H37   H     H_    0.308690 0.113897 0.412282 0.322237
H38   H     H_    0.964227 0.263771 0.550797 0.339894
H39   H     H_    0.045383 0.756057 0.281844 0.333719
H40   H     H_    0.264661 0.064199 0.701820 0.321820
H41   H     H_    0.691310 0.886105 0.412275 0.322238
H42   H     H_    0.035773 0.736229 0.550796 0.339894
H43   H     H_    0.954617 0.243942 0.281843 0.333719
H44   H     H_    0.235339 0.564200 0.798180 0.321821
H45   H     H_    0.740345 0.638959 0.755920 0.137312
H46   H     H_    0.808690 0.386104 0.087721 0.322239
H47   H     H_    0.464226 0.236229 0.949203 0.339894
H48   H     H_    0.545383 0.743943 0.218156 0.333719
H49   H     H_    0.764662 0.435799 0.798181 0.321821
H50   H     H_    0.191310 0.613896 0.087720 0.322237
H51   H     H_    0.535773 0.763771 0.949204 0.339894
H52   H     H_    0.454617 0.256057 0.218157 0.333719
H53   H     H_    0.235338 0.435800 0.201820 0.321821
H54   H     H_    0.808690 0.613896 0.912279 0.322236
H55   H     H_    0.464227 0.763771 0.050796 0.339894
H56   H     H_    0.312592 0.406421 0.325659 0.131463
H57   H     H_    0.545383 0.256057 0.781843 0.333719
H58   H     H_    0.764661 0.564199 0.201821 0.321821
H59   H     H_    0.191310 0.386105 0.912276 0.322238
H60   H     H_    0.535773 0.236229 0.050796 0.339894
H61   H     H_    0.454616 0.743943 0.781844 0.333719
H62   H     H_    0.312569 0.783893 0.833887 0.150693
H63   H     H_    0.735774 0.171458 0.083707 0.149230
H64   H     H_    0.259655 0.638959 0.244079 0.137312
N1    N     N_R   0.868470 0.074730 0.422590 -0.094932
N2    N     N_R   0.131530 0.074730 0.422590 -0.114688
N3    N     N_R   0.925270 0.131530 0.577410 -0.155789
N4    N     N_R   0.074730 0.868470 0.422590 -0.130119
N5    N     N_R   0.131530 0.074730 0.577410 -0.094932
N6    N     N_R   0.868470 0.925270 0.422590 -0.114687
N7    N     N_R   0.074730 0.868470 0.577410 -0.155790
N8    N     N_R   0.925270 0.131530 0.422590 -0.130120
N9    N     N_R   0.368470 0.574730 0.922590 -0.094932
N10   N     N_R   0.631530 0.425270 0.077410 -0.114688
N11   N     N_R   0.425270 0.368470 0.922590 -0.155790
N12   N     N_R   0.131530 0.925270 0.577410 -0.114688
N13   N     N_R   0.574730 0.631530 0.077410 -0.130119
N14   N     N_R   0.631530 0.425270 0.922590 -0.094932
N15   N     N_R   0.368470 0.574730 0.077410 -0.114688
N16   N     N_R   0.574730 0.631530 0.922590 -0.155790
N17   N     N_R   0.425270 0.368470 0.077410 -0.130119
N18   N     N_R   0.368470 0.425270 0.077410 -0.094931
N19   N     N_R   0.631530 0.574730 0.922590 -0.114688
N20   N     N_R   0.425270 0.631530 0.077410 -0.155790
N21   N     N_R   0.574730 0.368470 0.922590 -0.130119
N22   N     N_R   0.631530 0.574730 0.077410 -0.094932
N23   N     N_R   0.925270 0.868470 0.422590 -0.155790
N24   N     N_R   0.368470 0.425270 0.922590 -0.114688
N25   N     N_R   0.574730 0.368470 0.077410 -0.155790
N26   N     N_R   0.425270 0.631530 0.922590 -0.130119
N27   N     N_R   0.074730 0.131530 0.577410 -0.130119
N28   N     N_R   0.131530 0.925270 0.422590 -0.094932
N29   N     N_R   0.868470 0.074730 0.577410 -0.114688
N30   N     N_R   0.074730 0.131530 0.422590 -0.155789
N31   N     N_R   0.925270 0.868470 0.577410 -0.130119
N32   N     N_R   0.868470 0.925270 0.577410 -0.094931
Ni1   Ni    Ni4+2 0.869670 0.000000 0.500000 0.309478
Ni2   Ni    Ni4+2 0.130330 0.000000 0.500000 0.309477
Ni3   Ni    Ni4+2 1.000000 0.869670 0.500000 0.187569
Ni4   Ni    Ni4+2 0.000000 0.130330 0.500000 0.187568
Ni5   Ni    Ni4+2 0.369670 0.500000 0.000000 0.309478
Ni6   Ni    Ni4+2 0.630330 0.500000 0.000000 0.309478
Ni7   Ni    Ni4+2 0.500000 0.369670 0.000000 0.187568
Ni8   Ni    Ni4+2 0.500000 0.630330 0.000000 0.187568
O1    O     O_3   0.756288 0.047646 0.348183 -0.683892
O2    O     O_3   0.268054 0.075432 0.423176 -0.636855
O3    O     O_3   0.916011 0.270076 0.579828 -0.702913
O4    O     O_3   0.035491 0.768289 0.336382 -0.740298
O5    O     O_3   0.243712 0.047646 0.651817 -0.683890
O6    O     O_3   0.731946 0.924568 0.423175 -0.636855
O7    O     O_3   0.083989 0.729924 0.579828 -0.702912
O8    O     O_3   0.964509 0.231711 0.336381 -0.740299
O9    O     O_3   0.256288 0.547646 0.848183 -0.683892
O10   O     O_3   0.768053 0.424568 0.076824 -0.636856
O11   O     O_3   0.416011 0.229924 0.920172 -0.702912
O12   O     O_3   0.268054 0.924568 0.576824 -0.636854
O13   O     O_3   0.535491 0.731711 0.163618 -0.740299
O14   O     O_3   0.743712 0.452354 0.848183 -0.683890
O15   O     O_3   0.231946 0.575432 0.076825 -0.636853
O16   O     O_3   0.583989 0.770076 0.920172 -0.702912
O17   O     O_3   0.464509 0.268289 0.163618 -0.740298
O18   O     O_3   0.256288 0.452354 0.151817 -0.683890
O19   O     O_3   0.768053 0.575432 0.923175 -0.636853
O20   O     O_3   0.416011 0.770076 0.079828 -0.702913
O21   O     O_3   0.535491 0.268289 0.836382 -0.740298
O22   O     O_3   0.743711 0.547646 0.151817 -0.683891
O23   O     O_3   0.916011 0.729924 0.420171 -0.702912
O24   O     O_3   0.231946 0.424568 0.923175 -0.636855
O25   O     O_3   0.583989 0.229924 0.079828 -0.702913
O26   O     O_3   0.464509 0.731711 0.836382 -0.740298
O27   O     O_3   0.035491 0.231711 0.663619 -0.740298
O28   O     O_3   0.243712 0.952354 0.348183 -0.683890
O29   O     O_3   0.731946 0.075431 0.576824 -0.636854
O30   O     O_3   0.083989 0.270076 0.420172 -0.702913
O31   O     O_3   0.964509 0.768289 0.663619 -0.740298
O32   O     O_3   0.756289 0.952354 0.651817 -0.683888

loop_
_geom_bond_atom_site_label_1
_geom_bond_atom_site_label_2
_ccdc_geom_bond_type
C27   C48   S    
H60   O25   S    
C19   O19   S    
C37   C74   A    
C6    N6    A    
C28   C47   S    
H58   O22   S    
H32   O29   S    
C31   C85   A    
N27   Ni4   S    
C24   N24   A    
C3    O3    S    
N12   Ni2   S    
H30   O27   S    
N22   Ni6   S    
N6    Ni1   S    
C79   C85   A    
C31   C52   S    
C30   C90   A    
C1    O1    S    
N5    Ni2   S    
C2    N2    A    
C22   C57   A    
C7    O7    S    
C37   C62   A    
C52   C89   A    
C67   N30   A    
C17   O17   S    
C96   H26   S    
C20   N20   A    
C66   H45   S    
C72   H2    S    
C24   C55   A    
C21   N21   A    
C39   C64   A    
C22   O22   S    
C42   C75   A    
C68   C96   A    
C64   H23   S    
C21   O21   S    
N20   Ni8   S    
C70   C94   A    
N9    N26   A    
C29   C83   A    
C69   C93   A    
H48   O13   S    
C35   C86   A    
C4    O4    S    
C13   C57   A    
C17   N17   A    
C42   C70   A    
C91   H20   S    
C14   O14   S    
C8    O8    S    
C70   H63   S    
C16   C60   A    
C13   O13   S    
C16   O16   S    
N15   Ni5   S    
C29   C88   A    
N11   Ni7   S    
C8    N8    A    
C17   C61   A    
C38   C71   A    
C94   H24   S    
C10   O10   S    
N16   N19   A    
H40   O5    S    
C67   O30   S    
C9    O9    S    
N4    Ni3   S    
C2    O2    S    
C63   C92   A    
N23   Ni3   S    
C39   C72   A    
C83   H13   S    
C27   C91   A    
C5    N5    A    
C36   C63   A    
H52   O17   S    
H50   O15   S    
N30   Ni4   S    
H41   O6    S    
C71   C82   A    
C11   O11   S    
C95   H25   S    
C24   O24   S    
H38   O3    S    
N28   Ni2   S    
C43   C69   A    
N13   Ni8   S    
N3    N29   A    
C33   C46   S    
C20   O20   S    
N26   Ni8   S    
H59   O24   S    
N7    Ni3   S    
N16   Ni8   S    
C52   C78   A    
H36   O32   S    
N14   N21   A    
C89   N32   A    
C3    C50   A    
C43   C53   S    
H44   O9    S    
C65   H34   S    
N31   Ni3   S    
C29   C50   S    
H29   O23   S    
C76   H6    S    
C65   C90   A    
C14   C58   A    
C5    C48   A    
N14   Ni6   S    
C23   C47   A    
C6    C47   A    
H27   O1    S    
C41   C60   S    
C40   C68   A    
N31   N32   A    
C72   C83   A    
C7    C46   A    
N11   N24   A    
C27   C81   A    
C25   C54   A    
C12   O12   S    
C15   O15   S    
H51   O16   S    
C36   C73   A    
C6    O6    S    
C74   H4    S    
H28   O12   S    
C77   C84   A    
N4    N28   A    
C78   O31   S    
C82   H11   S    
C39   C58   S    
C80   H9    S    
C45   N28   A    
C50   C56   A    
C40   C61   S    
H49   O14   S    
C45   O28   S    
C9    N9    A    
C30   C82   A    
C13   N13   A    
C92   H21   S    
C32   C51   S    
H57   O21   S    
C68   H56   S    
C62   H1    S    
C75   C86   A    
C38   C65   A    
C45   C49   A    
H54   O19   S    
C1    C44   A    
C62   C91   A    
N2    Ni2   S    
C4    N4    A    
C69   H62   S    
C88   H18   S    
N1    Ni1   S    
C28   C92   A    
N5    N27   A    
C90   H19   S    
N25   Ni7   S    
C20   C59   A    
C35   C44   S    
C76   C87   A    
C23   N23   A    
C41   C66   A    
C25   N25   A    
H61   O26   S    
C12   C46   A    
N7    N12   A    
C32   C96   A    
N18   Ni5   S    
C23   O23   S    
N13   N22   A    
C36   C57   S    
C1    N1    A    
N8    Ni4   S    
H31   O28   S    
C79   H8    S    
C77   H7    S    
C9    C53   A    
C93   H22   S    
H46   O10   S    
C74   C81   A    
N21   Ni7   S    
C26   C53   A    
C19   N19   A    
C11   N11   A    
N2    N30   A    
C11   C55   A    
C12   N12   A    
N9    Ni5   S    
C35   C94   A    
H35   O31   S    
C43   C76   A    
C73   H3    S    
C7    N7    A    
C56   N29   A    
N24   Ni5   S    
C40   C77   A    
C15   C59   A    
C30   C49   S    
N6    N23   A    
C8    C44   A    
C32   C84   A    
C85   H15   S    
C33   C93   A    
C41   C79   A    
H47   O11   S    
H42   O7    S    
C18   C61   A    
H39   O4    S    
N19   Ni6   S    
C3    N3    A    
C19   C60   A    
C10   N10   A    
C71   H64   S    
C15   N15   A    
C4    C49   A    
N32   Ni1   S    
C34   O27   S    
C78   N31   A    
C21   C58   A    
C22   N22   A    
C42   C54   S    
N10   Ni6   S    
C26   N26   A    
C16   N16   A    
C51   C67   A    
N3    Ni4   S    
C26   O26   S    
C31   C95   A    
H33   O30   S    
N10   N25   A    
C25   O25   S    
C28   C80   A    
C73   C80   A    
C56   O29   S    
H53   O18   S    
C89   O32   S    
C33   C87   A    
C34   N27   A    
C10   C54   A    
C84   H14   S    
C87   H17   S    
N1    N8    A    
C2    C51   A    
N15   N20   A    
C5    O5    S    
C38   C59   S    
C37   C55   S    
N29   Ni1   S    
C86   H16   S    
C34   C48   A    
C18   N18   A    
C14   N14   A    
N17   N18   A    
N17   Ni7   S    
H43   O8    S    
C75   H5    S    
H55   O20   S    
H37   O2    S    
C63   H12   S    
C81   H10   S    
C64   C88   A    
C66   C95   A    
C18   O18   S    
