data_mof_unit_9518.cif
_audit_creation_date              2012-12-10T19:07:38-0500
_audit_creation_method            fapswitch 2.2
_symmetry_space_group_name_H-M    P1
_symmetry_Int_Tables_number       1
_space_group_crystal_system       triclinic
_cell_length_a                    10.841676
_cell_length_b                    10.85874
_cell_length_c                    9.55876
_cell_angle_alpha                 90.855058
_cell_angle_beta                  90.780835
_cell_angle_gamma                 90.825708
_cell_volume                      1124.97357421

loop_
_atom_site_label
_atom_site_type_symbol
_atom_type_description
_atom_site_fract_x
_atom_site_fract_y
_atom_site_fract_z
_atom_type_partial_charge
C1    C     C_R   0.496280 0.262559 0.498839 0.804515
C2    C     C_R   0.939774 0.505499 0.624060 0.070843
C3    C     C_3   0.942394 0.608845 0.729766 -0.040071
C4    C     C_3   0.081867 0.600436 0.731309 -0.424264
C5    C     C_R   0.452226 0.066433 0.616222 0.066063
C6    C     C_R   0.481256 0.129889 0.495282 -0.095489
C7    C     C_R   0.491466 0.062828 0.369377 -0.206082
C8    C     C_R   0.492535 0.934412 0.371181 -0.185568
C9    C     C_R   0.484146 0.871467 0.498788 -0.155387
C10   C     C_R   0.453243 0.939489 0.618471 0.195109
C11   C     C_3   0.504495 0.941370 0.764433 0.172635
C12   C     C_R   0.262535 0.496692 0.499157 0.798071
C13   C     C_3   0.502084 0.081056 0.761347 -0.499220
C14   C     C_R   0.600342 0.542615 0.076480 0.256331
C15   C     C_R   0.406607 0.445898 0.071972 -0.076065
C16   C     C_R   0.406672 0.445748 0.923238 -0.068296
C17   C     C_R   0.600094 0.543321 0.928869 0.249872
C18   C     C_3   0.647844 0.672315 0.930561 -0.512123
C19   C     C_3   0.652649 0.669325 0.088222 -0.488636
C20   C     C_R   0.497237 0.737969 0.500575 0.836028
C21   C     C_R   0.737774 0.498780 0.500449 0.826944
C22   C     C_R   0.066554 0.500716 0.623571 0.057891
C23   C     C_R   0.129550 0.485070 0.498762 -0.062826
C24   C     C_R   0.062238 0.456174 0.375725 -0.196279
C25   C     C_R   0.933378 0.457678 0.376729 -0.197216
C26   C     C_R   0.871191 0.489324 0.500387 -0.060953
Cu1   Cu    Cu3+1 0.499990 0.499980 0.640670 0.967610
Cu2   Cu    Cu3+1 0.500010 0.500020 0.359330 0.950136
H1    H     H_    0.108638 0.437262 0.278266 0.151827
H2    H     H_    0.598962 0.903523 0.772847 0.125760
H3    H     H_    0.434002 0.123129 0.833030 0.215944
H4    H     H_    0.595747 0.124218 0.765337 0.181115
H5    H     H_    0.330001 0.403763 0.125559 0.134396
H6    H     H_    0.330181 0.403256 0.866005 0.139304
H7    H     H_    0.739318 0.683319 0.884063 0.217641
H8    H     H_    0.577163 0.734232 0.890303 0.245621
H9    H     H_    0.748077 0.670615 0.132344 0.205084
H10   H     H_    0.588862 0.735412 0.137140 0.215332
H11   H     H_    0.883115 0.438831 0.279881 0.157024
H12   H     H_    0.903063 0.579568 0.830655 0.132778
H13   H     H_    0.130716 0.683110 0.691051 0.233209
H14   H     H_    0.120027 0.565180 0.831325 0.176929
H15   H     H_    0.505976 0.108866 0.271070 0.164996
H16   H     H_    0.506359 0.885692 0.273520 0.157424
N1    N     N_R   0.500790 0.500930 0.147930 -0.184778
N2    N     N_R   0.500790 0.500890 0.852020 -0.179192
O1    O     O_R   0.500000 0.319640 0.618810 -0.584117
O2    O     O_R   0.500010 0.319680 0.381230 -0.591921
O3    O     O_R   0.319650 0.499970 0.618810 -0.583998
O4    O     O_R   0.319660 0.500010 0.381230 -0.590560
O5    O     O_R   0.499990 0.680320 0.618770 -0.556531
O6    O     O_R   0.500000 0.680360 0.381190 -0.583377
O7    O     O_R   0.680340 0.499990 0.618770 -0.577311
O8    O     O_R   0.680350 0.500030 0.381190 -0.588223
I1    I     I_    0.880917 0.781716 0.647256 -0.435128
O9    O     O_3   0.418789 0.893039 0.858202 -0.703249
H17   H     H_    0.454107 0.909397 0.953114 0.320429

loop_
_geom_bond_atom_site_label_1
_geom_bond_atom_site_label_2
_ccdc_geom_bond_type
C2    C22   A    
C12   O4    A    
C23   C24   A    
Cu1   O7    S    
C1    O2    A    
C6    C7    A    
C19   H10   S    
C7    H15   S    
C20   O5    A    
C4    C22   S    
C18   H7    S    
C25   H11   S    
C9    C20   S    
C5    C13   S    
C14   C17   A    
C21   C26   S    
C12   O3    A    
C7    C8    A    
C2    C26   A    
C24   C25   A    
C21   O7    A    
Cu2   O6    S    
C12   C23   S    
C18   H8    S    
C21   O8    A    
C4    H14   S    
Cu1   O3    S    
C15   C16   A    
Cu1   N2    S    
C5    C10   A    
Cu1   O5    S    
C3    H12   S    
C17   C18   S    
C14   N1    A    
C2    C3    S    
C10   C11   S    
C5    C6    A    
Cu2   N1    S    
C4    H13   S    
C15   N1    A    
Cu1   O1    S    
C1    C6    S    
C8    H16   S    
C11   C13   S    
C17   N2    A    
C20   O6    A    
C18   C19   S    
C9    C10   A    
C16   N2    A    
Cu1   Cu2   S    
O9    H17   S    
Cu2   O4    S    
C24   H1    S    
Cu2   O2    S    
Cu2   O8    S    
C19   H9    S    
C16   H6    S    
C25   C26   A    
C22   C23   A    
C13   H4    S    
C3    I1    S    
C14   C19   S    
C13   H3    S    
C1    O1    A    
C11   O9    S    
C3    C4    S    
C11   H2    S    
C15   H5    S    
C8    C9    A    
