data_mof_unit_19693.cif
_audit_creation_date              2012-12-10T17:50:10-0500
_audit_creation_method            fapswitch 2.2
_symmetry_space_group_name_H-M    P1
_symmetry_Int_Tables_number       1
_space_group_crystal_system       triclinic
_cell_length_a                    10.630059
_cell_length_b                    14.715861
_cell_length_c                    14.786068
_cell_angle_alpha                 64.436122
_cell_angle_beta                  104.429107
_cell_angle_gamma                 101.128312
_cell_volume                      2011.04785603

loop_
_atom_site_label
_atom_site_type_symbol
_atom_type_description
_atom_site_fract_x
_atom_site_fract_y
_atom_site_fract_z
_atom_type_partial_charge
C1    C     C_R   0.472848 0.120305 0.312229 0.782509
C2    C     C_R   0.518097 0.881063 0.687526 0.794772
C3    C     C_R   0.473959 0.294893 0.180707 -0.217195
C4    C     C_R   0.457348 0.723039 0.829556 -0.221246
C5    C     C_R   0.443812 0.367816 0.080886 0.033175
C6    C     C_R   0.492980 0.648219 0.928517 0.044311
C7    C     C_R   0.365005 0.335231 0.005756 0.075450
C8    C     C_R   0.593722 0.676682 0.998066 0.086744
C9    C     C_R   0.489225 0.471939 0.054829 0.002126
C10   C     C_R   0.441514 0.544644 0.956526 0.004647
C11   C     C_R   0.351495 0.510178 0.886870 -0.333390
C12   C     C_R   0.587966 0.503991 0.121974 -0.304131
C13   C     C_R   0.319448 0.406927 0.908323 0.399507
C14   C     C_R   0.638923 0.604743 0.095119 0.421144
C15   C     C_R   0.747273 0.285744 0.652192 -0.305368
C16   C     C_R   0.318981 0.738468 0.306656 -0.276955
C17   C     C_R   0.693450 0.200500 0.633578 -0.016463
C18   C     C_R   0.328695 0.806212 0.351217 -0.033354
C19   C     C_R   0.528780 0.292986 0.501547 0.595284
C20   C     C_R   0.489908 0.715310 0.489148 0.592987
C21   C     C_R   0.582390 0.384490 0.515245 -0.155885
C22   C     C_R   0.486918 0.644230 0.445400 -0.159153
C23   C     C_R   0.260452 0.999163 0.503069 0.822816
C24   C     C_R   0.739730 0.997534 0.501533 0.815772
C25   C     C_R   0.689130 0.377070 0.596971 0.005553
C26   C     C_R   0.398062 0.657976 0.352187 0.034764
C27   C     C_R   0.531222 0.481062 0.454362 0.004963
C28   C     C_R   0.565641 0.559857 0.489969 -0.004637
C29   C     C_R   0.680047 0.552232 0.565176 -0.277718
C30   C     C_R   0.455846 0.504846 0.355376 -0.323474
C31   C     C_R   0.738466 0.461583 0.621012 0.446649
C32   C     C_R   0.391666 0.593581 0.303001 0.421264
C33   C     C_3   0.016689 0.013217 0.410378 -0.347456
C34   C     C_3   0.982631 0.977323 0.598915 -0.324033
C35   C     C_3   0.957865 0.082968 0.438833 0.522854
C36   C     C_3   0.040553 0.907258 0.570264 0.538126
C37   C     C_3   0.875346 0.993126 0.503329 -0.114124
C38   C     C_3   0.123897 0.998093 0.506084 -0.081335
C39   C     C_3   0.931820 0.920920 0.475744 -0.267890
C40   C     C_3   0.066258 0.069277 0.533431 -0.228008
C41   C     C_R   0.442307 0.191296 0.204684 -0.045912
C42   C     C_R   0.531156 0.816552 0.796600 -0.046965
C43   C     C_R   0.332325 0.230844 0.029870 -0.167340
C44   C     C_R   0.653896 0.776393 0.967489 -0.157294
C45   C     C_R   0.373121 0.159317 0.128166 -0.233528
C46   C     C_R   0.625065 0.844978 0.866909 -0.230240
Cu1   Cu    Cu3+1 0.465750 0.918270 0.475680 0.978079
Cu2   Cu    Cu3+1 0.534250 0.081730 0.524320 0.975035
H1    H     H_    0.834768 0.279411 0.709687 0.186718
H2    H     H_    0.250807 0.750372 0.235457 0.192750
H3    H     H_    0.035311 0.027527 0.334527 0.139601
H4    H     H_    0.966336 0.962471 0.675590 0.139923
H5    H     H_    0.874689 0.859708 0.453536 0.162304
H6    H     H_    0.116437 0.128758 0.560029 0.150346
H7    H     H_    0.274620 0.204114 0.973004 0.175584
H8    H     H_    0.729379 0.800087 0.019539 0.175942
H9    H     H_    0.306283 0.561300 0.813521 0.146785
H10   H     H_    0.636050 0.451384 0.193447 0.145031
N1    N     N_R   0.585750 0.204560 0.560800 -0.209221
N2    N     N_R   0.414250 0.795440 0.439200 -0.206668
O1    O     O_R   0.454850 0.022100 0.338110 -0.601107
O2    O     O_R   0.545150 0.977900 0.661890 -0.601996
O3    O     O_R   0.512700 0.160150 0.379180 -0.536142
O4    O     O_R   0.487300 0.839850 0.620820 -0.540755
O5    O     O_R   0.287930 0.931000 0.479440 -0.568571
O6    O     O_R   0.712070 0.069000 0.520560 -0.565960
O7    O     O_R   0.345780 0.069050 0.520520 -0.573656
O8    O     O_R   0.654220 0.930950 0.479480 -0.559464
O9    O     O_3   0.913187 0.178620 0.374285 -0.590017
C47   C     C_3   0.842831 0.178324 0.280066 0.063883
H11   H     H_    0.753581 0.123946 0.290959 0.135852
H12   H     H_    0.903873 0.159445 0.240641 0.135880
C48   C     C_3   0.802511 0.283856 0.211414 -0.774190
H13   H     H_    0.890281 0.338006 0.192537 0.242212
H14   H     H_    0.738050 0.283896 0.139621 0.203667
H15   H     H_    0.749773 0.308420 0.251586 0.253365
O10   O     O_3   0.093126 0.815609 0.639095 -0.589091
C49   C     C_3   0.996166 0.748409 0.691812 0.064580
H16   H     H_    0.912122 0.730303 0.638012 0.160764
H17   H     H_    0.961032 0.780659 0.735631 0.140300
C50   C     C_3   0.053433 0.650516 0.767532 -0.764466
H18   H     H_    0.140919 0.666624 0.819787 0.240413
H19   H     H_    0.979977 0.599907 0.813566 0.207381
H20   H     H_    0.081083 0.611955 0.726257 0.268142
O11   O     O_3   0.577996 0.711998 0.576072 -0.578423
C51   C     C_3   0.533363 0.635244 0.663021 0.058089
H21   H     H_    0.509729 0.560415 0.658192 0.111126
H22   H     H_    0.443383 0.654033 0.673340 0.155067
C52   C     C_3   0.641329 0.625222 0.755438 -0.807099
H23   H     H_    0.660640 0.695515 0.768492 0.256817
H24   H     H_    0.614931 0.560191 0.824385 0.207801
H25   H     H_    0.733587 0.614712 0.741166 0.231716
O12   O     O_3   0.420544 0.290985 0.428168 -0.581003
C53   C     C_3   0.308517 0.291706 0.462420 0.019612
H26   H     H_    0.310721 0.360633 0.475848 0.133937
H27   H     H_    0.299118 0.225309 0.535131 0.152892
C54   C     C_3   0.190234 0.290287 0.380655 -0.731449
H28   H     H_    0.102504 0.300162 0.402007 0.242641
H29   H     H_    0.177636 0.218351 0.370830 0.258095
H30   H     H_    0.203533 0.352505 0.306679 0.216263
H31   H     H_    0.272952 0.871186 0.312296 0.145135
H32   H     H_    0.739992 0.131008 0.675620 0.144647
H33   H     H_    0.728365 0.616894 0.580285 0.203908
H34   H     H_    0.455436 0.458734 0.315106 0.188918
O13   O     O_3   0.232517 0.375286 0.837971 -0.592247
C55   C     C_3   0.284505 0.406225 0.748880 0.071579
H35   H     H_    0.388260 0.389769 0.767440 0.122813
H36   H     H_    0.277199 0.488341 0.701618 0.138301
C56   C     C_3   0.205334 0.348996 0.685456 -0.788933
H37   H     H_    0.101153 0.363638 0.665639 0.271205
H38   H     H_    0.243204 0.374562 0.613987 0.183320
H39   H     H_    0.212902 0.266447 0.728980 0.233652
O14   O     O_3   0.749097 0.630160 0.156349 -0.597619
C57   C     C_3   0.715951 0.622457 0.246169 0.065069
H40   H     H_    0.696095 0.541748 0.297309 0.160578
H41   H     H_    0.629952 0.664351 0.228247 0.172287
C58   C     C_3   0.830190 0.668785 0.303048 -0.776561
H42   H     H_    0.852889 0.749842 0.254364 0.237642
H43   H     H_    0.804997 0.663077 0.373961 0.212270
H44   H     H_    0.917649 0.627987 0.323676 0.253327
H45   H     H_    0.378506 0.709607 0.773799 0.151588
H46   H     H_    0.518233 0.317995 0.242254 0.171252
H47   H     H_    0.680646 0.918588 0.843151 0.147383
H48   H     H_    0.345704 0.079637 0.145222 0.152838
O15   O     O_3   0.848442 0.458396 0.695933 -0.579701
C59   C     C_3   0.814847 0.406035 0.794108 0.011479
H49   H     H_    0.736165 0.342717 0.799432 0.133428
H50   H     H_    0.781133 0.458653 0.816135 0.151646
C60   C     C_3   0.934768 0.362448 0.872573 -0.735180
H51   H     H_    0.014179 0.423672 0.872475 0.270924
H52   H     H_    0.909787 0.323844 0.949919 0.185290
H53   H     H_    0.969944 0.306687 0.854993 0.261004
O16   O     O_3   0.339459 0.627392 0.199115 -0.592075
C61   C     C_3   0.245979 0.554249 0.176648 0.049717
H54   H     H_    0.174692 0.523880 0.229252 0.149866
H55   H     H_    0.294432 0.492217 0.179788 0.157007
C62   C     C_3   0.170895 0.603459 0.068246 -0.759877
H56   H     H_    0.239159 0.634752 0.013575 0.252601
H57   H     H_    0.098063 0.546366 0.048843 0.199156
H58   H     H_    0.119210 0.665620 0.061268 0.250723

loop_
_geom_bond_atom_site_label_1
_geom_bond_atom_site_label_2
_ccdc_geom_bond_type
C25   C31   A    
C38   C40   S    
C26   C32   A    
O12   C53   S    
C34   C37   S    
C48   H13   S    
C54   H30   S    
C61   C62   S    
C57   H40   S    
C39   H5    S    
O11   C51   S    
C62   H57   S    
C33   C39   S    
C4    C42   A    
C34   C40   S    
C28   C29   A    
C35   C37   S    
C16   H2    S    
C60   H51   S    
C36   O10   S    
C56   H38   S    
C32   O16   S    
C51   H22   S    
C15   C25   A    
C55   H35   S    
C29   H33   S    
C42   C46   A    
C23   O7    A    
C54   H29   S    
Cu1   N2    S    
C2    O4    A    
C59   H50   S    
C47   H11   S    
C7    C43   A    
C52   H24   S    
C9    C10   A    
C19   O12   S    
C3    H46   S    
C24   O6    A    
C60   H53   S    
C12   H10   S    
C21   C27   A    
C22   C28   A    
C27   C30   A    
C48   H14   S    
O9    C47   S    
C1    O3    A    
C50   H19   S    
C44   C46   A    
C54   H28   S    
C45   H48   S    
C16   C26   A    
C62   H58   S    
C13   O13   S    
Cu1   O1    S    
C4    C6    A    
C58   H44   S    
Cu1   O4    S    
C5    C7    A    
C51   H21   S    
Cu2   O3    S    
C61   H55   S    
C59   C60   S    
C19   N1    A    
O10   C49   S    
C50   H18   S    
C57   H41   S    
C18   H31   S    
C17   H32   S    
C5    C9    A    
C44   H8    S    
Cu2   O2    S    
Cu1   Cu2   S    
C20   O11   S    
C47   C48   S    
C24   C37   S    
C49   H17   S    
C16   C18   A    
C52   H25   S    
C53   H27   S    
C43   C45   A    
C17   N1    A    
C18   N2    A    
C12   C14   A    
C40   H6    S    
O15   C59   S    
C48   H15   S    
C46   H47   S    
C56   H39   S    
C20   N2    A    
C31   O15   S    
C23   C38   S    
Cu1   O8    S    
C50   H20   S    
Cu2   N1    S    
O14   C57   S    
O13   C55   S    
C1    C41   S    
C15   C17   A    
C21   C25   A    
C3    C41   A    
C8    C14   A    
C19   C21   A    
C49   H16   S    
C36   C39   S    
C8    C44   A    
C20   C22   A    
C3    C5    A    
C51   C52   S    
C1    O1    A    
C6    C10   A    
C6    C8    A    
C61   H54   S    
C43   H7    S    
C33   H3    S    
C14   O14   S    
C62   H56   S    
C34   H4    S    
C33   C38   S    
C53   C54   S    
C23   O5    A    
C58   H43   S    
C35   C40   S    
C37   C39   S    
C11   H9    S    
C56   H37   S    
C30   C32   A    
C11   C13   A    
C49   C50   S    
O16   C61   S    
C55   H36   S    
C2    C42   S    
C59   H49   S    
C36   C38   S    
C33   C35   S    
C4    H45   S    
C34   C36   S    
C15   H1    S    
Cu2   O7    S    
C53   H26   S    
C9    C12   A    
C57   C58   S    
C10   C11   A    
C24   O8    A    
C7    C13   A    
C35   O9    S    
C29   C31   A    
C22   C26   A    
C30   H34   S    
C27   C28   A    
C41   C45   A    
C47   H12   S    
Cu2   O6    S    
C52   H23   S    
C58   H42   S    
Cu1   O5    S    
C2    O2    A    
C60   H52   S    
C55   C56   S    
