data_mof_unit_50922.cif
_audit_creation_date              2012-12-10T16:57:48-0500
_audit_creation_method            fapswitch 2.2
_symmetry_space_group_name_H-M    P1
_symmetry_Int_Tables_number       1
_space_group_crystal_system       triclinic
_cell_length_a                    10.693825
_cell_length_b                    10.90927
_cell_length_c                    9.819329
_cell_angle_alpha                 91.730788
_cell_angle_beta                  89.57971
_cell_angle_gamma                 90.084347
_cell_volume                      1144.98650722

loop_
_atom_site_label
_atom_site_type_symbol
_atom_type_description
_atom_site_fract_x
_atom_site_fract_y
_atom_site_fract_z
_atom_type_partial_charge
C1    C     C_R   0.498815 0.266010 0.498147 0.894153
C2    C     C_3   0.955476 0.609301 0.550934 0.005796
C3    C     C_3   0.041238 0.597450 0.424397 0.328558
C4    C     C_3   0.124451 0.507000 0.501835 -0.189483
C5    C     C_2   0.558719 0.934138 0.403493 0.176454
C6    C     C_2   0.530709 0.866790 0.513035 0.016612
C7    C     C_2   0.571342 0.067910 0.417535 -0.068542
C8    C     C_2   0.490672 0.134398 0.493243 -0.178139
C9    C     C_2   0.469659 0.409009 0.925080 0.481959
C10   C     C_2   0.518886 0.408101 0.066224 0.479048
C11   C     C_R   0.260339 0.503337 0.500656 0.903574
C12   C     C_R   0.508231 0.734367 0.502282 0.829989
C13   C     C_R   0.739651 0.500198 0.499353 0.880101
C14   C     C_3   0.043868 0.398851 0.448496 0.030811
C15   C     C_3   0.961580 0.488428 0.371783 0.001637
C16   C     C_3   0.875414 0.501091 0.497862 -0.206751
C17   C     C_3   0.958558 0.411035 0.575153 0.376041
C18   C     C_3   0.037921 0.520163 0.627857 0.022202
Cu1   Cu    Cu3+1 0.500030 0.500020 0.638630 1.073453
Cu2   Cu    Cu3+1 0.499970 0.499980 0.361370 1.058769
H1    H     H_    0.415359 0.092550 0.550179 0.179807
H2    H     H_    0.560580 0.562098 0.887613 0.170855
H3    H     H_    0.643765 0.112329 0.358821 0.210615
N1    N     N_2   0.498620 0.498660 0.846910 -0.337462
N2    N     N_2   0.498590 0.498630 0.153040 -0.227122
O1    O     O_R   0.500020 0.321960 0.617040 -0.490552
O2    O     O_R   0.499980 0.321920 0.382900 -0.529060
O3    O     O_R   0.316870 0.499990 0.617050 -0.523935
O4    O     O_R   0.316830 0.499950 0.382910 -0.589554
O5    O     O_R   0.500020 0.678080 0.617100 -0.611899
O6    O     O_R   0.499980 0.678040 0.382960 -0.556775
O7    O     O_R   0.683170 0.500050 0.617090 -0.572546
O8    O     O_R   0.683130 0.500010 0.382950 -0.545610
N3    N     N_3   0.920444 0.468106 0.231805 -0.466367
H4    H     H_    0.000373 0.458466 0.170615 0.255589
H5    H     H_    0.875240 0.547778 0.202304 0.240693
S1    S     S_3+6 0.367942 0.285823 0.878070 0.063965
O9    O     O_2   0.287366 0.257707 0.999369 -0.308263
O10   O     O_2   0.284597 0.313863 0.761380 -0.295887
O11   O     O_3   0.453292 0.160856 0.836212 -0.464085
H6    H     H_    0.394321 0.091174 0.842715 0.370321
S2    S     S_3+6 0.604704 0.275959 0.107066 0.050278
O12   O     O_2   0.699237 0.303202 0.215967 -0.283956
O13   O     O_2   0.514754 0.179120 0.152090 -0.298571
O14   O     O_3   0.680139 0.222065 0.967147 -0.443611
H7    H     H_    0.717596 0.143493 0.994064 0.381965
N4    N     N_3   0.430888 0.596380 0.103444 -0.542787
H8    H     H_    0.351005 0.606809 0.163929 0.319844
H9    H     H_    0.485309 0.675105 0.118290 0.254951
N5    N     N_3   0.093111 0.283502 0.392207 -0.483877
H10   H     H_    0.016775 0.230346 0.360343 0.285949
H11   H     H_    0.144651 0.303455 0.304789 0.249438
S3    S     S_3+6 0.904510 0.288128 0.675270 0.055017
O15   O     O_2   0.847839 0.340676 0.804661 -0.274532
O16   O     O_2   0.807093 0.215666 0.598151 -0.254386
O17   O     O_3   0.024585 0.195530 0.711615 -0.457956
H12   H     H_    0.048839 0.218860 0.806040 0.386395
N6    N     N_3   0.077717 0.542717 0.768060 -0.503938
H13   H     H_    0.998127 0.565701 0.825610 0.239627
H14   H     H_    0.109413 0.459857 0.805021 0.285679
N7    N     N_3   0.905159 0.724314 0.607013 -0.525950
H15   H     H_    0.980743 0.777153 0.641606 0.286064
H16   H     H_    0.851215 0.703836 0.692535 0.219614
S4    S     S_3+6 0.090454 0.724532 0.326881 0.028720
O18   O     O_2   0.201836 0.784462 0.393475 -0.264632
O19   O     O_2   0.125073 0.681593 0.184838 -0.311608
O20   O     O_3   0.973738 0.827186 0.319781 -0.457942
H17   H     H_    0.900477 0.779474 0.286899 0.331482
N8    N     N_3   0.580993 0.877568 0.271723 -0.575795
H18   H     H_    0.518455 0.915515 0.203396 0.265428
H19   H     H_    0.671510 0.900613 0.240621 0.226465
N9    N     N_3   0.534386 0.922756 0.647704 -0.557808
H20   H     H_    0.449149 0.905490 0.696389 0.233011
H21   H     H_    0.605399 0.881142 0.702450 0.248455

loop_
_geom_bond_atom_site_label_1
_geom_bond_atom_site_label_2
_ccdc_geom_bond_type
C17   C18   S    
Cu1   Cu2   S    
N5    H11   S    
C9    N1    D    
C13   O8    A    
S1    O9    D    
Cu2   O2    S    
C2    C3    S    
C2    C18   S    
C1    C8    S    
C2    C16   S    
C9    C10   S    
N2    N4    S    
C15   N3    S    
N4    H8    S    
C2    N7    S    
C4    C18   S    
S4    O18   D    
S3    O17   S    
H2    N1    S    
C9    S1    S    
C8    H1    S    
N8    H19   S    
C7    C8    D    
S1    O10   D    
C3    S4    S    
C4    C11   S    
C4    C14   S    
Cu1   O3    S    
C14   C17   S    
C14   N5    S    
S2    O13   D    
C11   O3    A    
C7    H3    S    
C5    C6    D    
C10   N2    D    
N9    H21   S    
O11   H6    S    
N4    H9    S    
N5    H10   S    
S1    O11   S    
N3    H5    S    
Cu2   O4    S    
S3    O16   D    
C12   O6    A    
C6    C12   S    
N7    H15   S    
N8    H18   S    
C1    O1    A    
C1    O2    A    
C10   S2    S    
Cu2   N2    S    
Cu2   O8    S    
S2    O14   S    
N6    H14   S    
O20   H17   S    
S4    O20   S    
C17   S3    S    
C3    C15   S    
O17   H12   S    
C11   O4    A    
N7    H16   S    
N3    H4    S    
S2    O12   D    
C13   C16   S    
C5    C7    S    
Cu1   O1    S    
C14   C15   S    
C16   C17   S    
C5    N8    S    
C13   O7    A    
C12   O5    A    
N6    H13   S    
O14   H7    S    
Cu1   O5    S    
Cu1   N1    S    
Cu1   O7    S    
C18   N6    S    
C15   C16   S    
C3    C4    S    
S3    O15   D    
N9    H20   S    
C6    N9    S    
Cu2   O6    S    
S4    O19   D    
