data_mof_unit_26578.cif
_audit_creation_date              2012-12-11T15:19:53-0500
_audit_creation_method            fapswitch 2.2
_symmetry_space_group_name_H-M    P1
_symmetry_Int_Tables_number       1
_space_group_crystal_system       triclinic
_cell_length_a                    16.677984
_cell_length_b                    16.639437
_cell_length_c                    43.092844
_cell_angle_alpha                 89.930382
_cell_angle_beta                  89.986185
_cell_angle_gamma                 120.044821
_cell_volume                      10351.9249584

loop_
_atom_site_label
_atom_site_type_symbol
_atom_type_description
_atom_site_fract_x
_atom_site_fract_y
_atom_site_fract_z
_atom_type_partial_charge
Br1   Br    Br    0.754795 0.232436 0.975738 -0.364929
Br2   Br    Br    0.495410 0.233770 0.048937 -0.291854
Br3   Br    Br    0.800179 0.249674 0.452803 -0.324274
Br4   Br    Br    0.736928 0.503319 0.049235 -0.290627
Br5   Br    Br    0.341972 0.710856 0.553840 -0.296307
Br6   Br    Br    0.766957 0.522485 0.975495 -0.364680
Br7   Br    Br    0.790909 0.225442 0.526924 -0.345487
Br8   Br    Br    0.475277 0.243479 0.975206 -0.365359
Br9   Br    Br    0.591522 0.761811 0.546163 -0.293834
Br10  Br    Br    0.334128 0.676071 0.480330 -0.341022
Br11  Br    Br    0.765836 0.262579 0.049443 -0.290742
Br12  Br    Br    0.597982 0.783328 0.471741 -0.333298
C1    C     C_R   0.583900 0.426189 0.794628 0.548873
C2    C     C_R   0.426120 0.584010 0.205338 0.548580
C3    C     C_R   0.084464 0.613381 0.438527 0.445557
C4    C     C_R   0.520644 0.915051 0.061903 0.435589
C5    C     C_R   0.462852 0.423285 0.431607 0.429488
C6    C     C_R   0.539529 0.094544 0.561895 0.453136
C7    C     C_R   0.035767 0.570878 0.932476 0.433468
C8    C     C_R   0.479525 0.390994 0.561008 0.431659
C9    C     C_R   0.534903 0.963713 0.932584 0.433516
C10   C     C_R   0.036013 0.580344 0.567937 0.440524
C11   C     C_R   0.429358 0.465332 0.932509 0.433759
C12   C     C_R   0.945919 0.460094 0.069699 0.465382
C13   C     C_R   0.415703 0.841768 0.294700 0.549119
C14   C     C_R   0.437466 0.870620 0.440908 0.477863
C15   C     C_R   0.539819 0.485882 0.069639 0.465637
C16   C     C_R   0.955592 0.459422 0.431452 0.442847
C17   C     C_R   0.514228 0.054623 0.069581 0.465959
C18   C     C_R   0.501291 0.582364 0.436975 0.462231
C19   C     C_R   0.468669 0.930691 0.571484 0.464170
C20   C     C_R   0.899453 0.421257 0.938586 0.478076
C21   C     C_R   0.508967 0.546709 0.567684 0.451659
C22   C     C_R   0.520856 0.099665 0.938404 0.477922
C23   C     C_R   0.910809 0.423560 0.562489 0.447242
C24   C     C_R   0.157895 0.573873 0.205331 0.549335
C25   C     C_R   0.578470 0.478144 0.938513 0.478240
C26   C     C_R   0.931481 0.446069 0.037156 0.018153
C27   C     C_R   0.438166 0.880947 0.473686 0.017373
C28   C     C_R   0.553841 0.485559 0.037088 0.018343
C29   C     C_R   0.943112 0.445713 0.464034 0.002248
C30   C     C_R   0.514357 0.068674 0.037013 0.018455
C31   C     C_R   0.512428 0.579344 0.469491 0.014912
C32   C     C_R   0.452813 0.911093 0.539203 0.011875
C33   C     C_R   0.909996 0.425502 0.971370 0.026534
C34   C     C_R   0.514683 0.561193 0.535126 0.006742
C35   C     C_R   0.057968 0.471274 0.127181 -0.053731
C36   C     C_R   0.514687 0.089364 0.971197 0.026679
C37   C     C_R   0.922447 0.427203 0.529802 0.005178
C38   C     C_R   0.574301 0.484568 0.971292 0.026497
C39   C     C_R   0.995598 0.516496 0.017068 -0.062364
C40   C     C_R   0.479553 0.972168 0.485819 -0.066397
C41   C     C_R   0.483617 0.479418 0.017054 -0.062230
C42   C     C_R   0.000772 0.521008 0.483669 -0.069167
C43   C     C_R   0.520972 0.004576 0.017070 -0.062061
C44   C     C_R   0.491316 0.493396 0.482988 -0.069445
C45   C     C_R   0.486715 0.987100 0.518344 -0.066514
C46   C     C_R   0.412564 0.952550 0.370446 -0.052899
C47   C     C_R   0.984112 0.506921 0.984390 -0.057694
C48   C     C_R   0.493654 0.484720 0.515653 -0.069772
C49   C     C_R   0.522572 0.015670 0.984374 -0.057440
C50   C     C_R   0.989709 0.512179 0.516365 -0.069802
C51   C     C_R   0.493145 0.477482 0.984371 -0.057525
C52   C     C_R   0.134349 0.667796 0.009612 -0.110377
C53   C     C_R   0.552611 0.139544 0.477525 -0.088174
C54   C     C_R   0.332793 0.467278 0.009709 -0.110329
C55   C     C_R   0.125729 0.681016 0.490228 -0.086313
C56   C     C_R   0.534435 0.866271 0.009919 -0.110104
C57   C     C_R   0.528716 0.586771 0.127156 -0.053696
C58   C     C_R   0.450338 0.331319 0.477356 -0.117251
C59   C     C_R   0.558920 0.154028 0.509258 -0.088781
C60   C     C_R   0.122159 0.659177 0.977733 -0.111410
C61   C     C_R   0.454136 0.323283 0.509300 -0.119336
C62   C     C_R   0.537681 0.878085 0.978017 -0.111330
C63   C     C_R   0.114250 0.672688 0.522163 -0.087021
C64   C     C_R   0.341376 0.463699 0.977825 -0.111315
C65   C     C_R   0.857235 0.363804 0.024025 0.216957
C66   C     C_R   0.398651 0.804151 0.494641 0.194714
C67   C     C_R   0.635897 0.493495 0.023895 0.216887
C68   C     C_R   0.069797 0.477568 0.374464 -0.050572
C69   C     C_R   0.877537 0.359231 0.477627 0.185660
C70   C     C_R   0.505698 0.142455 0.023723 0.216835
C71   C     C_R   0.544061 0.658733 0.488861 0.210903
C72   C     C_R   0.404929 0.819174 0.527059 0.197734
C73   C     C_R   0.848614 0.352454 0.991493 0.211282
C74   C     C_R   0.543407 0.649452 0.521439 0.208590
C75   C     C_R   0.502633 0.150624 0.991176 0.211144
C76   C     C_R   0.869392 0.349445 0.510211 0.187197
C77   C     C_R   0.647190 0.496193 0.991355 0.211004
C78   C     C_R   0.413525 0.942128 0.127103 -0.053975
C79   C     C_R   0.544136 0.573986 0.367834 -0.056359
C80   C     C_R   0.450579 0.022766 0.633757 -0.055632
C81   C     C_R   0.842539 0.416424 0.705436 0.546502
C82   C     C_R   0.957816 0.418712 0.870124 -0.061600
C83   C     C_R   0.596757 0.525699 0.625885 -0.059352
C84   C     C_R   0.460381 0.040914 0.870017 -0.061372
C85   C     C_R   0.917487 0.541044 0.628555 -0.060376
C86   C     C_R   0.461653 0.377350 0.871940 -0.038533
C87   C     C_R   0.088999 0.479326 0.157637 -0.129102
C88   C     C_R   0.399782 0.928896 0.339095 -0.130754
C89   C     C_R   0.520627 0.609693 0.157618 -0.129487
C90   C     C_R   0.099064 0.484277 0.343846 -0.134776
C91   C     C_R   0.390362 0.910860 0.157554 -0.129360
C92   C     C_R   0.573776 0.157666 0.794616 0.547776
C93   C     C_R   0.531442 0.592937 0.337287 -0.135155
C94   C     C_R   0.465725 0.055863 0.664150 -0.130769
C95   C     C_R   0.929135 0.400419 0.839265 -0.134739
C96   C     C_R   0.617115 0.517721 0.656611 -0.133815
C97   C     C_R   0.470936 0.069862 0.839160 -0.134517
C98   C     C_R   0.886971 0.521221 0.659252 -0.140858
C99   C     C_R   0.479763 0.366717 0.841023 -0.137705
C100  C     C_R   0.092435 0.626126 0.162539 -0.141519
C101  C     C_R   0.509308 0.873803 0.343109 -0.134801
C102  C     C_R   0.374010 0.466266 0.162574 -0.141120
C103  C     C_R   0.584427 0.426218 0.705272 0.547882
C104  C     C_R   0.089333 0.623790 0.337097 -0.137960
C105  C     C_R   0.534069 0.908814 0.162701 -0.140823
C106  C     C_R   0.367040 0.482520 0.341606 -0.140423
C107  C     C_R   0.630861 0.117914 0.657543 -0.133066
C108  C     C_R   0.887003 0.520291 0.840988 -0.137471
C109  C     C_R   0.467810 0.377713 0.662187 -0.137607
C110  C     C_R   0.632892 0.112712 0.840993 -0.137290
C111  C     C_R   0.934826 0.405659 0.661567 -0.135629
C112  C     C_R   0.599419 0.528964 0.839190 -0.134207
C113  C     C_R   0.060187 0.617341 0.132077 -0.044174
C114  C     C_R   0.842255 0.416107 0.794633 0.548328
C115  C     C_R   0.521817 0.897370 0.374526 -0.036008
C116  C     C_R   0.382832 0.442856 0.132109 -0.044015
C117  C     C_R   0.058477 0.616078 0.367733 -0.052648
C118  C     C_R   0.557720 0.941325 0.132245 -0.043639
C119  C     C_R   0.379884 0.464000 0.372246 -0.051156
C120  C     C_R   0.615547 0.085213 0.627054 -0.034365
C121  C     C_R   0.915694 0.538382 0.871903 -0.038719
C122  C     C_R   0.446692 0.386888 0.631409 -0.044774
C123  C     C_R   0.622131 0.083779 0.871907 -0.038840
C124  C     C_R   0.965712 0.425962 0.630937 -0.047606
C125  C     C_R   0.573566 0.157294 0.705526 0.547994
C126  C     C_R   0.581104 0.539386 0.870047 -0.061569
C127  C     C_R   0.045226 0.541044 0.113925 0.235182
C128  C     C_R   0.471442 0.934326 0.388502 0.234220
C129  C     C_R   0.459057 0.504270 0.113926 0.235137
C130  C     C_R   0.050679 0.544076 0.386848 0.235103
C131  C     C_R   0.496294 0.955659 0.113975 0.235095
C132  C     C_R   0.468006 0.511816 0.385775 0.238412
C133  C     C_R   0.525626 0.039882 0.614797 0.234421
C134  C     C_R   0.948570 0.485735 0.886845 0.239129
C135  C     C_R   0.512208 0.459699 0.612805 0.231908
C136  C     C_R   0.426199 0.583629 0.294531 0.546911
C137  C     C_R   0.536562 0.050467 0.886794 0.238994
C138  C     C_R   0.954227 0.491400 0.613952 0.239232
C139  C     C_R   0.514193 0.463001 0.886825 0.239090
C140  C     C_R   0.890438 0.448829 0.824691 0.009746
C141  C     C_R   0.556312 0.106410 0.676004 0.009962
C142  C     C_R   0.551139 0.441712 0.824675 0.009761
C143  C     C_R   0.892166 0.450808 0.675676 0.010820
C144  C     C_R   0.558115 0.109106 0.824653 0.010089
C145  C     C_R   0.554074 0.442247 0.674869 0.012713
C146  C     C_R   0.445675 0.886413 0.325352 0.009559
C147  C     C_R   0.415973 0.842166 0.205347 0.548913
C148  C     C_R   0.109213 0.558144 0.175366 0.010842
C149  C     C_R   0.442265 0.549722 0.324216 0.011315
C150  C     C_R   0.449043 0.891177 0.175395 0.010966
C151  C     C_R   0.111477 0.558757 0.325050 0.012778
C152  C     C_R   0.441879 0.551045 0.175374 0.010668
C153  C     C_R   0.071889 0.597349 0.029538 0.052158
C154  C     C_R   0.514874 0.049529 0.465467 0.055945
C155  C     C_R   0.403014 0.475047 0.029583 0.052202
C156  C     C_R   0.070118 0.605886 0.470721 0.059881
C157  C     C_R   0.526155 0.928700 0.029704 0.052516
C158  C     C_R   0.158227 0.573927 0.294738 0.548353
C159  C     C_R   0.467980 0.415489 0.463877 0.049357
C160  C     C_R   0.528440 0.079004 0.529885 0.059802
C161  C     C_R   0.047684 0.579423 0.964765 0.052674
C162  C     C_R   0.474836 0.398919 0.528737 0.050501
C163  C     C_R   0.531801 0.952143 0.964892 0.052834
C164  C     C_R   0.046967 0.588893 0.535590 0.054336
C165  C     C_R   0.420862 0.468742 0.964801 0.052879
C166  C     C_R   0.085862 0.605550 0.061715 0.435349
C167  C     C_R   0.512202 0.035697 0.433359 0.443742
C168  C     C_R   0.394827 0.480782 0.061763 0.435393
Cr1   Cr    Cr6+3 0.530290 0.262330 0.750000 1.027406
Cr2   Cr    Cr6+3 0.732040 0.469710 0.750000 1.027615
Cr3   Cr    Cr6+3 0.737670 0.267960 0.750000 1.028868
Cr4   Cr    Cr6+3 0.262330 0.530290 0.250000 1.029208
Cr5   Cr    Cr6+3 0.469710 0.732040 0.250000 1.029015
Cr6   Cr    Cr6+3 0.267960 0.737670 0.250000 1.027550
H1    H     H_    0.857176 0.558521 0.830496 0.138087
H2    H     H_    0.580712 0.894351 0.175876 0.132043
H3    H     H_    0.098439 0.682003 0.323169 0.131161
H4    H     H_    0.312586 0.419662 0.175674 0.131973
H5    H     H_    0.171803 0.715351 0.963212 0.167486
H6    H     H_    0.589698 0.224785 0.517598 0.182182
H7    H     H_    0.285381 0.457335 0.963345 0.167519
H8    H     H_    0.158830 0.732298 0.536359 0.174824
H9    H     H_    0.544451 0.828488 0.963604 0.167447
H10   H     H_    0.440184 0.257136 0.518763 0.161123
H11   H     H_    0.578532 0.199562 0.462412 0.186046
H12   H     H_    0.701400 0.157045 0.665954 0.141935
H13   H     H_    0.193227 0.730240 0.018630 0.166673
H14   H     H_    0.433347 0.271062 0.463210 0.165101
H15   H     H_    0.538467 0.807706 0.019067 0.166729
H16   H     H_    0.179084 0.746697 0.480847 0.166039
H17   H     H_    0.270553 0.463879 0.018773 0.166764
H18   H     H_    0.907687 0.589844 0.884738 0.155734
H19   H     H_    0.673955 0.099041 0.612451 0.168321
H20   H     H_    0.622069 0.605772 0.881414 0.135021
H21   H     H_    0.994018 0.387230 0.619827 0.145288
H22   H     H_    0.681523 0.092022 0.884791 0.155875
H23   H     H_    0.654631 0.588119 0.827244 0.138926
H24   H     H_    0.380660 0.335777 0.621763 0.150491
H25   H     H_    0.567723 0.883361 0.388328 0.172763
H26   H     H_    0.050006 0.671464 0.122225 0.151778
H27   H     H_    0.320537 0.416325 0.385999 0.141007
H28   H     H_    0.622219 0.952130 0.122484 0.152232
H29   H     H_    0.043201 0.667545 0.376859 0.143612
H30   H     H_    0.328797 0.378557 0.122274 0.151938
H31   H     H_    0.101589 0.425905 0.166697 0.141975
H32   H     H_    0.350375 0.939527 0.326037 0.140525
H33   H     H_    0.573964 0.675716 0.166667 0.141800
H34   H     H_    0.940160 0.351404 0.673638 0.138254
H35   H     H_    0.116420 0.433541 0.335446 0.136032
H36   H     H_    0.324153 0.897605 0.166514 0.141658
H37   H     H_    0.590768 0.644682 0.324430 0.138551
H38   H     H_    0.406922 0.045657 0.677870 0.139624
H39   H     H_    0.932919 0.345128 0.827364 0.138326
H40   H     H_    0.684574 0.568276 0.665484 0.137019
H41   H     H_    0.411945 0.065896 0.827212 0.138265
H42   H     H_    0.854188 0.557047 0.669410 0.132126
H43   H     H_    0.441629 0.298548 0.830575 0.137904
H44   H     H_    0.047405 0.412343 0.113417 0.146454
H45   H     H_    0.700995 0.142933 0.830547 0.138296
H46   H     H_    0.373397 0.981092 0.381064 0.140577
H47   H     H_    0.587589 0.635192 0.113367 0.146611
H48   H     H_    0.064959 0.422076 0.388953 0.149911
H49   H     H_    0.365096 0.952196 0.113239 0.146465
H50   H     H_    0.612482 0.611156 0.378105 0.138435
H51   H     H_    0.380996 0.988219 0.624399 0.139604
H52   H     H_    0.983045 0.377656 0.881534 0.134945
H53   H     H_    0.648518 0.581712 0.611839 0.144862
H54   H     H_    0.394060 0.015334 0.881391 0.135177
H55   H     H_    0.907578 0.591147 0.615565 0.133984
H56   H     H_    0.418009 0.318829 0.675704 0.131715
H57   H     H_    0.410271 0.317791 0.884822 0.156115
H58   H     H_    0.545153 0.840610 0.333277 0.143209
H59   H     H_    0.107355 0.687614 0.175614 0.131286
H60   H     H_    0.297461 0.448437 0.332239 0.131741
N1    N     N_R   0.023824 0.536895 0.081276 -0.391014
N2    N     N_R   0.529722 0.036817 0.919896 -0.392315
N3    N     N_R   0.968460 0.498571 0.580853 -0.396285
N4    N     N_R   0.507224 0.469773 0.919918 -0.392184
N5    N     N_R   0.474885 0.947364 0.421604 -0.399274
N6    N     N_R   0.463242 0.487139 0.081272 -0.391009
N7    N     N_R   0.028189 0.540175 0.419406 -0.394670
N8    N     N_R   0.513652 0.977026 0.081319 -0.390922
N9    N     N_R   0.478460 0.505619 0.418715 -0.397156
N10   N     N_R   0.511559 0.021048 0.582063 -0.401351
N11   N     N_R   0.962339 0.492731 0.919938 -0.392249
N12   N     N_R   0.496659 0.464546 0.580034 -0.395271
O1    O     O_R   0.509640 0.171340 0.784000 -0.514435
O2    O     O_R   0.171340 0.509640 0.216000 -0.510913
O3    O     O_R   0.490360 0.661700 0.284000 -0.512901
O4    O     O_R   0.338300 0.828660 0.216000 -0.512435
O5    O     O_R   0.539230 0.345420 0.781810 -0.497128
O6    O     O_R   0.806190 0.460770 0.718190 -0.498709
O7    O     O_R   0.654580 0.193810 0.781810 -0.496436
O8    O     O_R   0.539230 0.345420 0.718190 -0.494267
O9    O     O_R   0.806190 0.460770 0.781810 -0.496529
O10   O     O_R   0.654580 0.193810 0.718190 -0.496385
O11   O     O_R   0.345420 0.539230 0.281810 -0.498243
O12   O     O_R   0.661700 0.490360 0.716000 -0.514804
O13   O     O_R   0.460770 0.806190 0.218190 -0.496594
O14   O     O_R   0.193810 0.654580 0.281810 -0.495700
O15   O     O_R   0.345420 0.539230 0.218190 -0.497072
O16   O     O_R   0.460770 0.806190 0.281810 -0.496643
O17   O     O_R   0.193810 0.654580 0.218190 -0.497844
O18   O     O_3   0.666667 0.333333 0.750000 -0.235492
O19   O     O_3   0.333333 0.666667 0.250000 -0.236827
O20   O     O_2   0.154415 0.673070 0.072385 -0.513040
O21   O     O_2   0.543930 0.102304 0.415724 -0.472953
O22   O     O_2   0.327529 0.482002 0.072483 -0.512791
O23   O     O_R   0.828660 0.338300 0.784000 -0.513652
O24   O     O_2   0.148306 0.684448 0.427493 -0.488985
O25   O     O_2   0.520136 0.846805 0.072723 -0.513106
O26   O     O_2   0.444185 0.356845 0.414891 -0.501338
O27   O     O_2   0.574408 0.173723 0.571986 -0.452615
O28   O     O_2   0.090669 0.632875 0.915408 -0.507808
O29   O     O_2   0.469879 0.319103 0.572206 -0.495021
O30   O     O_2   0.542215 0.908829 0.915632 -0.507683
O31   O     O_2   0.086429 0.645573 0.584703 -0.485657
O32   O     O_2   0.367569 0.458440 0.915484 -0.507634
O33   O     O_2   0.889731 0.404415 0.087993 -0.420404
O34   O     O_R   0.509640 0.171340 0.716000 -0.510539
O35   O     O_2   0.403596 0.793706 0.429256 -0.398101
O36   O     O_2   0.595285 0.485127 0.087890 -0.420290
O37   O     O_2   0.902132 0.400102 0.413525 -0.440716
O38   O     O_2   0.514474 0.110843 0.087756 -0.419832
O39   O     O_2   0.508773 0.652038 0.424787 -0.424261
O40   O     O_2   0.446461 0.868222 0.590292 -0.412703
O41   O     O_2   0.833148 0.355393 0.926401 -0.422785
O42   O     O_2   0.513748 0.606331 0.585281 -0.420393
O43   O     O_2   0.520998 0.165774 0.926085 -0.423233
O44   O     O_2   0.847745 0.354891 0.574807 -0.441459
O45   O     O_R   0.661700 0.490360 0.784000 -0.512496
O46   O     O_2   0.644056 0.477384 0.926287 -0.422468
O47   O     O_R   0.828660 0.338300 0.716000 -0.512842
O48   O     O_R   0.171340 0.509640 0.284000 -0.512748
O49   O     O_R   0.490360 0.661700 0.216000 -0.512267
O50   O     O_R   0.338300 0.828660 0.284000 -0.510310

loop_
_geom_bond_atom_site_label_1
_geom_bond_atom_site_label_2
_ccdc_geom_bond_type
C111  H34   S    
C102  H4    S    
C17   C30   A    
C48   C162  A    
C20   C33   A    
C49   C163  A    
C11   O32   D    
C127  N1    S    
C97   H41   S    
C103  O12   A    
C130  N7    S    
C19   N10   Am   
C122  H24   S    
Cr4   O11   S    
C112  H23   S    
C70   C75   A    
C108  C121  A    
C106  C119  A    
C90   C151  A    
C131  N8    S    
C85   C138  A    
C14   O35   D    
C59   H6    S    
C60   H5    S    
C78   C131  A    
Cr6   O19   S    
C155  C168  A    
C107  C141  A    
C128  N5    S    
C17   O38   D    
C20   O41   D    
C147  O13   A    
C132  N9    S    
C68   H48   S    
C46   C88   A    
C64   C165  A    
C117  C130  A    
C6    N10   Am   
C23   O44   D    
C53   C154  A    
C92   O1    A    
C58   C159  A    
C13   O16   A    
C30   C43   A    
C102  C116  A    
C56   C157  A    
C166  O20   D    
Br7   C76   S    
C32   C45   A    
C94   C141  A    
C54   C64   A    
C36   C75   A    
C125  C141  S    
Cr4   O48   S    
C60   C161  A    
C16   N7    Am   
C1    O5    A    
C100  C113  A    
Br4   C67   S    
Cr1   O1    S    
C80   C94   A    
C68   C130  A    
C44   C159  A    
C18   C31   A    
C22   C36   A    
C3    O24   D    
C46   C128  A    
Cr4   O15   S    
C33   C47   A    
C58   H14   S    
C37   C50   A    
C100  C148  A    
C34   C48   A    
C63   C164  A    
Cr5   O19   S    
C7    N11   Am   
C124  H21   S    
C106  H60   S    
C26   C39   A    
C57   C89   A    
C126  C139  A    
C84   C97   A    
Cr3   O7    S    
C135  N12   S    
C123  C137  A    
C25   C38   A    
C147  O4    A    
C78   H49   S    
C118  H28   S    
C1    C142  S    
C11   C165  A    
C69   C76   A    
C46   H46   S    
C83   C96   A    
Cr1   O8    S    
C71   C74   A    
C61   H10   S    
C98   H42   S    
C119  H27   S    
C107  H12   S    
C31   C71   A    
C79   C93   A    
C2    O49   A    
C168  O22   D    
Br10  C66   S    
C22   O43   D    
Cr6   O4    S    
C110  H45   S    
C54   C155  A    
C120  C133  A    
C11   N4    Am   
C56   C62   A    
C114  O23   A    
C35   C87   A    
C97   C144  A    
C57   H47   S    
C98   C143  A    
Br11  C65   S    
C5    O26   D    
C114  C140  S    
C4    C157  A    
C8    C162  A    
C9    C163  A    
Br3   C69   S    
Cr1   O34   S    
C103  O8    A    
C65   C73   A    
C120  H19   S    
C38   C51   A    
C139  N4    S    
C100  H59   S    
C78   C91   A    
C82   C95   A    
C12   O33   D    
C27   C66   A    
C81   C143  S    
C83   C135  A    
C92   O7    A    
Br5   C72   S    
C96   C145  A    
C68   C90   A    
C125  O34   A    
C118  C131  A    
C88   C146  A    
C102  C152  A    
Cr2   O9    S    
C15   C28   A    
C28   C67   A    
C116  H30   S    
C137  N2    S    
C99   H43   S    
C93   C149  A    
C39   C153  A    
C55   C63   A    
C115  C128  A    
C95   C140  A    
Cr2   O18   S    
C3    N7    Am   
Cr3   O23   S    
C62   H9    S    
C136  O11   A    
C42   C156  A    
C105  H2    S    
C105  C150  A    
C81   O6    A    
Cr5   O16   S    
C22   N2    Am   
C168  N6    Am   
Cr3   O18   S    
C158  O48   A    
C95   H39   S    
C24   O2    A    
C2    C152  S    
C3    C156  A    
C9    O30   D    
C67   C77   A    
C166  N1    Am   
C63   H8    S    
C13   C146  S    
Cr5   O49   S    
C12   N1    Am   
Cr6   O50   S    
C82   C134  A    
C104  H3    S    
C84   H54   S    
C104  C151  A    
C126  H20   S    
C35   H44   S    
C111  C143  A    
C25   O46   D    
C122  C135  A    
Cr4   O2    S    
C112  C126  A    
C125  O10   A    
C14   C27   A    
C57   C129  A    
C25   N4    Am   
C16   C29   A    
C61   C162  A    
C10   O31   D    
C4    N8    Am   
C113  H26   S    
C109  C122  A    
C116  C129  A    
C45   C160  A    
C21   C34   A    
Cr3   O47   S    
C37   C76   A    
C9    N2    Am   
C86   C139  A    
Cr6   O17   S    
C42   C50   A    
C93   H37   S    
C7    O28   D    
Cr3   O10   S    
C44   C48   A    
Br12  C71   S    
C8    O29   D    
Cr2   O45   S    
C117  H29   S    
C15   N6    Am   
C7    C161  A    
C19   O40   D    
C167  N5    Am   
C38   C77   A    
C101  H58   S    
C29   C69   A    
C58   C61   A    
C147  C150  S    
C17   N8    Am   
C86   H57   S    
Cr2   O12   S    
Br2   C70   S    
C108  H1    S    
C91   C150  A    
C56   H15   S    
C110  C144  A    
C89   C152  A    
C32   C72   A    
C10   C164  A    
C26   C65   A    
C4    O25   D    
C62   C163  A    
C84   C137  A    
C110  C123  A    
C40   C45   A    
Cr5   O13   S    
C85   H55   S    
Cr6   O14   S    
C52   H13   S    
C35   C127  A    
C129  N6    S    
C121  C134  A    
C43   C157  A    
C119  C132  A    
C90   H35   S    
C8    N12   Am   
C55   C156  A    
C106  C149  A    
C112  C142  A    
C41   C51   A    
C30   C70   A    
C6    O27   D    
C113  C127  A    
C52   C153  A    
C103  C145  S    
C136  C149  S    
C20   N11   Am   
C91   H36   S    
C43   C49   A    
C23   N3    Am   
C151  C158  S    
C89   H33   S    
C40   C154  A    
C21   O42   D    
C82   H52   S    
C94   H38   S    
C104  C117  A    
C87   H31   S    
C21   N12   Am   
C12   C26   A    
C136  O3    A    
C24   O17   A    
C121  H18   S    
C27   C40   A    
C13   O50   A    
C50   C164  A    
C109  C145  A    
C87   C148  A    
C153  C166  A    
C41   C155  A    
Br1   C73   S    
C109  H56   S    
C80   H51   S    
C108  C140  A    
C19   C32   A    
C10   N3    Am   
C64   H7    S    
C83   H53   S    
Cr4   O19   S    
C53   C59   A    
C79   H50   S    
C88   H32   S    
C33   C73   A    
C23   C37   A    
Br9   C74   S    
Cr1   O5    S    
Cr2   O6    S    
C107  C120  A    
C133  N10   S    
C92   C144  S    
C105  C118  A    
C53   H11   S    
C54   H17   S    
C115  H25   S    
C158  O14   A    
C101  C146  A    
C114  O9    A    
C39   C47   A    
C15   O36   D    
C138  N3    S    
C79   C132  A    
C81   O47   A    
C5    N9    Am   
C86   C99   A    
C80   C133  A    
C59   C160  A    
C47   C161  A    
C124  C138  A    
C5    C159  A    
C18   O39   D    
C101  C115  A    
C6    C160  A    
Br6   C77   S    
C51   C165  A    
C111  C124  A    
Br8   C75   S    
C55   H16   S    
C85   C98   A    
C2    O15   A    
Cr5   O3    S    
C36   C49   A    
C96   H40   S    
C52   C60   A    
C99   C142  A    
C29   C42   A    
C14   N5    Am   
C24   C148  S    
C167  O21   D    
C66   C72   A    
C31   C44   A    
C28   C41   A    
C1    O45   A    
C18   N9    Am   
C134  N11   S    
C154  C167  A    
C16   O37   D    
Cr1   O18   S    
C123  H22   S    
C34   C74   A    
