data_mof_unit_50277.cif
_audit_creation_date              2013-03-05T16:36:15-0500
_audit_creation_method            fapswitch 2.2
_symmetry_space_group_name_H-M    P1
_symmetry_Int_Tables_number       1
_space_group_crystal_system       triclinic
_cell_length_a                    27.834021
_cell_length_b                    9.080025
_cell_length_c                    7.780287
_cell_angle_alpha                 90.036432
_cell_angle_beta                  90.000027
_cell_angle_gamma                 90.000063
_cell_volume                      1966.33959584

loop_
_atom_site_label
_atom_site_type_symbol
_atom_site_description
_atom_site_fract_x
_atom_site_fract_y
_atom_site_fract_z
_atom_type_partial_charge
O1    O     O_R   0.500000 0.288390 0.642760 -0.575257
O2    O     O_R   0.500000 0.711610 0.357240 -0.575257
O3    O     O_R   0.500000 0.711610 0.642760 -0.574851
O4    O     O_R   0.500000 0.288390 0.357240 -0.574851
C1    C     C_R   0.500000 0.220022 0.499967 0.853120
C2    C     C_R   0.500000 0.779978 0.500033 0.853120
O5    O     O_R   0.430260 0.500000 0.642770 -0.585695
O6    O     O_R   0.569740 0.500000 0.357230 -0.585706
O7    O     O_R   0.569740 0.500000 0.642770 -0.585706
O8    O     O_R   0.430260 0.500000 0.357230 -0.585695
C3    C     C_R   0.407181 0.500000 0.500000 0.796675
C4    C     C_R   0.592820 0.500000 0.500000 0.796689
Cu1   Cu    Cu3+1 0.500000 0.500000 0.669080 1.007978
Cu2   Cu    Cu3+1 0.500000 0.500000 0.330920 1.007978
C5    C     C_R   0.178014 0.370860 0.527311 0.536925
C6    C     C_R   0.821974 0.629131 0.472614 0.536999
C7    C     C_R   0.178014 0.629146 0.472687 0.536925
C8    C     C_R   0.821974 0.370870 0.527386 0.536999
O9    O     O_2   0.202879 0.245179 0.553143 -0.516539
O10   O     O_2   0.797104 0.754780 0.446651 -0.516407
O11   O     O_2   0.202879 0.754826 0.446855 -0.516539
O12   O     O_2   0.797104 0.245221 0.553350 -0.516407
N1    N     N_R   0.202051 0.500003 0.499999 -0.472491
N2    N     N_R   0.797942 0.500001 0.500000 -0.472595
C9    C     C_R   0.278658 0.490214 0.655405 -0.099365
C10   C     C_R   0.721346 0.507902 0.344458 -0.099559
C11   C     C_R   0.278658 0.509792 0.344595 -0.099365
C12   C     C_R   0.721346 0.492098 0.655542 -0.099559
C13   C     C_R   0.328758 0.490533 0.655636 -0.206081
C14   C     C_R   0.671246 0.507604 0.344231 -0.205879
C15   C     C_R   0.328758 0.509470 0.344364 -0.206081
C16   C     C_R   0.671246 0.492396 0.655770 -0.205879
C17   C     C_R   0.253515 0.500003 0.500000 0.360293
C18   C     C_R   0.746484 0.500000 0.500000 0.360829
C19   C     C_R   0.101918 0.500002 0.499999 -0.043353
C20   C     C_R   0.898069 0.500001 0.500000 -0.043331
C21   C     C_R   0.127575 0.368410 0.527598 -0.020618
C22   C     C_R   0.872413 0.631586 0.472343 -0.020677
C23   C     C_R   0.127575 0.631594 0.472400 -0.020618
C24   C     C_R   0.872413 0.368416 0.527657 -0.020676
C25   C     C_R   0.102529 0.237416 0.554563 -0.145219
C26   C     C_R   0.897459 0.762570 0.445316 -0.145236
C27   C     C_R   0.102529 0.762589 0.445434 -0.145219
C28   C     C_R   0.897459 0.237432 0.554684 -0.145236
C29   C     C_R   0.354272 0.500001 0.500000 -0.037790
C30   C     C_R   0.645730 0.500000 0.500000 -0.037833
C31   C     C_R   0.974431 0.365850 0.527760 0.045042
C32   C     C_R   0.025556 0.634157 0.472262 0.045046
C33   C     C_R   0.974431 0.634153 0.472238 0.045042
C34   C     C_R   0.025556 0.365846 0.527736 0.045047
C35   C     C_R   0.949210 0.500001 0.499999 0.067299
C36   C     C_R   0.050778 0.500002 0.499999 0.067284
C37   C     C_R   0.947317 0.235786 0.554753 -0.208218
C38   C     C_R   0.052670 0.764233 0.445349 -0.208214
C39   C     C_R   0.947317 0.764216 0.445246 -0.208218
C40   C     C_R   0.052670 0.235771 0.554648 -0.208215
C41   C     C_1   0.500000 0.065394 0.499954 -0.166725
C42   C     C_1   0.500000 0.934606 0.500046 -0.166725
N3    N     N_1   0.500000 0.500000 0.076820 -0.049776
N4    N     N_1   0.500000 0.500000 0.923180 -0.049776
H1    H     H_    0.347456 0.516958 0.222568 0.160718
H2    H     H_    0.652550 0.486416 0.777676 0.160678
H3    H     H_    0.347455 0.483044 0.777432 0.160718
H4    H     H_    0.652551 0.513584 0.222324 0.160678
H5    H     H_    0.259317 0.517174 0.224093 0.136988
H6    H     H_    0.740691 0.486189 0.776141 0.136639
H7    H     H_    0.259317 0.482832 0.775907 0.136988
H8    H     H_    0.740691 0.513811 0.223860 0.136639
H9    H     H_    0.121420 0.134693 0.575939 0.187077
H10   H     H_    0.878567 0.865282 0.423882 0.187080
H11   H     H_    0.121420 0.865311 0.424058 0.187076
H12   H     H_    0.878568 0.134720 0.576118 0.187080
H13   H     H_    0.963247 0.129608 0.576791 0.132462
H14   H     H_    0.036741 0.870423 0.423387 0.132431
H15   H     H_    0.963246 0.870395 0.423209 0.132462
H16   H     H_    0.036742 0.129580 0.576610 0.132432

loop_
_geom_bond_atom_site_label_1
_geom_bond_atom_site_label_2
_geom_bond_distance
_ccdc_geom_bond_type
O5    Cu1   1.951908 S    
C13   H3    1.083288 S    
C5    O9    1.349799 S    
C40   H16   1.075027 S    
C15   H1    1.083289 S    
C14   H4    1.083234 S    
C2    C42   1.404020 S    
C12   H6    1.083164 S    
C9    H7    1.083218 S    
O3    C2    1.272541 A    
Cu1   N4    1.976970 S    
C11   C17   1.399901 A    
C32   C38   1.417280 A    
Cu2   N3    1.976970 S    
C7    N1    1.366795 A    
O1    C1    1.272303 A    
C19   C21   1.408584 A    
C22   C26   1.394652 A    
C26   H10   1.083650 S    
C7    C23   1.404095 A    
C8    C24   1.404090 A    
C5    C21   1.404093 A    
C20   C24   1.408598 A    
O7    Cu1   1.951905 S    
C38   H14   1.075030 S    
C28   C37   1.387846 A    
C10   C18   1.399752 A    
N1    C17   1.432447 S    
C34   C36   1.422528 A    
O3    Cu1   1.932435 S    
O6    C4    1.283182 A    
C31   C37   1.417279 A    
C39   H15   1.075025 S    
C5    N1    1.366796 A    
C12   C18   1.399752 A    
N3    N4    1.195364 T    
C6    N2    1.366722 A    
Cu1   Cu2   2.630983 S    
O4    Cu2   1.932436 S    
O2    C2    1.272303 A    
O5    C3    1.283169 A    
C31   C34   1.423023 A    
C9    C13   1.394480 A    
C11   C15   1.394480 A    
C12   C16   1.394485 A    
C4    C30   1.472701 S    
O8    Cu2   1.951908 S    
C23   C27   1.394665 A    
O6    Cu2   1.951905 S    
C33   C35   1.422528 A    
C33   C39   1.417281 A    
C34   C40   1.417280 A    
C13   C29   1.406462 A    
C19   C23   1.408583 A    
C25   C40   1.387843 A    
C11   H5    1.083218 S    
C26   C39   1.387846 A    
C27   C38   1.387843 A    
C32   C36   1.422528 A    
C6    O10   1.349788 S    
C20   C35   1.423437 A    
C32   C33   1.423020 A    
C10   C14   1.394485 A    
C8    N2    1.366721 A    
C3    C29   1.472654 S    
O1    Cu1   1.932177 S    
C25   H9    1.083655 S    
C27   H11   1.083653 S    
C8    O12   1.349788 S    
C16   C30   1.406433 A    
C14   C30   1.406433 A    
C37   H13   1.075025 S    
O4    C1    1.272541 A    
C31   C35   1.422528 A    
C1    C41   1.404020 S    
C10   H8    1.083165 S    
C20   C22   1.408598 A    
C16   H2    1.083234 S    
C41   C42   1.187567 T    
C28   H12   1.083650 S    
C21   C25   1.394666 A    
O2    Cu2   1.932176 S    
O7    C4    1.283182 A    
N2    C18   1.432289 S    
O8    C3    1.283169 A    
C24   C28   1.394652 A    
C15   C29   1.406460 A    
C6    C22   1.404088 A    
C19   C36   1.423443 A    
C9    C17   1.399899 A    
C7    O11   1.349799 S    
