data_mof_unit_59264.cif
_audit_creation_date              2013-03-05T15:55:22-0500
_audit_creation_method            fapswitch 2.2
_symmetry_space_group_name_H-M    P1
_symmetry_Int_Tables_number       1
_space_group_crystal_system       triclinic
_cell_length_a                    27.715611
_cell_length_b                    10.686938
_cell_length_c                    9.872504
_cell_angle_alpha                 89.335679
_cell_angle_beta                  89.730519
_cell_angle_gamma                 91.422089
_cell_volume                      2923.05289509

loop_
_atom_site_label
_atom_site_type_symbol
_atom_site_description
_atom_site_fract_x
_atom_site_fract_y
_atom_site_fract_z
_atom_type_partial_charge
O1    O     O_R   0.500000 0.316780 0.614690 -0.590832
O2    O     O_R   0.500000 0.316750 0.385360 -0.649401
C1    C     C_R   0.504688 0.260524 0.501743 0.883556
O3    O     O_R   0.428760 0.500030 0.614650 -0.652183
O4    O     O_R   0.428750 0.500010 0.385320 -0.634906
C2    C     C_R   0.406102 0.500061 0.500327 0.849136
Zn1   Zn    Zn3+2 0.500000 0.500020 0.653130 0.954393
Zn2   Zn    Zn3+2 0.500000 0.499980 0.346870 0.936394
O5    O     O_R   0.500000 0.683250 0.614640 -0.627096
O6    O     O_R   0.500000 0.683220 0.385310 -0.617655
O7    O     O_R   0.571250 0.499990 0.614680 -0.612728
O8    O     O_R   0.571240 0.499970 0.385350 -0.618810
C3    C     C_R   0.495796 0.739620 0.499774 0.880298
C4    C     C_R   0.593913 0.499709 0.499603 0.867286
C5    C     C_R   0.176480 0.433543 0.594653 0.507000
O9    O     O_2   0.200412 0.362121 0.684404 -0.565055
N1    N     N_R   0.201501 0.507450 0.503215 -0.355236
C6    C     C_R   0.178363 0.580514 0.410627 0.503390
C7    C     C_R   0.277564 0.465178 0.387645 -0.097546
C8    C     C_R   0.327652 0.463725 0.386506 -0.223118
C9    C     C_R   0.328903 0.541835 0.616676 -0.225930
C10   C     C_R   0.278825 0.545113 0.616805 -0.093651
C11   C     C_R   0.253037 0.506347 0.502507 0.303958
C12   C     C_R   0.101433 0.501138 0.496551 -0.058668
C13   C     C_R   0.126015 0.430086 0.593992 -0.012392
C14   C     C_R   0.099808 0.358663 0.689481 -0.175954
C15   C     C_R   0.127931 0.578071 0.404921 -0.019247
C16   C     C_R   0.353552 0.501636 0.501240 -0.033916
H1    H     H_    0.348316 0.572189 0.705934 0.161553
H2    H     H_    0.259999 0.577622 0.705576 0.152438
H3    H     H_    0.117793 0.308223 0.769730 0.192284
C17   C     C_R   0.646461 0.496274 0.497754 -0.041602
C18   C     C_R   0.973733 0.397400 0.564469 -0.091816
C19   C     C_R   0.974948 0.574173 0.400536 0.081339
C20   C     C_R   0.949085 0.484946 0.482393 0.018352
C21   C     C_R   0.946479 0.296683 0.625761 0.437989
C22   C     C_R   0.896275 0.298106 0.626189 -0.212494
C23   C     C_R   0.871832 0.392058 0.557773 -0.098254
C24   C     C_R   0.898034 0.483501 0.482344 -0.056711
C25   C     C_R   0.873060 0.574088 0.407510 0.002224
C26   C     C_R   0.822646 0.573790 0.412896 0.502287
N2    N     N_R   0.798102 0.485429 0.488881 -0.354411
C27   C     C_R   0.821381 0.394756 0.559718 0.534248
C28   C     C_R   0.720381 0.451028 0.379052 -0.110080
C29   C     C_R   0.670387 0.455612 0.381255 -0.229377
C30   C     C_R   0.673099 0.532804 0.611769 -0.233555
C31   C     C_R   0.723186 0.528157 0.609266 -0.116842
C32   C     C_R   0.746755 0.487345 0.492877 0.318597
O10   O     O_2   0.795713 0.307412 0.631132 -0.579970
C33   C     C_R   0.024372 0.412690 0.579644 0.045960
C34   C     C_R   0.050414 0.495314 0.490934 0.065936
C35   C     C_R   0.025990 0.572726 0.397440 0.045525
C36   C     C_R   0.049824 0.352206 0.684197 -0.181861
H4    H     H_    0.650485 0.426454 0.292387 0.161882
H5    H     H_    0.738733 0.419534 0.289042 0.140985
H6    H     H_    0.876575 0.222842 0.678183 0.208854
H7    H     H_    0.031856 0.303094 0.766739 0.208308
O11   O     O_2   0.204156 0.655572 0.324787 -0.563184
C37   C     C_R   0.103696 0.649765 0.309053 -0.137716
H8    H     H_    0.346025 0.431693 0.296754 0.161209
H9    H     H_    0.257719 0.434117 0.299457 0.150748
H10   H     H_    0.123327 0.708265 0.236147 0.189489
C38   C     C_R   0.948725 0.663027 0.325662 -0.239212
C39   C     C_R   0.898748 0.663322 0.330020 -0.144495
O12   O     O_2   0.798242 0.661454 0.343690 -0.562370
C40   C     C_R   0.053661 0.647241 0.305077 -0.225933
H11   H     H_    0.965794 0.736982 0.266292 0.141843
H12   H     H_    0.655283 0.565481 0.702121 0.153261
H13   H     H_    0.880311 0.734383 0.272343 0.188483
H14   H     H_    0.743743 0.556850 0.697088 0.141761
H15   H     H_    0.037771 0.702762 0.226048 0.145911
H16   H     H_    0.515916 0.114870 0.287806 0.172136
C41   C     C_R   0.517292 0.106922 0.762699 0.498643
C42   C     C_R   0.497299 0.048546 0.878142 -0.200097
H17   H     H_    0.504095 0.087200 0.977381 0.162097
C43   C     C_R   0.469194 0.939803 0.866491 -0.250869
H18   H     H_    0.452804 0.896521 0.955678 0.167413
C44   C     C_R   0.464654 0.882708 0.741008 -0.153950
H19   H     H_    0.443254 0.796834 0.735955 0.168330
C45   C     C_R   0.486847 0.937159 0.624293 0.048681
C46   C     C_R   0.505648 0.059263 0.631496 -0.046093
C47   C     C_R   0.510267 0.127143 0.507117 -0.128178
C48   C     C_R   0.510595 0.065210 0.383281 -0.218482
H20   H     H_    0.507059 0.891108 0.284671 0.167112
C49   C     C_R   0.503566 0.938182 0.380739 -0.207178
C50   C     C_R   0.492189 0.873324 0.500640 -0.099102
H21   H     H_    0.553859 0.640934 0.123240 0.149087
C51   C     C_R   0.436908 0.335488 0.142936 -0.176218
H22   H     H_    0.434440 0.329777 0.250283 0.209140
C52   C     C_R   0.405934 0.254612 0.073683 -0.213244
H23   H     H_    0.381764 0.191369 0.129291 0.160465
C53   C     C_R   0.405890 0.255030 0.933557 -0.183783
H24   H     H_    0.381815 0.191830 0.879795 0.164516
C54   C     C_R   0.436911 0.336103 0.861970 -0.135903
H25   H     H_    0.434872 0.330402 0.754717 0.202154
C55   C     C_R   0.468915 0.419030 0.928844 0.188241
C56   C     C_R   0.468931 0.418917 0.073684 0.166048
N3    N     N_R   0.499540 0.498800 0.142780 -0.121207
C57   C     C_R   0.529673 0.577597 0.070246 -0.128510
H26   H     H_    0.553857 0.640823 0.871560 0.147028
C58   C     C_R   0.529673 0.577524 0.926855 -0.113831
N4    N     N_R   0.499520 0.498720 0.857170 -0.112673
O13   O     O_3   0.549934 0.204990 0.783473 -0.625114
C59   C     C_3   0.596052 0.173142 0.735083 0.091414
H27   H     H_    0.598498 0.192658 0.624340 0.139870
H28   H     H_    0.604099 0.072663 0.754993 0.123466
C60   C     C_3   0.634080 0.253354 0.807319 -0.369692
H29   H     H_    0.626071 0.353822 0.792460 0.244448
H30   H     H_    0.632671 0.232052 0.917770 0.220789
C61   C     C_3   0.684687 0.228820 0.753990 -0.847521
H31   H     H_    0.693990 0.129600 0.772473 0.262099
H32   H     H_    0.711286 0.289935 0.807110 0.283044
H33   H     H_    0.686960 0.249657 0.643614 0.280308
O14   O     O_3   0.967752 0.193061 0.682555 -0.662447
C62   C     C_3   0.978653 0.108524 0.578530 0.070319
H34   H     H_    0.003062 0.153467 0.501047 0.149722
H35   H     H_    0.944860 0.074557 0.528612 0.149002
C63   C     C_3   0.004160 0.996513 0.640491 -0.314799
H36   H     H_    0.037985 0.029387 0.690337 0.228573
H37   H     H_    0.980376 0.950965 0.718589 0.232225
C64   C     C_3   0.016418 0.900588 0.533207 -0.940190
H38   H     H_    0.982977 0.866560 0.482745 0.267917
H39   H     H_    0.034147 0.819543 0.581647 0.275149
H40   H     H_    0.041392 0.942813 0.456046 0.266969

loop_
_geom_bond_atom_site_label_1
_geom_bond_atom_site_label_2
_geom_bond_distance
_ccdc_geom_bond_type
C58   N4    1.365610 A    
C55   N4    1.374772 A    
C26   N2    1.365330 A    
C20   C24   1.414616 A    
C7    C8    1.388664 A    
C12   C15   1.407203 A    
C21   O14   1.381826 S    
C63   H37   1.111981 S    
C59   H28   1.117525 S    
O14   C62   1.412220 S    
C49   C50   1.395585 A    
Zn1   O7    2.009145 S    
N1    C11   1.428670 S    
C42   C43   1.389085 A    
C21   C22   1.391874 A    
C43   C44   1.392134 A    
C37   C40   1.387090 A    
C23   C24   1.407030 A    
O7    C4    1.295661 A    
C44   C45   1.415874 A    
C5    C13   1.398282 A    
C5    O9    1.350067 S    
C56   N3    1.377250 A    
C18   C21   1.426720 A    
O5    C3    1.285057 A    
C5    N1    1.367509 A    
C19   C20   1.420883 A    
C17   C29   1.403607 A    
Zn2   N3    2.015163 S    
C61   H31   1.110698 S    
C19   C38   1.413973 A    
C64   H40   1.111123 S    
C45   C50   1.414296 A    
C63   H36   1.111982 S    
C22   H6    1.083772 S    
C6    O11   1.350082 S    
C2    C16   1.456957 S    
C31   C32   1.398545 A    
C62   H35   1.115089 S    
Zn1   N4    2.014251 S    
C3    C50   1.434973 S    
C60   H29   1.109987 S    
C8    H8    1.083096 S    
C51   C56   1.411031 A    
C12   C34   1.415227 A    
C14   H3    1.083453 S    
C9    C10   1.389232 A    
C60   H30   1.111668 S    
O3    Zn1   2.012434 S    
C41   C46   1.432625 A    
C59   H27   1.112085 S    
C46   C47   1.422574 A    
H21   C57   1.081777 S    
C43   H18   1.082567 S    
C41   C42   1.398422 A    
C38   H11   1.077071 S    
C33   C36   1.412397 A    
C42   H17   1.083180 S    
C34   C35   1.417958 A    
C12   C13   1.407509 A    
O3    C2    1.294178 A    
C4    C17   1.457795 S    
C24   C25   1.408408 A    
C36   H7    1.077406 S    
C44   H19   1.082040 S    
C27   O10   1.349638 S    
C26   O12   1.350180 S    
C8    C16   1.402260 A    
C33   C34   1.418489 A    
C18   C33   1.417777 A    
C9    H1    1.083360 S    
O1    C1    1.280527 A    
C63   C64   1.525541 S    
C7    C11   1.400271 A    
C31   H14   1.082819 S    
C30   H12   1.083092 S    
C22   C23   1.394865 A    
C52   C53   1.383360 A    
C40   H15   1.077139 S    
Zn2   O8    2.012431 S    
C62   C63   1.528394 S    
C55   C56   1.429922 A    
C1    C47   1.438001 S    
C53   C54   1.390130 A    
N1    C6    1.367577 A    
N2    C32   1.424126 S    
C39   H13   1.083532 S    
H20   C49   1.083795 S    
C54   C55   1.410030 A    
C61   H33   1.110863 S    
C64   H38   1.109647 S    
C25   C26   1.397937 A    
C57   C58   1.415642 A    
C9    C16   1.403087 A    
O8    C4    1.293782 A    
C29   H4    1.083256 S    
C47   C48   1.397067 A    
C60   C61   1.525713 S    
N2    C27   1.365254 A    
C14   C36   1.386601 A    
C35   C40   1.414243 A    
C28   C29   1.387775 A    
Zn1   O5    1.990368 S    
C30   C31   1.390436 A    
C37   H10   1.083478 S    
C10   H2    1.082937 S    
C48   C49   1.367190 A    
O1    Zn1   1.999023 S    
C17   C30   1.402924 A    
O2    Zn2   1.990366 S    
C6    C15   1.398765 A    
C51   C52   1.390620 A    
C45   C46   1.395765 A    
O6    C3    1.293026 A    
O4    Zn2   2.009148 S    
C19   C35   1.415318 A    
C25   C39   1.394929 A    
O2    C1    1.298999 A    
C13   C14   1.395800 A    
C23   C27   1.399344 A    
C15   C37   1.395956 A    
C28   H5    1.082971 S    
C52   H23   1.082777 S    
O4    C2    1.294794 A    
C7    H9    1.082989 S    
C53   H24   1.082768 S    
C18   C20   1.420542 A    
C54   H25   1.063003 S    
C61   H32   1.110285 S    
C64   H39   1.110868 S    
H16   C48   1.084011 S    
C38   C39   1.385697 A    
C28   C32   1.396964 A    
C41   O13   1.385138 S    
C51   H22   1.062618 S    
Zn2   O6    1.999022 S    
N3    C57   1.365608 A    
O13   C59   1.413318 S    
C10   C11   1.399830 A    
H26   C58   1.081825 S    
C59   C60   1.526648 S    
C62   H34   1.115346 S    
