data_mof_unit_37672.cif
_audit_creation_date              2012-12-10T17:49:35-0500
_audit_creation_method            fapswitch 2.2
_symmetry_space_group_name_H-M    P1
_symmetry_Int_Tables_number       1
_space_group_crystal_system       triclinic
_cell_length_a                    10.529732
_cell_length_b                    10.718341
_cell_length_c                    9.970961
_cell_angle_alpha                 88.551493
_cell_angle_beta                  90.360385
_cell_angle_gamma                 94.700374
_cell_volume                      1121.18209068

loop_
_atom_site_label
_atom_site_type_symbol
_atom_type_description
_atom_site_fract_x
_atom_site_fract_y
_atom_site_fract_z
_atom_type_partial_charge
C1    C     C_R   0.508266 0.260428 0.502262 0.955570
C2    C     C_3   0.969643 0.611234 0.449678 0.405059
C3    C     C_3   0.040476 0.516458 0.371296 -0.206687
C4    C     C_3   0.121968 0.498289 0.497654 -0.136224
C5    C     C_R   0.522005 0.102536 0.757912 -0.069804
C6    C     C_R   0.475230 0.036898 0.872237 -0.060802
C7    C     C_R   0.404976 0.922198 0.859349 -0.055351
C8    C     C_R   0.393113 0.867703 0.734174 -0.114610
C9    C     C_R   0.449489 0.929348 0.619366 0.047611
C10   C     C_R   0.495966 0.054751 0.628269 0.116194
C11   C     C_R   0.511046 0.126066 0.506718 -0.165166
C12   C     C_R   0.257334 0.498346 0.499332 0.948947
C13   C     C_R   0.502748 0.067650 0.382884 -0.180107
C14   C     C_R   0.480553 0.940521 0.376244 0.443168
C15   C     C_R   0.463277 0.869330 0.496152 -0.229134
C16   C     C_R   0.319953 0.349714 0.151636 -0.297974
C17   C     C_R   0.212907 0.290506 0.095943 0.298066
C18   C     C_R   0.192296 0.302715 0.959968 0.326808
C19   C     C_R   0.292730 0.352904 0.876601 0.266065
C20   C     C_R   0.402897 0.426854 0.931550 0.003336
C21   C     C_R   0.407940 0.426741 0.076149 -0.008308
C22   C     C_R   0.587719 0.571353 0.068660 0.479426
C23   C     C_R   0.485476 0.737902 0.498338 0.920158
C24   C     C_R   0.588505 0.569885 0.926466 -0.151192
C25   C     C_R   0.742425 0.503891 0.500588 0.973696
C26   C     C_3   0.030424 0.389843 0.550749 -0.109286
C27   C     C_3   0.946884 0.409539 0.426261 0.385542
C28   C     C_3   0.877424 0.504577 0.502228 -0.196391
C29   C     C_3   0.959269 0.486217 0.627676 -0.203882
C30   C     C_3   0.053403 0.594515 0.574758 -0.212480
H1    H     H_    0.362835 0.873445 0.946496 0.198156
H2    H     H_    0.330186 0.333545 0.255983 0.255696
H3    H     H_    0.660665 0.627417 0.871337 0.183938
H4    H     H_    0.055668 0.296885 0.588243 0.248270
H5    H     H_    0.922992 0.474398 0.731919 0.219520
H6    H     H_    0.101196 0.670708 0.634893 0.177226
H7    H     H_    0.491013 0.076546 0.970327 0.177573
N1    N     N_R   0.498800 0.498800 0.142780 -0.124551
N2    N     N_R   0.498760 0.498720 0.857170 -0.120815
O1    O     O_R   0.500000 0.316780 0.614690 -0.585272
O2    O     O_R   0.499990 0.316750 0.385360 -0.647413
O3    O     O_R   0.313960 0.499980 0.614650 -0.586317
O4    O     O_R   0.313940 0.499960 0.385310 -0.650236
O5    O     O_R   0.500010 0.683250 0.614640 -0.639996
O6    O     O_R   0.500000 0.683220 0.385310 -0.521662
O7    O     O_R   0.686060 0.500040 0.614690 -0.638835
O8    O     O_R   0.686040 0.500020 0.385350 -0.540657
Zn1   Zn    Zn3+2 0.500010 0.500020 0.653130 0.994401
Zn2   Zn    Zn3+2 0.499990 0.499980 0.346870 1.060630
Cl1   Cl    Cl    0.864124 0.287782 0.333620 -0.466893
H8    H     H_    0.338803 0.777812 0.727628 0.152812
Cl2   Cl    Cl    0.468646 0.879343 0.213506 -0.570516
Cl3   Cl    Cl    0.703629 0.670237 0.148211 -0.440362
Cl4   Cl    Cl    0.113564 0.189005 0.198274 -0.411556
Cl5   Cl    Cl    0.044770 0.237823 0.894334 -0.464126
Cl6   Cl    Cl    0.281381 0.271429 0.727302 -0.575029
Cl7   Cl    Cl    0.927608 0.759604 0.387782 -0.442759
H9    H     H_    0.076388 0.527864 0.266869 0.202524
H10   H     H_    0.512210 0.120844 0.289037 0.208279
H11   H     H_    0.579070 0.189303 0.773531 0.175721

loop_
_geom_bond_atom_site_label_1
_geom_bond_atom_site_label_2
_ccdc_geom_bond_type
C19   Cl6   S    
C4    C26   S    
C16   C21   A    
C29   C30   S    
C13   H10   S    
O6    Zn2   S    
C16   H2    S    
C9    C10   A    
C29   H5    S    
C24   H3    S    
C5    H11   S    
C27   Cl1   S    
C30   H6    S    
C2    C30   S    
C15   C23   S    
C17   C18   A    
C9    C15   A    
C6    H7    S    
C4    C30   S    
C7    C8    A    
O8    Zn2   S    
N1    Zn2   S    
O3    Zn1   S    
C13   C14   A    
C25   C28   S    
C11   C13   A    
C8    H8    S    
C26   C27   S    
C6    C7    A    
C18   Cl5   S    
C23   O6    A    
C22   Cl3   S    
C17   Cl4   S    
O2    Zn2   S    
C28   C29   S    
C2    C3    S    
C12   O4    A    
O7    Zn1   S    
C3    C27   S    
C5    C6    A    
C22   C24   A    
C2    Cl7   S    
C7    H1    S    
C10   C11   A    
C21   N1    A    
C12   O3    A    
C3    C4    S    
C22   N1    A    
C3    H9    S    
O5    Zn1   S    
C5    C10   A    
C24   N2    A    
C20   C21   A    
C26   C29   S    
C18   C19   A    
C1    O2    A    
C27   C28   S    
O1    Zn1   S    
C20   N2    A    
C25   O8    A    
C14   C15   A    
O4    Zn2   S    
C2    C28   S    
C1    O1    A    
C4    C12   S    
C25   O7    A    
C26   H4    S    
C14   Cl2   S    
C23   O5    A    
C19   C20   A    
C16   C17   A    
C8    C9    A    
N2    Zn1   S    
C1    C11   S    
