data_mof_unit_6602.cif
_audit_creation_date              2012-12-10T17:46:17-0500
_audit_creation_method            fapswitch 2.2
_symmetry_space_group_name_H-M    P1
_symmetry_Int_Tables_number       1
_space_group_crystal_system       triclinic
_cell_length_a                    14.150383
_cell_length_b                    10.643462
_cell_length_c                    9.928841
_cell_angle_alpha                 89.91048
_cell_angle_beta                  89.9522
_cell_angle_gamma                 91.592461
_cell_volume                      1494.79350374

loop_
_atom_site_label
_atom_site_type_symbol
_atom_type_description
_atom_site_fract_x
_atom_site_fract_y
_atom_site_fract_z
_atom_type_partial_charge
C1    C     C_R   0.502411 0.260673 0.500129 0.845063
C2    C     C_R   0.438964 0.061989 0.429934 -0.215042
C3    C     C_R   0.439165 0.933595 0.429636 -0.198787
C4    C     C_R   0.329293 0.499676 0.500077 0.875684
C5    C     C_R   0.509432 0.872030 0.499381 -0.101986
C6    C     C_R   0.376721 0.334500 0.140217 -0.147096
C7    C     C_R   0.316428 0.252490 0.070309 -0.195803
C8    C     C_R   0.316454 0.252434 0.930953 -0.186401
C9    C     C_R   0.376799 0.334357 0.860585 -0.143098
C10   C     C_R   0.439445 0.418308 0.927934 0.165248
C11   C     C_R   0.439431 0.418374 0.072446 0.169296
C12   C     C_1   0.772190 0.500023 0.499955 -0.213309
C13   C     C_R   0.557993 0.578180 0.071223 -0.108494
C14   C     C_R   0.557965 0.578162 0.928231 -0.109012
C15   C     C_R   0.502829 0.739481 0.499869 0.865510
C16   C     C_R   0.670712 0.500339 0.499940 0.864863
C17   C     C_1   0.227797 0.499369 0.500189 -0.210408
C18   C     C_1   0.142527 0.499216 0.500246 -0.012987
C19   C     C_1   0.042615 0.499229 0.500258 0.003816
C20   C     C_1   0.957349 0.499389 0.500208 0.003167
C21   C     C_1   0.857447 0.499707 0.500081 -0.013119
C22   C     C_R   0.658723 0.136619 0.629810 -0.173199
C23   C     C_R   0.731677 0.073628 0.692764 -0.131982
C24   C     C_R   0.731860 0.942930 0.692413 -0.138878
C25   C     C_R   0.659105 0.874730 0.629073 -0.189254
C26   C     C_R   0.583761 0.937105 0.566368 0.096582
C27   C     C_R   0.583561 0.068888 0.566720 0.098845
C28   C     C_R   0.509043 0.128610 0.499987 -0.088991
H1    H     H_    0.382856 0.109654 0.377910 0.138409
H2    H     H_    0.605339 0.642168 0.124619 0.148705
H3    H     H_    0.371710 0.329378 0.246971 0.194381
H4    H     H_    0.269146 0.188845 0.124822 0.146436
H5    H     H_    0.269169 0.188760 0.876811 0.150173
H6    H     H_    0.371909 0.329123 0.753818 0.199302
H7    H     H_    0.605264 0.642170 0.874429 0.145028
H8    H     H_    0.662886 0.238133 0.629402 0.151950
H9    H     H_    0.788785 0.126450 0.740681 0.139612
H10   H     H_    0.789110 0.894223 0.740039 0.137447
H11   H     H_    0.663536 0.773504 0.628013 0.140528
H12   H     H_    0.383183 0.881830 0.377469 0.154104
N1    N     N_R   0.499190 0.498800 0.142780 -0.115175
N2    N     N_R   0.499160 0.498720 0.857170 -0.114656
O1    O     O_R   0.500000 0.316780 0.614690 -0.634780
O2    O     O_R   0.499990 0.316750 0.385360 -0.622324
O3    O     O_R   0.373720 0.500010 0.614690 -0.608957
O4    O     O_R   0.373710 0.499990 0.385360 -0.613904
O5    O     O_R   0.500010 0.683250 0.614640 -0.608444
O6    O     O_R   0.500000 0.683220 0.385310 -0.605812
O7    O     O_R   0.626290 0.500010 0.614640 -0.608502
O8    O     O_R   0.626280 0.499990 0.385310 -0.587298
Zn1   Zn    Zn3+2 0.500010 0.500020 0.653130 0.927276
Zn2   Zn    Zn3+2 0.499990 0.499980 0.346870 0.936273

loop_
_geom_bond_atom_site_label_1
_geom_bond_atom_site_label_2
_ccdc_geom_bond_type
C1    C28   S    
C24   H10   S    
C23   C24   A    
C6    C7    A    
C5    C26   A    
C10   N2    A    
C2    C28   A    
C9    C10   A    
C1    O2    A    
O8    Zn2   S    
C19   C20   T    
C15   O5    A    
N2    Zn1   S    
C14   N2    A    
O2    Zn2   S    
C13   N1    A    
C17   C18   T    
C25   C26   A    
C3    C5    A    
C7    C8    A    
C4    O4    A    
C13   C14   A    
C24   C25   A    
O1    Zn1   S    
C26   C27   A    
C15   O6    A    
C2    H1    S    
C4    C17   S    
C16   O8    A    
C3    H12   S    
C11   N1    A    
C2    C3    A    
C22   C27   A    
C6    C11   A    
C9    H6    S    
C5    C15   S    
C10   C11   A    
O3    Zn1   S    
C4    O3    A    
C6    H3    S    
O4    Zn2   S    
C13   H2    S    
O6    Zn2   S    
C22   H8    S    
C16   O7    A    
C18   C19   S    
C14   H7    S    
C22   C23   A    
C8    C9    A    
O5    Zn1   S    
C7    H4    S    
N1    Zn2   S    
O7    Zn1   S    
C20   C21   S    
C23   H9    S    
C12   C21   T    
C1    O1    A    
C25   H11   S    
C12   C16   S    
C8    H5    S    
C27   C28   A    
