data_mof_unit_31354.cif
_audit_creation_date              2012-12-10T18:57:11-0500
_audit_creation_method            fapswitch 2.2
_symmetry_space_group_name_H-M    P1
_symmetry_Int_Tables_number       1
_space_group_crystal_system       triclinic
_cell_length_a                    10.703236
_cell_length_b                    9.846627
_cell_length_c                    10.700441
_cell_angle_alpha                 90.200719
_cell_angle_beta                  89.87721
_cell_angle_gamma                 90.372498
_cell_volume                      1127.69445628

loop_
_atom_site_label
_atom_site_type_symbol
_atom_type_description
_atom_site_fract_x
_atom_site_fract_y
_atom_site_fract_z
_atom_type_partial_charge
C1    C     C_R   0.260272 0.499036 0.499259 0.964579
C2    C     C_R   0.499997 0.622091 0.936940 -0.231056
C3    C     C_R   0.478705 0.500008 0.128616 -0.187854
C4    C     C_R   0.468553 0.504718 0.870873 -0.197016
C5    C     C_R   0.413290 0.394789 0.066782 0.320672
C6    C     C_R   0.413833 0.393361 0.934254 0.339794
C7    C     C_3   0.603464 0.727963 0.923719 0.837402
C8    C     C_3   0.625011 0.710455 0.065152 0.779979
C9    C     C_R   0.063574 0.401481 0.567919 0.374451
C10   C     C_R   0.934584 0.406857 0.572076 0.394698
C11   C     C_R   0.872347 0.500260 0.495531 -0.426982
C12   C     C_R   0.739818 0.500322 0.498746 0.946905
C13   C     C_R   0.128071 0.495490 0.493131 -0.436757
C14   C     C_R   0.937728 0.590410 0.416014 0.340256
C15   C     C_R   0.065946 0.585167 0.412765 0.393862
C16   C     C_3   0.442706 0.883431 0.868136 -0.256060
C17   C     C_3   0.764092 0.519589 0.077986 -0.329763
C18   C     C_3   0.123029 0.181674 0.596429 -0.137727
C19   C     C_3   0.854417 0.375194 0.766490 -0.273425
C20   C     C_3   0.795381 0.899000 0.609811 -0.232953
C21   C     C_3   0.307374 0.913126 0.238178 -0.194594
C22   C     C_R   0.584106 0.073174 0.570019 -0.191248
C23   C     C_R   0.417167 0.071721 0.428438 -0.236232
C24   C     C_R   0.586862 0.928398 0.567854 0.509821
C25   C     C_R   0.418233 0.926275 0.425362 0.518799
C26   C     C_R   0.496069 0.499681 0.260090 0.921120
C27   C     C_R   0.492239 0.500605 0.739778 0.996338
C28   C     C_R   0.515312 0.613814 0.062287 -0.144860
H1    H     H_    0.648799 0.129924 0.627816 0.196212
H2    H     H_    0.718479 0.478999 0.992595 0.160550
H3    H     H_    0.732046 0.462912 0.161572 0.153740
H4    H     H_    0.865665 0.500744 0.067911 0.212240
H5    H     H_    0.193256 0.119020 0.645486 0.173105
H6    H     H_    0.146634 0.179176 0.494971 0.130551
H7    H     H_    0.030113 0.133947 0.612255 0.167826
H8    H     H_    0.802469 0.302462 0.826472 0.178200
H9    H     H_    0.798555 0.469492 0.761267 0.196469
H10   H     H_    0.946128 0.396075 0.811702 0.190156
H11   H     H_    0.795091 0.651248 0.318660 0.371359
H12   H     H_    0.350517 0.128505 0.374253 0.179943
H13   H     H_    0.203727 0.617063 0.298031 0.337584
H14   H     H_    0.819752 0.992854 0.662453 0.157867
H15   H     H_    0.810621 0.913713 0.507633 0.174295
H16   H     H_    0.860638 0.818614 0.640318 0.188185
H17   H     H_    0.390216 0.963222 0.194708 0.184259
H18   H     H_    0.230045 0.986632 0.250780 0.152556
H19   H     H_    0.274588 0.834003 0.171681 0.198132
H20   H     H_    0.279822 0.262679 0.088814 0.326956
H21   H     H_    0.367088 0.202832 0.918532 0.327696
H22   H     H_    0.772591 0.747483 0.862406 0.353617
H23   H     H_    0.666697 0.891694 0.122188 0.351775
H24   H     H_    0.386475 0.866707 0.954173 0.149215
H25   H     H_    0.409115 0.817875 0.790562 0.183734
H26   H     H_    0.428972 0.989815 0.838240 0.184720
N1    N     N_R   0.500000 0.857200 0.500000 -0.162212
N2    N     N_R   0.500000 0.142810 0.500000 -0.114595
O1    O     O_R   0.316770 0.614620 0.499990 -0.593901
O2    O     O_3   0.367319 0.285093 0.865810 -0.736376
O3    O     O_3   0.703112 0.681579 0.850212 -0.783954
O4    O     O_3   0.596371 0.827020 0.134957 -0.763210
O5    O     O_3   0.571079 0.864255 0.891730 -0.594878
O6    O     O_3   0.746483 0.660694 0.095833 -0.614483
O7    O     O_3   0.127495 0.314538 0.646541 -0.560841
O8    O     O_3   0.869277 0.316605 0.647207 -0.600308
O9    O     O_3   0.881016 0.681643 0.336739 -0.670761
O10   O     O_3   0.127039 0.664541 0.325462 -0.665319
O11   O     O_3   0.672255 0.856514 0.637955 -0.522658
O12   O     O_R   0.683230 0.614620 0.500010 -0.584402
O13   O     O_3   0.335682 0.850133 0.353034 -0.551016
O14   O     O_R   0.316800 0.385290 0.500000 -0.587542
O15   O     O_R   0.683200 0.385290 0.500000 -0.589074
O16   O     O_R   0.500000 0.614690 0.316780 -0.573664
O17   O     O_R   0.500000 0.614690 0.683220 -0.594572
O18   O     O_R   0.500020 0.385360 0.316780 -0.586971
O19   O     O_R   0.499980 0.385360 0.683220 -0.570254
O20   O     O_3   0.353061 0.296195 0.136462 -0.783853
Zn1   Zn    Zn3+2 0.500000 0.653120 0.500000 1.052018
Zn2   Zn    Zn3+2 0.500000 0.346880 0.500000 1.009735

loop_
_geom_bond_atom_site_label_1
_geom_bond_atom_site_label_2
_ccdc_geom_bond_type
C22   H1    S    
O14   Zn2   S    
C26   O16   A    
H20   O20   S    
C20   O11   S    
C2    C7    S    
C4    C27   S    
C7    C8    S    
C24   N1    A    
C12   O12   A    
C16   H24   S    
H22   O3    S    
C3    C28   A    
C19   H8    S    
C5    C6    A    
N1    Zn1   S    
C11   C14   A    
C18   O7    S    
C23   H12   S    
N2    Zn2   S    
C6    O2    S    
C16   H25   S    
C7    O5    S    
C9    C13   A    
C19   H9    S    
C24   O11   S    
C9    C10   A    
C17   H2    S    
H11   O9    S    
C27   O19   A    
C7    O3    S    
C20   H16   S    
C21   H17   S    
O1    Zn1   S    
C23   N2    A    
C4    C6    A    
C22   N2    A    
O19   Zn2   S    
C15   O10   S    
H21   O2    S    
C21   O13   S    
C2    C4    A    
O16   Zn1   S    
C19   H10   S    
C1    O1    A    
C17   O6    S    
C19   O8    S    
C18   H6    S    
C12   O15   A    
C13   C15   A    
C17   H3    S    
C22   C24   A    
C25   O13   S    
C16   O5    S    
C20   H15   S    
C21   H18   S    
C18   H7    S    
O12   Zn1   S    
C9    O7    S    
C3    C26   S    
C10   O8    S    
C25   N1    A    
C3    C5    A    
C20   H14   S    
C11   C12   S    
H13   O10   S    
C1    O14   A    
C5    O20   S    
C8    O4    S    
C8    C28   S    
C26   O18   A    
C14   O9    S    
C23   C25   A    
C18   H5    S    
C16   H26   S    
C10   C11   A    
C1    C13   S    
O18   Zn2   S    
C17   H4    S    
O17   Zn1   S    
C14   C15   A    
C2    C28   A    
H23   O4    S    
C27   O17   A    
O15   Zn2   S    
C8    O6    S    
C21   H19   S    
