data_mof_unit_64064.cif
_audit_creation_date              2012-12-10T19:05:43-0500
_audit_creation_method            fapswitch 2.2
_symmetry_space_group_name_H-M    P1
_symmetry_Int_Tables_number       1
_space_group_crystal_system       triclinic
_cell_length_a                    10.504004
_cell_length_b                    13.071888
_cell_length_c                    13.591545
_cell_angle_alpha                 85.855922
_cell_angle_beta                  90.032979
_cell_angle_gamma                 92.11298
_cell_volume                      1860.06757404

loop_
_atom_site_label
_atom_site_type_symbol
_atom_type_description
_atom_site_fract_x
_atom_site_fract_y
_atom_site_fract_z
_atom_type_partial_charge
C1    C     C_R   0.497859 0.481336 0.685110 0.918811
C2    C     C_3   0.041262 0.599598 0.489664 0.287308
C3    C     C_3   0.041408 0.454260 0.584290 0.244372
C4    C     C_3   0.959056 0.546337 0.413624 0.247843
C5    C     C_3   0.123350 0.503602 0.497947 -0.327738
C6    C     C_3   0.876971 0.496902 0.500067 -0.330626
C7    C     C_3   0.039470 0.450369 0.421828 0.257679
C8    C     C_3   0.961155 0.550262 0.576075 0.258592
C9    C     C_1   0.492437 0.533928 0.212006 -0.142991
C10   C     C_1   0.487732 0.466621 0.788051 -0.142837
C11   C     C_2   0.473315 0.546204 0.019871 0.395602
C12   C     C_R   0.500680 0.518718 0.314908 0.919261
C13   C     C_2   0.468014 0.455080 0.980271 0.394145
C14   C     C_1   0.477802 0.457504 0.875259 -0.096444
C15   C     C_1   0.483404 0.543545 0.124826 -0.097030
C16   C     C_3   0.004540 0.364763 0.735338 0.126920
C17   C     C_3   0.065578 0.335944 0.834527 -0.880764
C18   C     C_3   0.997350 0.635704 0.262688 0.115392
C19   C     C_3   0.937890 0.662637 0.162523 -0.863637
C20   C     C_3   0.003569 0.228497 0.518589 0.135715
C21   C     C_3   0.949394 0.123232 0.555106 -0.902050
C22   C     C_3   0.999410 0.772592 0.478535 0.140291
C23   C     C_2   0.470359 0.033736 0.469001 -0.003691
C24   C     C_3   0.055257 0.877342 0.441704 -0.911622
C25   C     C_3   0.999211 0.363440 0.281988 0.123536
C26   C     C_3   0.058949 0.294559 0.210615 -0.861503
C27   C     C_3   0.004151 0.637477 0.715254 0.123718
C28   C     C_3   0.947652 0.711126 0.783540 -0.863448
C29   C     C_3   0.429794 0.276982 0.990318 0.108452
C30   C     C_3   0.412524 0.184257 0.063922 -0.823900
C31   C     C_3   0.452701 0.724390 0.009735 0.108852
C32   C     C_3   0.444227 0.816890 0.935821 -0.834341
C33   C     C_3   0.593465 0.005173 0.625734 -0.422565
C34   C     C_2   0.528303 0.965727 0.534927 0.015547
C35   C     C_3   0.664362 0.923287 0.689070 -0.325854
C36   C     C_3   0.723042 0.967748 0.780263 -0.907661
C37   C     C_3   0.400443 0.997066 0.379786 -0.410169
C38   C     C_3   0.493206 0.984417 0.294866 -0.310339
C39   C     C_3   0.425406 0.937743 0.208468 -0.915041
C40   C     C_1   0.523366 0.853983 0.522727 0.099326
C41   C     C_1   0.476025 0.145719 0.478859 0.082933
C42   C     C_R   0.742698 0.498759 0.500609 1.028623
C43   C     C_R   0.257430 0.501404 0.498491 1.030026
C44   C     C_3   0.959355 0.400936 0.508192 0.288390
H1    H     H_    0.962473 0.293791 0.706720 0.177200
H2    H     H_    0.897364 0.592213 0.131492 0.257406
H3    H     H_    0.084352 0.248425 0.567528 0.178725
H4    H     H_    0.041300 0.223165 0.443031 0.177589
H5    H     H_    0.873990 0.097502 0.504144 0.260595
H6    H     H_    0.026323 0.067126 0.559015 0.219650
H7    H     H_    0.908179 0.126586 0.629825 0.255176
H8    H     H_    0.961799 0.778459 0.554060 0.175122
H9    H     H_    0.918384 0.753180 0.429634 0.176439
H10   H     H_    0.097535 0.873706 0.367223 0.256746
H11   H     H_    0.979011 0.934046 0.437097 0.218957
H12   H     H_    0.926386 0.417674 0.747438 0.167209
H13   H     H_    0.130269 0.902740 0.493151 0.259830
H14   H     H_    0.955236 0.427582 0.238050 0.179594
H15   H     H_    0.922607 0.318105 0.323734 0.172332
H16   H     H_    0.102476 0.228351 0.252068 0.251284
H17   H     H_    0.984893 0.265312 0.160350 0.211411
H18   H     H_    0.133794 0.338507 0.165880 0.271945
H19   H     H_    0.083030 0.679123 0.672766 0.174697
H20   H     H_    0.044698 0.573387 0.761563 0.178947
H21   H     H_    0.869798 0.671488 0.828488 0.273001
H22   H     H_    0.022523 0.739314 0.833699 0.211477
H23   H     H_    0.108243 0.405464 0.865872 0.255333
H24   H     H_    0.908901 0.777743 0.739540 0.253889
H25   H     H_    0.506458 0.261015 0.937634 0.148673
H26   H     H_    0.338209 0.287878 0.950190 0.142839
H27   H     H_    0.336120 0.197456 0.117555 0.261747
H28   H     H_    0.385759 0.115227 0.024374 0.199800
H29   H     H_    0.502822 0.170495 0.104462 0.261498
H30   H     H_    0.530390 0.740546 0.062809 0.154255
H31   H     H_    0.359844 0.713517 0.049444 0.136639
H32   H     H_    0.367785 0.803032 0.881339 0.258849
H33   H     H_    0.422385 0.886035 0.974660 0.201976
H34   H     H_    0.992516 0.300306 0.886585 0.215243
H35   H     H_    0.536387 0.830722 0.896420 0.266309
H36   H     H_    0.794457 0.029867 0.758572 0.261768
H37   H     H_    0.647981 0.999015 0.825879 0.262013
H38   H     H_    0.771118 0.906486 0.825499 0.257039
H39   H     H_    0.597068 0.858962 0.713868 0.238331
H40   H     H_    0.741304 0.892700 0.644653 0.223394
H41   H     H_    0.662983 0.068227 0.601757 0.219172
H42   H     H_    0.519751 0.037510 0.672014 0.206118
H43   H     H_    0.387759 0.858985 0.230999 0.265128
H44   H     H_    0.345391 0.985761 0.182309 0.266652
H45   H     H_    0.141319 0.280284 0.825354 0.256195
H46   H     H_    0.493782 0.933319 0.146803 0.248311
H47   H     H_    0.536543 0.060602 0.269391 0.222545
H48   H     H_    0.570952 0.933525 0.320358 0.223729
H49   H     H_    0.347496 0.923265 0.399604 0.217990
H50   H     H_    0.327953 0.053256 0.354952 0.199578
H51   H     H_    0.076437 0.583208 0.252111 0.166783
H52   H     H_    0.038068 0.707431 0.290668 0.177459
H53   H     H_    0.860786 0.717488 0.170037 0.263145
H54   H     H_    0.011464 0.698516 0.111029 0.208807
N1    N     N_1   0.479750 0.234530 0.484780 -0.088582
N2    N     N_1   0.520250 0.765470 0.515220 -0.095990
O1    O     O_R   0.492590 0.402510 0.634760 -0.626179
O2    O     O_3   0.902273 0.590918 0.327391 -0.619697
O3    O     O_3   0.905808 0.300040 0.518436 -0.603088
O4    O     O_3   0.096035 0.700105 0.479099 -0.602760
O5    O     O_3   0.095051 0.400501 0.344602 -0.612414
O6    O     O_3   0.907014 0.600726 0.653517 -0.612944
O7    O     O_3   0.463798 0.364135 0.041621 -0.623926
O8    O     O_3   0.479401 0.637197 0.958678 -0.624249
O9    O     O_R   0.507410 0.597490 0.365240 -0.625569
O10   O     O_R   0.505590 0.572960 0.644530 -0.596748
O11   O     O_R   0.494410 0.427040 0.355470 -0.593526
O12   O     O_R   0.679550 0.414790 0.495140 -0.596540
O13   O     O_R   0.320450 0.585210 0.504860 -0.596934
O14   O     O_R   0.692550 0.585240 0.504910 -0.596789
O15   O     O_R   0.307450 0.414760 0.495090 -0.596193
O16   O     O_3   0.098924 0.409906 0.670302 -0.621223
Zn1   Zn    Zn3+2 0.491320 0.386190 0.493470 1.006996
Zn2   Zn    Zn3+2 0.508680 0.613810 0.506530 1.002730

loop_
_geom_bond_atom_site_label_1
_geom_bond_atom_site_label_2
_ccdc_geom_bond_type
C18   H52   S    
C31   O8    S    
C28   H22   S    
C35   C36   S    
C39   H43   S    
C13   O7    S    
O10   Zn2   S    
C21   H5    S    
C30   H27   S    
C19   H53   S    
C19   H2    S    
C25   O5    S    
C20   O3    S    
C24   H11   S    
C29   C30   S    
C34   C40   S    
C28   H24   S    
C26   H17   S    
C3    O16   S    
C38   C39   S    
C24   H10   S    
C38   H48   S    
C22   O4    S    
C18   C19   S    
C18   O2    S    
C33   H41   S    
C12   O9    A    
C42   O12   A    
C43   O15   A    
C32   H33   S    
C11   C15   S    
C42   O14   A    
C36   H38   S    
C24   H13   S    
O15   Zn1   S    
C4    O2    S    
C41   N1    T    
C39   H46   S    
C5    C43   S    
C6    C44   S    
C13   C14   S    
C18   H51   S    
C39   H44   S    
C4    C7    S    
C16   O16   S    
C21   H6    S    
C19   H54   S    
O9    Zn2   S    
C22   H9    S    
C29   H25   S    
C3    C44   S    
C17   H23   S    
C17   H45   S    
C4    C6    S    
C3    C8    S    
C36   H36   S    
C5    C7    S    
C30   H29   S    
C35   H39   S    
C16   C17   S    
C31   H30   S    
C6    C8    S    
C27   O6    S    
C25   C26   S    
C23   C37   S    
C38   H47   S    
C2    C4    S    
C33   H42   S    
C16   H12   S    
C32   H32   S    
C37   C38   S    
C1    O10   A    
N1    Zn1   S    
C31   H31   S    
C31   C32   S    
C2    O4    S    
C36   H37   S    
C23   C34   D    
C7    O5    S    
C33   C34   S    
C37   H49   S    
C20   H4    S    
C7    C44   S    
O14   Zn2   S    
C27   H19   S    
C10   C14   T    
C22   C24   S    
C2    C5    S    
N2    Zn2   S    
C25   H14   S    
C1    O1    A    
C21   H7    S    
C22   H8    S    
C29   H26   S    
C2    C8    S    
C1    C10   S    
C3    C5    S    
C8    O6    S    
C16   H1    S    
C40   N2    T    
C30   H28   S    
C35   H40   S    
C23   C41   S    
O11   Zn1   S    
O1    Zn1   S    
C44   O3    S    
C28   H21   S    
C26   H18   S    
C43   O13   A    
C32   H35   S    
C11   C13   D    
O12   Zn1   S    
C17   H34   S    
C33   C35   S    
C37   H50   S    
C9    C15   T    
C9    C12   S    
C20   H3    S    
C27   H20   S    
O13   Zn2   S    
C20   C21   S    
C6    C42   S    
C11   O8    S    
C29   O7    S    
C25   H15   S    
C26   H16   S    
C12   O11   A    
C27   C28   S    
