data_mof_unit_55469.cif
_audit_creation_date              2012-10-26T18:34:24-0400
_audit_creation_method            fapswitch 2.2
_symmetry_space_group_name_H-M    P1
_symmetry_Int_Tables_number       1
_space_group_crystal_system       triclinic
_cell_length_a                    10.900305
_cell_length_b                    9.893913
_cell_length_c                    8.94341
_cell_angle_alpha                 89.984345
_cell_angle_beta                  94.244018
_cell_angle_gamma                 89.609364
_cell_volume                      961.849547384

loop_
_atom_site_label
_atom_site_type_symbol
_atom_type_description
_atom_site_fract_x
_atom_site_fract_y
_atom_site_fract_z
_atom_type_partial_charge
C1    C     C_R   0.264568 0.500071 0.513070 0.527365
C2    C     C_R   0.063293 0.620320 0.521876 -0.057536
C3    C     C_R   0.872794 0.495283 0.502794 -0.044415
C4    C     C_R   0.131382 0.499109 0.533484 -0.041822
C5    C     C_R   0.476206 0.070889 0.369482 0.132346
C6    C     C_R   0.545515 0.926199 0.624106 0.146158
C7    C     C_R   0.524119 0.070560 0.630455 0.150377
C8    C     C_R   0.455182 0.926630 0.375308 0.143207
C9    C     C_1   0.134915 0.253217 0.600610 0.238291
C10   C     C_1   0.881516 0.733238 0.406103 0.217539
C11   C     C_1   0.880451 0.245582 0.564712 0.235929
C12   C     C_R   0.737027 0.498874 0.497994 0.524794
C13   C     C_1   0.115365 0.747128 0.576045 0.213019
C14   C     C_3   0.490115 0.128325 0.213559 -0.214305
C15   C     C_3   0.369923 0.194204 0.141902 -0.386776
C16   C     C_3   0.613240 0.859323 0.763614 -0.213450
C17   C     C_3   0.736456 0.791570 0.740195 -0.354574
C18   C     C_3   0.509131 0.127259 0.786822 -0.210706
C19   C     C_3   0.627927 0.192181 0.861073 -0.385374
C20   C     C_3   0.391649 0.859953 0.233199 -0.214375
C21   C     C_3   0.269526 0.789373 0.250838 -0.361982
C22   C     C_R   0.500319 0.500396 0.222114 0.540106
C23   C     C_R   0.499924 0.500386 0.777917 0.535695
C24   C     C_1   0.500392 0.502156 0.066142 -0.090054
C25   C     C_1   0.499839 0.502143 0.933879 -0.089872
C26   C     C_R   0.068806 0.376400 0.554454 -0.052897
C27   C     C_R   0.937923 0.616010 0.481707 -0.057052
C28   C     C_R   0.939941 0.374532 0.541898 -0.054343
Cu1   Cu    Cu3+1 0.500000 0.640660 0.500000 0.946991
Cu2   Cu    Cu3+1 0.500000 0.359340 0.500000 0.939718
H1    H     H_    0.304146 0.122955 0.085686 0.117803
H2    H     H_    0.551803 0.802792 0.832668 0.156595
H3    H     H_    0.694202 0.120619 0.917526 0.118702
H4    H     H_    0.678863 0.248437 0.778489 0.204261
H5    H     H_    0.603387 0.261452 0.951019 0.131754
H6    H     H_    0.425241 0.190522 0.785625 0.192261
H7    H     H_    0.478238 0.048253 0.863436 0.080111
H8    H     H_    0.201259 0.814150 0.155791 0.111838
H9    H     H_    0.279736 0.678329 0.247008 0.176609
H10   H     H_    0.229716 0.825324 0.353094 0.191257
H11   H     H_    0.361725 0.933636 0.148676 0.100270
H12   H     H_    0.319020 0.248827 0.226612 0.195507
H13   H     H_    0.456678 0.805715 0.165733 0.158383
H14   H     H_    0.392430 0.264726 0.052389 0.137049
H15   H     H_    0.574052 0.190247 0.214657 0.182067
H16   H     H_    0.521512 0.050287 0.135706 0.078560
H17   H     H_    0.729723 0.680601 0.751809 0.165940
H18   H     H_    0.769427 0.823017 0.631963 0.200228
H19   H     H_    0.808355 0.822690 0.828138 0.118648
H20   H     H_    0.642151 0.932496 0.848518 0.101378
N1    N     N_R   0.500000 0.852070 0.500000 -0.215371
N2    N     N_R   0.500000 0.147930 0.500000 -0.221659
N3    N     N_1   0.187199 0.155210 0.637653 -0.276818
N4    N     N_1   0.837130 0.826595 0.344974 -0.289974
N5    N     N_1   0.834463 0.142208 0.582298 -0.289925
N6    N     N_1   0.156250 0.847984 0.621543 -0.268884
O1    O     O_R   0.319640 0.618740 0.499990 -0.498989
O2    O     O_R   0.680360 0.381260 0.500010 -0.490567
O3    O     O_R   0.680360 0.618740 0.500010 -0.496771
O4    O     O_R   0.319640 0.381260 0.499990 -0.493769
O5    O     O_R   0.500000 0.618760 0.288390 -0.502154
O6    O     O_R   0.500000 0.381240 0.711610 -0.516984
O7    O     O_R   0.500000 0.618760 0.711610 -0.504621
O8    O     O_R   0.500000 0.381240 0.288390 -0.514742

loop_
_geom_bond_atom_site_label_1
_geom_bond_atom_site_label_2
_ccdc_geom_bond_type
C10   C27   S    
C7    N2    A    
C5    C8    A    
C2    C4    A    
Cu1   O7    S    
C5    N2    A    
C15   H1    S    
C6    C7    A    
Cu2   O8    S    
C6    N1    A    
C16   H2    S    
C6    C16   S    
C26   C28   A    
C21   H9    S    
C17   H18   S    
C13   N6    T    
C12   O2    A    
C7    C18   S    
C3    C27   A    
C20   H11   S    
C14   H16   S    
Cu1   O5    S    
C19   H5    S    
C2    C27   A    
C24   C25   T    
C22   O5    A    
C8    N1    A    
C5    C14   S    
Cu1   Cu2   S    
C21   H10   S    
C11   C28   S    
C8    C20   S    
Cu2   O2    S    
C23   O7    A    
C3    C28   A    
C18   H7    S    
Cu1   O1    S    
C9    C26   S    
C14   H15   S    
C1    O1    A    
C23   C25   S    
Cu2   O6    S    
C19   H3    S    
C15   H14   S    
C10   N4    T    
C22   C24   S    
C4    C26   A    
C1    C4    S    
C9    N3    T    
C22   O8    A    
C17   H17   S    
C20   H13   S    
C11   N5    T    
C20   C21   S    
C18   C19   S    
Cu1   N1    S    
C1    O4    A    
C17   H19   S    
C2    C13   S    
Cu2   N2    S    
C14   C15   S    
C3    C12   S    
C12   O3    A    
C18   H6    S    
C23   O6    A    
C21   H8    S    
Cu1   O3    S    
C15   H12   S    
C16   H20   S    
C16   C17   S    
C19   H4    S    
Cu2   O4    S    
