data_mof_unit_55960.cif
_audit_creation_date              2012-12-11T15:29:41-0500
_audit_creation_method            fapswitch 2.2
_symmetry_space_group_name_H-M    P1
_symmetry_Int_Tables_number       1
_space_group_crystal_system       triclinic
_cell_length_a                    21.438413
_cell_length_b                    7.241803
_cell_length_c                    14.753239
_cell_angle_alpha                 90.39659
_cell_angle_beta                  74.443967
_cell_angle_gamma                 89.887296
_cell_volume                      2206.50745886

loop_
_atom_site_label
_atom_site_type_symbol
_atom_type_description
_atom_site_fract_x
_atom_site_fract_y
_atom_site_fract_z
_atom_type_partial_charge
O1    O     O_R   0.464160 0.506670 0.130070 -0.535597
O2    O     O_R   0.535840 0.006670 0.869930 -0.534943
O3    O     O_R   0.589710 0.179080 0.006710 -0.553004
O4    O     O_R   0.410290 0.679080 0.993290 -0.552530
C1    C     C_R   0.615876 0.344026 0.004082 0.657327
C2    C     C_R   0.384106 0.844188 0.995986 0.658522
O5    O     O_R   0.467940 0.177220 0.138010 -0.536946
O6    O     O_R   0.532060 0.677220 0.861990 -0.537309
O7    O     O_R   0.413200 0.002810 0.002170 -0.539912
O8    O     O_R   0.586800 0.502810 0.997830 -0.539478
C3    C     C_R   0.456199 0.346309 0.174392 0.689333
C4    C     C_R   0.543745 0.844723 0.825532 0.689304
O9    O     O_3   0.482180 0.337850 0.955280 -0.379800
O10   O     O_3   0.517820 0.837850 0.044720 -0.380159
V1    V     V_3+5 0.503310 0.064600 0.008300 1.393026
V2    V     V_3+5 0.496690 0.564600 0.991700 1.393841
C5    C     C_R   0.571576 0.848986 0.723805 -0.030247
C6    C     C_R   0.428234 0.358231 0.275971 -0.029640
C7    C     C_R   0.928166 0.868744 0.276310 -0.034871
C8    C     C_R   0.071731 0.359338 0.723869 -0.029781
C9    C     C_R   0.559776 0.814712 0.566571 -0.157044
C10   C     C_R   0.439082 0.428787 0.430940 -0.158407
C11   C     C_R   0.532263 0.822372 0.663336 -0.172965
C12   C     C_R   0.466890 0.406177 0.334832 -0.163055
C13   C     C_R   0.638572 0.866445 0.687773 -0.207931
C14   C     C_R   0.361618 0.333389 0.312924 -0.211441
C15   C     C_R   0.668143 0.854779 0.589770 0.085693
C16   C     C_R   0.331742 0.358608 0.410191 0.087330
C17   C     C_R   0.627108 0.829751 0.529420 0.129359
C18   C     C_R   0.372087 0.406667 0.468898 0.123358
C19   C     C_R   0.736746 0.864833 0.549967 0.051918
C20   C     C_R   0.263434 0.340483 0.450704 0.054395
C21   C     C_R   0.762959 0.851576 0.450065 0.049278
C22   C     C_R   0.236755 0.371718 0.549504 0.046901
C23   C     C_R   0.719722 0.828546 0.393379 -0.156238
C24   C     C_R   0.279333 0.417700 0.604603 -0.171101
C25   C     C_R   0.653378 0.817861 0.432474 -0.172578
C26   C     C_R   0.345437 0.434390 0.564934 -0.179433
C27   C     C_R   0.780012 0.886415 0.606709 -0.175617
C28   C     C_R   0.220923 0.292693 0.395763 -0.180597
C29   C     C_R   0.846369 0.896194 0.567676 -0.173497
C30   C     C_R   0.154803 0.276396 0.435451 -0.187347
C31   C     C_R   0.872621 0.885294 0.470716 0.130038
C32   C     C_R   0.128065 0.306343 0.531293 0.125741
C33   C     C_R   0.831557 0.862096 0.410264 0.088547
C34   C     C_R   0.168390 0.355056 0.589916 0.090672
C35   C     C_R   0.939987 0.899153 0.433687 -0.160095
C36   C     C_R   0.061000 0.285648 0.569169 -0.161960
C37   C     C_R   0.967521 0.892345 0.336938 -0.154905
C38   C     C_R   0.033102 0.310450 0.665116 -0.139366
C39   C     C_R   0.861107 0.852576 0.312196 -0.209382
C40   C     C_R   0.138408 0.382876 0.686974 -0.218793
H1    H     H_    0.622252 0.799096 0.386076 0.130878
H2    H     H_    0.376055 0.470688 0.610079 0.152840
H3    H     H_    0.833729 0.836798 0.261195 0.091142
H4    H     H_    0.165221 0.418835 0.736662 0.092515
H5    H     H_    0.019448 0.906367 0.309284 0.149749
H6    H     H_    0.981507 0.290126 0.693723 0.129466
H7    H     H_    0.877526 0.913400 0.614143 0.143802
H8    H     H_    0.124213 0.238876 0.390479 0.167197
H9    H     H_    0.528429 0.794416 0.520654 0.118131
H10   H     H_    0.469892 0.466184 0.475598 0.117877
H11   H     H_    0.480391 0.806618 0.691151 0.126481
H12   H     H_    0.518444 0.427248 0.306211 0.117738
H13   H     H_    0.665891 0.885034 0.738655 0.087800
H14   H     H_    0.334730 0.298788 0.263141 0.087886
H15   H     H_    0.735339 0.817195 0.317906 0.131911
H16   H     H_    0.263368 0.442249 0.679254 0.153835
H17   H     H_    0.764442 0.896285 0.682224 0.123129
H18   H     H_    0.236962 0.265765 0.321297 0.130849
H19   H     H_    0.971367 0.917550 0.479707 0.121670
H20   H     H_    0.030206 0.247577 0.524594 0.121982
C41   C     C_3   0.215350 0.664832 0.974814 -0.334438
C42   C     C_3   0.784715 0.166302 0.026471 -0.331000
H21   H     H_    0.189119 0.565443 0.028921 0.122163
H22   H     H_    0.811121 0.063783 0.973228 0.119956
H23   H     H_    0.206283 0.619821 0.907122 0.162630
H24   H     H_    0.793639 0.125433 0.094583 0.167134
C43   C     C_3   0.288626 0.656726 0.969562 -0.067630
C44   C     C_3   0.711510 0.157831 0.031287 -0.076020
H25   H     H_    0.294370 0.555241 0.023230 0.062477
H26   H     H_    0.706080 0.054142 0.977769 0.061483
H27   H     H_    0.171101 0.811125 0.150797 0.129091
H28   H     H_    0.828561 0.301487 0.849858 0.126935
H29   H     H_    0.277556 0.796068 0.147082 0.137149
H30   H     H_    0.722191 0.290147 0.853099 0.133980
C45   C     C_3   0.197692 0.914315 0.099022 -0.114274
C46   C     C_3   0.802311 0.408523 0.900650 -0.118744
C47   C     C_3   0.228360 0.995014 0.924453 -0.322592
C48   C     C_3   0.771578 0.499294 0.074653 -0.325386
C49   C     C_3   0.187493 0.862884 0.000575 0.024575
C50   C     C_3   0.812507 0.363061 0.999433 0.024667
H31   H     H_    0.208469 0.137850 0.934418 0.124230
H32   H     H_    0.791189 0.641791 0.063350 0.123152
H33   H     H_    0.225794 0.948712 0.853465 0.168360
H34   H     H_    0.774493 0.457729 0.145888 0.166273
C51   C     C_3   0.313016 0.849636 0.995851 0.071552
C52   C     C_3   0.686959 0.349390 0.004291 0.070477
C53   C     C_3   0.270976 0.901931 0.096030 -0.414439
C54   C     C_3   0.728969 0.397552 0.903946 -0.408056
C55   C     C_3   0.300194 0.998465 0.927427 -0.296148
C56   C     C_3   0.699624 0.501213 0.072249 -0.298382
H35   H     H_    0.332715 0.978006 0.855545 0.171859
H36   H     H_    0.667404 0.482914 0.144324 0.169007
H37   H     H_    0.311354 0.137783 0.951196 0.121638
H38   H     H_    0.687920 0.639410 0.048433 0.122323
H39   H     H_    0.288523 0.034513 0.118885 0.135538
H40   H     H_    0.711528 0.529760 0.881011 0.139453
O11   O     O_R   0.913210 0.208550 0.002110 -0.544374
O12   O     O_R   0.086790 0.708550 0.997890 -0.544544
O13   O     O_R   0.032060 0.539960 0.861980 -0.529441
O14   O     O_R   0.967940 0.039960 0.138020 -0.529688
C57   C     C_R   0.043772 0.371722 0.825429 0.700700
C58   C     C_R   0.956140 0.873342 0.174626 0.700241
O15   O     O_R   0.910290 0.538020 0.993280 -0.539291
O16   O     O_R   0.089710 0.038020 0.006720 -0.537746
O17   O     O_R   0.964160 0.712340 0.130090 -0.540093
O18   O     O_R   0.035840 0.212340 0.869910 -0.541915
C59   C     C_R   0.883957 0.370101 0.998206 0.662737
C60   C     C_R   0.116047 0.869899 0.001803 0.664126
O19   O     O_3   0.017820 0.379210 0.044690 -0.373954
O20   O     O_3   0.982180 0.879210 0.955310 -0.375908
V3    V     V_3+5 0.996690 0.652500 0.991710 1.446746
V4    V     V_3+5 0.003310 0.152500 0.008290 1.448678
C61   C     C_2   0.327751 0.581259 0.875255 0.307829
H41   H     H_    0.359945 0.464463 0.873042 0.059472
O21   O     O_2   0.324233 0.650018 0.801445 -0.555617
C62   C     C_2   0.672246 0.085972 0.125635 0.321756
H42   H     H_    0.639565 0.970784 0.127864 0.055868
O22   O     O_2   0.676143 0.155947 0.199459 -0.542826
C63   C     C_2   0.171209 0.103346 0.133399 0.363779
H43   H     H_    0.192563 0.226255 0.096133 0.043172
O23   O     O_2   0.125971 0.119670 0.203754 -0.555658
C64   C     C_2   0.829349 0.594628 0.864292 0.378078
H44   H     H_    0.808746 0.720369 0.900737 0.036660
O24   O     O_2   0.874187 0.605337 0.793205 -0.543269

loop_
_geom_bond_atom_site_label_1
_geom_bond_atom_site_label_2
_ccdc_geom_bond_type
H27   C45   S    
C3    C6    S    
O4    V2    S    
C45   C49   S    
C15   C17   A    
C21   C33   A    
O1    C3    A    
O2    C4    A    
C62   H42   S    
C2    O7    A    
O14   C58   A    
C27   C29   A    
O5    C3    A    
C5    C11   A    
C28   H18   S    
C6    C12   A    
C23   C25   A    
C50   C59   S    
O14   V4    S    
C8    C57   S    
C33   C39   A    
C42   C50   S    
C34   C40   A    
C37   H5    S    
C18   C26   A    
O6    V2    S    
C45   C63   S    
C48   C56   S    
O19   V4    S    
C8    C38   A    
C46   C50   S    
C16   C18   A    
C6    C14   A    
C4    C5    S    
C19   C21   A    
C22   C34   A    
C47   C49   S    
H30   C54   S    
C9    H9    S    
C25   H1    S    
C11   H11   S    
C43   C61   S    
C41   C49   S    
C55   H35   S    
C42   C44   S    
C47   H31   S    
C29   C31   A    
C30   C32   A    
C36   H20   S    
C51   C53   S    
C32   C34   A    
C48   H32   S    
C45   C53   S    
C55   H37   S    
C54   H40   S    
O15   V3    S    
C15   C19   A    
C14   H14   S    
C2    C51   S    
C16   C20   A    
C13   H13   S    
C29   H7    S    
C44   H26   S    
O12   C60   A    
C43   H25   S    
C64   O24   D    
O5    V1    S    
C44   C62   S    
C7    C58   S    
O3    C1    A    
C52   C56   S    
C9    C17   A    
O16   C60   A    
C38   H6    S    
C47   H33   S    
H29   C53   S    
O12   V3    S    
C10   H10   S    
C7    C37   A    
C48   C50   S    
C26   H2    S    
C23   H15   S    
O6    C4    A    
C27   H17   S    
O13   C57   A    
O1    V2    S    
O18   V4    S    
C56   H36   S    
O2    V1    S    
C31   C33   A    
C35   H19   S    
C46   C54   S    
C42   H22   S    
O4    C2    A    
O15   C59   A    
C9    C11   A    
C61   H41   S    
C10   C12   A    
C13   C15   A    
C41   H21   S    
C30   H8    S    
C63   H43   S    
O3    V1    S    
O11   C59   A    
O13   V3    S    
O16   V4    S    
C47   C55   S    
O10   V1    S    
C14   C16   A    
C43   C51   S    
H28   C46   S    
C28   C30   A    
C63   O23   D    
C62   O22   D    
C24   H16   S    
O11   V4    S    
C48   H34   S    
C64   H44   S    
C35   C37   A    
C41   C43   S    
C53   H39   S    
C52   C54   S    
C5    C13   A    
C24   C26   A    
O7    V1    S    
C46   C64   S    
C1    O8    A    
C8    C40   A    
C32   C36   A    
C10   C18   A    
C44   C52   S    
C36   C38   A    
C21   C23   A    
C22   C24   A    
C19   C27   A    
C56   H38   S    
C39   H3    S    
C20   C28   A    
O17   V3    S    
C58   O17   A    
C57   O18   A    
C7    C39   A    
C1    C52   S    
C12   H12   S    
C42   H24   S    
O9    V2    S    
C17   C25   A    
C61   O21   D    
C41   H23   S    
C49   C60   S    
O8    V2    S    
O20   V3    S    
C31   C35   A    
C51   C55   S    
C40   H4    S    
C20   C22   A    
