data_mof_unit_52246.cif
_audit_creation_date              2012-12-11T14:42:15-0500
_audit_creation_method            fapswitch 2.2
_symmetry_space_group_name_H-M    P1
_symmetry_Int_Tables_number       1
_space_group_crystal_system       triclinic
_cell_length_a                    18.964618
_cell_length_b                    10.937527
_cell_length_c                    18.851344
_cell_angle_alpha                 90.01501
_cell_angle_beta                  90.325386
_cell_angle_gamma                 90.270858
_cell_volume                      3910.15237278

loop_
_atom_site_label
_atom_site_type_symbol
_atom_type_description
_atom_site_fract_x
_atom_site_fract_y
_atom_site_fract_z
_atom_type_partial_charge
C1    C     C_R   0.727331 0.956114 0.853549 0.558315
C2    C     C_R   0.238913 0.431488 0.929402 0.033359
C3    C     C_R   0.252222 0.916866 0.075896 0.028147
C4    C     C_R   0.747667 0.916893 0.924100 0.027244
C5    C     C_R   0.818419 0.392443 0.029916 -0.130213
C6    C     C_R   0.181551 0.392072 0.970137 -0.131226
C7    C     C_R   0.291813 0.825902 0.043429 -0.138790
C8    C     C_R   0.707451 0.826315 0.956722 -0.138974
C9    C     C_R   0.813121 0.386860 0.957375 -0.132991
C10   C     C_R   0.186934 0.386607 0.042682 -0.133163
C11   C     C_R   0.288131 0.811566 0.971113 -0.124082
C12   C     C_R   0.272678 0.956245 0.146449 0.547964
C13   C     C_R   0.711176 0.812181 0.029037 -0.123807
C14   C     C_R   0.748791 0.411774 0.923879 0.030771
C15   C     C_R   0.251414 0.411843 0.076101 0.030874
C16   C     C_R   0.243185 0.885534 0.929971 0.034002
C17   C     C_R   0.756814 0.885902 0.070047 0.034667
C18   C     C_R   0.544721 0.266181 0.525545 -0.120146
C19   C     C_R   0.536678 0.261188 0.453335 -0.140604
C20   C     C_R   0.044722 0.766175 0.525545 -0.120134
C21   C     C_R   0.036680 0.761182 0.453335 -0.140764
C22   C     C_R   0.501746 0.161602 0.423489 0.027277
C23   C     C_R   0.225668 0.459118 0.855197 0.556700
C24   C     C_R   0.518811 0.170805 0.568203 0.035282
C25   C     C_R   0.001744 0.661600 0.423490 0.027068
C26   C     C_R   0.018808 0.670804 0.568204 0.035277
C27   C     C_R   0.481368 0.060854 0.465250 -0.136623
C28   C     C_R   0.489656 0.065899 0.537989 -0.154731
C29   C     C_R   0.981362 0.560855 0.465251 -0.136658
C30   C     C_R   0.989649 0.565901 0.537991 -0.154829
C31   C     C_R   0.791311 0.320514 0.530334 -0.151097
C32   C     C_R   0.178745 0.411556 0.450868 -0.143873
C33   C     C_R   0.291312 0.820513 0.530332 -0.151252
C34   C     C_R   0.774371 0.459291 0.144803 0.546895
C35   C     C_R   0.678748 0.911549 0.450871 -0.143789
C36   C     C_R   0.792956 0.331466 0.457831 -0.148405
C37   C     C_R   0.166637 0.439200 0.521486 -0.130335
C38   C     C_R   0.292956 0.831460 0.457828 -0.148419
C39   C     C_R   0.666640 0.939194 0.521489 -0.130327
C40   C     C_R   0.530130 0.177476 0.850986 0.559112
C41   C     C_R   0.469854 0.177731 0.149004 0.554235
C42   C     C_R   0.029965 0.677515 0.850911 0.557633
C43   C     C_R   0.970030 0.677775 0.149086 0.552731
C44   C     C_R   0.753616 0.422162 0.424566 -0.007774
C45   C     C_R   0.697834 0.464754 0.037126 -0.146742
C46   C     C_R   0.221906 0.480875 0.564558 -0.003599
C47   C     C_R   0.253610 0.922146 0.424561 -0.007415
C48   C     C_R   0.721908 0.980867 0.564560 -0.003206
C49   C     C_R   0.709799 0.498858 0.464674 -0.084806
C50   C     C_R   0.288211 0.503351 0.535035 -0.083182
C51   C     C_R   0.209785 0.998831 0.464666 -0.084515
C52   C     C_R   0.788215 0.003334 0.535040 -0.083166
C53   C     C_R   0.706548 0.486762 0.538102 0.070503
C54   C     C_R   0.301267 0.476351 0.464351 0.074739
C55   C     C_R   0.206535 0.986740 0.538094 0.070318
C56   C     C_R   0.302420 0.464855 0.962762 -0.146884
C57   C     C_R   0.801272 0.976329 0.464357 0.074500
C58   C     C_R   0.747594 0.395671 0.571436 0.032419
C59   C     C_R   0.246661 0.423877 0.422084 0.029926
C60   C     C_R   0.247589 0.895663 0.571432 0.031952
C61   C     C_R   0.746665 0.923865 0.422088 0.029725
C62   C     C_R   0.738364 0.364410 0.852629 0.549944
C63   C     C_R   0.261701 0.364617 0.147364 0.547118
C64   C     C_R   0.236787 0.857557 0.855022 0.552566
C65   C     C_R   0.763206 0.857914 0.144994 0.549904
C66   C     C_R   0.709552 0.001496 0.639936 0.557339
C67   C     C_R   0.204026 0.986583 0.035850 -0.132648
C68   C     C_R   0.272145 0.956187 0.352749 0.543053
C69   C     C_R   0.209551 0.501498 0.639936 0.558133
C70   C     C_R   0.772147 0.456193 0.352751 0.544969
C71   C     C_R   0.533364 0.176769 0.642659 0.543863
C72   C     C_R   0.471132 0.175313 0.354391 0.546901
C73   C     C_R   0.033362 0.676768 0.642660 0.543268
C74   C     C_R   0.971133 0.675313 0.354391 0.546332
C75   C     C_R   0.739019 0.360749 0.645478 0.533727
C76   C     C_R   0.260564 0.363929 0.353747 0.545172
C77   C     C_R   0.239017 0.860745 0.645476 0.535781
C78   C     C_R   0.796470 0.986435 0.963997 -0.132966
C79   C     C_R   0.760565 0.863925 0.353749 0.547171
C80   C     C_2   0.497872 0.168190 0.921091 -0.110548
C81   C     C_2   0.502155 0.168804 0.078918 -0.111088
C82   C     C_2   0.997939 0.668766 0.921194 -0.107072
C83   C     C_2   0.002118 0.669408 0.078832 -0.107366
C84   C     C_2   0.491636 0.069502 0.038075 -0.156785
C85   C     C_2   0.508709 0.069451 0.962128 -0.157473
C86   C     C_2   0.992822 0.569357 0.038377 -0.163023
C87   C     C_2   0.007670 0.569295 0.961865 -0.163741
C88   C     C_R   0.691361 0.453563 0.963777 -0.141463
C89   C     C_R   0.761145 0.431639 0.070572 0.035096
C90   C     C_R   0.308963 0.453756 0.036114 -0.141644
C91   C     C_R   0.199261 0.970348 0.962832 -0.140208
C92   C     C_R   0.801298 0.970351 0.037027 -0.140553
Cr1   Cr    Cr6+3 0.769270 0.163730 0.750710 1.013337
Cr2   Cr    Cr6+3 0.385840 0.322500 0.252290 1.009007
Cr3   Cr    Cr6+3 0.114160 0.822500 0.747710 1.011629
Cr4   Cr    Cr6+3 0.885840 0.822500 0.252290 1.012463
Cr5   Cr    Cr6+3 0.230730 0.163730 0.249290 1.013935
Cr6   Cr    Cr6+3 0.269270 0.663730 0.750710 1.013826
Cr7   Cr    Cr6+3 0.730730 0.663730 0.249290 1.014218
Cr8   Cr    Cr6+3 0.612620 0.009790 0.748780 1.017439
Cr9   Cr    Cr6+3 0.387380 0.009790 0.251220 1.015395
Cr10  Cr    Cr6+3 0.112620 0.509790 0.748780 1.013561
Cr11  Cr    Cr6+3 0.887380 0.509790 0.251220 1.011416
Cr12  Cr    Cr6+3 0.614160 0.322500 0.747710 1.008181
H1    H     H_    0.469172 0.986344 0.060126 0.156645
H2    H     H_    0.331351 0.537226 0.567521 0.151662
H3    H     H_    0.180930 0.072628 0.439656 0.159690
H4    H     H_    0.831356 0.037205 0.567527 0.151679
H5    H     H_    0.526392 0.250522 0.056866 0.105907
H6    H     H_    0.473424 0.249453 0.942999 0.106691
H7    H     H_    0.024609 0.752196 0.056316 0.111860
H8    H     H_    0.975157 0.751091 0.943548 0.112477
H9    H     H_    0.640937 0.472297 0.938909 0.128918
H10   H     H_    0.359499 0.472689 0.060920 0.128289
H11   H     H_    0.162692 0.025088 0.932154 0.124851
H12   H     H_    0.531423 0.986722 0.940239 0.156298
H13   H     H_    0.838374 0.024894 0.067588 0.123515
H14   H     H_    0.653675 0.498306 0.067548 0.117323
H15   H     H_    0.346666 0.498564 0.932268 0.118396
H16   H     H_    0.172953 0.057931 0.060156 0.136181
H17   H     H_    0.828025 0.057497 0.939556 0.135807
H18   H     H_    0.868453 0.368305 0.053806 0.126150
H19   H     H_    0.131393 0.367702 0.946297 0.125749
H20   H     H_    0.328624 0.770255 0.073311 0.128356
H21   H     H_    0.670137 0.770836 0.926965 0.129186
H22   H     H_    0.858482 0.355185 0.928001 0.130738
H23   H     H_    0.973334 0.484998 0.061446 0.140771
H24   H     H_    0.141490 0.354773 0.072128 0.129785
H25   H     H_    0.320564 0.741210 0.947678 0.139122
H26   H     H_    0.678233 0.742118 0.052567 0.138873
H27   H     H_    0.571130 0.345232 0.547908 0.145156
H28   H     H_    0.553461 0.338389 0.421450 0.132494
H29   H     H_    0.071134 0.845224 0.547907 0.145040
H30   H     H_    0.053467 0.838380 0.421449 0.132391
H31   H     H_    0.454277 0.982503 0.442590 0.145339
H32   H     H_    0.472250 0.989952 0.570488 0.125936
H33   H     H_    0.954267 0.482507 0.442592 0.145305
H34   H     H_    0.027521 0.485351 0.938977 0.140859
H35   H     H_    0.972239 0.489957 0.570490 0.125627
H36   H     H_    0.824062 0.250791 0.553968 0.143940
H37   H     H_    0.135455 0.374280 0.419836 0.138563
H38   H     H_    0.324070 0.750802 0.553968 0.143856
H39   H     H_    0.635458 0.874277 0.419838 0.138851
H40   H     H_    0.695894 0.610360 0.617478 0.249753
H41   H     H_    0.622077 0.526419 0.599826 0.250424
H42   H     H_    0.368822 0.551238 0.393002 0.241172
H43   H     H_    0.395303 0.414420 0.428791 0.278471
H44   H     H_    0.195873 0.110354 0.617461 0.250520
H45   H     H_    0.828031 0.272859 0.428168 0.145530
H46   H     H_    0.122064 0.026389 0.599820 0.250355
H47   H     H_    0.868837 0.051206 0.393015 0.241511
H48   H     H_    0.895304 0.914376 0.428799 0.278282
H49   H     H_    0.114571 0.424012 0.543108 0.143928
H50   H     H_    0.328038 0.772861 0.428167 0.145361
H51   H     H_    0.614573 0.924011 0.543110 0.143931
H52   H     H_    0.680950 0.572665 0.439665 0.159564
N1    N     N_3   0.664771 0.572174 0.577145 -0.631535
N2    N     N_3   0.371265 0.498167 0.439043 -0.644144
N3    N     N_3   0.164753 0.072148 0.577134 -0.631370
N4    N     N_3   0.871274 0.998129 0.439053 -0.644203
O1    O     O_R   0.784320 0.290430 0.830510 -0.524134
O2    O     O_R   0.456080 0.282180 0.333210 -0.531670
O3    O     O_R   0.043920 0.782180 0.666790 -0.524339
O4    O     O_R   0.956080 0.782180 0.333210 -0.531757
O5    O     O_R   0.679040 0.374160 0.674430 -0.513826
O6    O     O_R   0.320960 0.374160 0.325570 -0.509249
O7    O     O_R   0.179040 0.874160 0.674430 -0.512903
O8    O     O_R   0.820960 0.874160 0.325570 -0.508305
O9    O     O_3   0.665350 0.165340 0.749070 -0.266655
O10   O     O_3   0.334650 0.165340 0.250930 -0.240617
O11   O     O_3   0.165350 0.665340 0.749070 -0.269539
O12   O     O_R   0.215680 0.290430 0.169490 -0.526601
O13   O     O_3   0.834650 0.665340 0.250930 -0.243372
O14   O     O_R   0.762640 0.040960 0.825200 -0.499833
O15   O     O_R   0.237360 0.040960 0.174800 -0.505973
O16   O     O_R   0.262640 0.540960 0.825200 -0.500961
O17   O     O_R   0.737360 0.540960 0.174800 -0.507021
O18   O     O_R   0.667400 0.923970 0.829950 -0.521011
O19   O     O_R   0.332600 0.923970 0.170050 -0.524885
O20   O     O_R   0.167400 0.423970 0.829950 -0.523486
O21   O     O_R   0.832600 0.423970 0.170050 -0.528114
O22   O     O_R   0.553960 0.081340 0.821780 -0.493898
O23   O     O_R   0.284320 0.790430 0.830510 -0.524644
O24   O     O_R   0.446040 0.081340 0.178220 -0.495605
O25   O     O_R   0.053960 0.581340 0.821780 -0.498429
O26   O     O_R   0.946040 0.581340 0.178220 -0.500060
O27   O     O_R   0.543180 0.283240 0.826740 -0.513892
O28   O     O_R   0.456820 0.283240 0.173260 -0.518669
O29   O     O_R   0.043180 0.783240 0.826740 -0.509918
O30   O     O_R   0.956820 0.783240 0.173260 -0.514771
O31   O     O_R   0.678360 0.375140 0.822710 -0.501746
O32   O     O_R   0.321640 0.375140 0.177290 -0.504873
O33   O     O_R   0.178360 0.875140 0.822710 -0.498582
O34   O     O_R   0.715680 0.790430 0.169490 -0.527570
O35   O     O_R   0.821640 0.875140 0.177290 -0.501766
O36   O     O_R   0.785050 0.289380 0.670560 -0.533130
O37   O     O_R   0.214950 0.289380 0.329440 -0.525681
O38   O     O_R   0.285050 0.789380 0.670560 -0.531481
O39   O     O_R   0.714950 0.789380 0.329440 -0.524199
O40   O     O_R   0.763320 0.039990 0.676930 -0.507960
O41   O     O_R   0.236680 0.039990 0.323070 -0.508440
O42   O     O_R   0.263320 0.539990 0.676930 -0.506852
O43   O     O_R   0.736680 0.539990 0.323070 -0.507723
O44   O     O_R   0.668130 0.922920 0.670000 -0.508221
O45   O     O_R   0.554640 0.080370 0.673500 -0.522590
O46   O     O_R   0.331870 0.922920 0.330000 -0.523916
O47   O     O_R   0.168130 0.422920 0.670000 -0.506261
O48   O     O_R   0.831870 0.422920 0.330000 -0.522345
O49   O     O_R   0.445360 0.080370 0.326500 -0.507248
O50   O     O_R   0.054640 0.580370 0.673500 -0.522796
O51   O     O_R   0.945360 0.580370 0.326500 -0.507423
O52   O     O_R   0.543920 0.282180 0.666790 -0.524168

loop_
_geom_bond_atom_site_label_1
_geom_bond_atom_site_label_2
_ccdc_geom_bond_type
C44   C49   A    
C45   H14   S    
H48   N4    S    
C8    C13   A    
Cr5   O15   S    
C43   C83   S    
C47   C68   S    
C49   H52   S    
C42   C82   S    
C7    H20   S    
C4    C8    A    
Cr8   O18   S    
Cr2   O6    S    
C40   O27   A    
C7    C11   A    
Cr11  O26   S    
Cr7   O34   S    
Cr1   O9    S    
C5    C9    A    
C29   C30   A    
Cr5   O12   S    
C18   C24   A    
C31   C58   A    
Cr2   O28   S    
Cr7   O17   S    
C48   C52   A    
C3    C7    A    
C10   C15   A    
C36   H45   S    
C62   O1    A    
C12   O19   A    
C88   H9    S    
C70   O48   A    
C82   C87   D    
C14   C62   S    
Cr1   O14   S    
Cr11  O13   S    
C26   C73   S    
Cr10  O20   S    
C34   O21   A    
C25   C74   S    
C11   C16   A    
Cr4   O30   S    
Cr6   O23   S    
C78   H17   S    
C46   C69   S    
C3    C12   S    
Cr12  O5    S    
C64   O23   A    
Cr4   O35   S    
C43   O30   A    
C13   H26   S    
Cr4   O8    S    
C41   O24   A    
C44   C70   S    
C20   H29   S    
Cr8   O22   S    
C67   H16   S    
Cr2   O2    S    
Cr10  O11   S    
C67   C91   A    
C66   O44   A    
C75   O36   A    
C56   C90   A    
Cr8   O9    S    
C69   O42   A    
Cr3   O33   S    
C28   H32   S    
C55   C60   A    
C31   H36   S    
C68   O41   A    
C9    H22   S    
C18   H27   S    
C2    C6    A    
C17   C92   A    
C6    H19   S    
C10   H24   S    
C11   H25   S    
C22   C72   S    
C58   C75   S    
C40   O22   A    
C54   C59   A    
C25   C29   A    
C60   C77   S    
C1    O14   A    
C69   O47   A    
Cr10  O25   S    
C79   O39   A    
H46   N3    S    
Cr6   O38   S    
Cr5   O37   S    
C73   O50   A    
C19   H28   S    
Cr1   O40   S    
Cr11  O48   S    
C75   O5    A    
Cr4   O13   S    
Cr11  O51   S    
C86   C87   S    
Cr10  O50   S    
C47   C51   A    
C23   O16   A    
C43   O26   A    
C78   C92   A    
Cr12  O31   S    
C5    H18   S    
Cr5   O10   S    
Cr4   O4    S    
C41   O28   A    
C39   H51   S    
H44   N3    S    
C82   H8    S    
C35   C39   A    
C9    C14   A    
C4    C78   A    
C80   C85   D    
Cr9   O19   S    
C37   H49   S    
C54   N2    S    
Cr6   O16   S    
C1    O18   A    
C72   O49   A    
Cr7   O13   S    
Cr1   O1    S    
C53   C58   A    
C41   C81   S    
C64   O33   A    
C19   C22   A    
C40   C80   S    
C84   H1    S    
C23   O20   A    
Cr9   O10   S    
C35   C61   A    
C50   C54   A    
C32   C37   A    
C84   C85   S    
C76   O6    A    
C32   H37   S    
Cr9   O24   S    
C92   H13   S    
C72   O2    A    
Cr6   O11   S    
C42   O25   A    
C57   N4    S    
C81   H5    S    
C26   C30   A    
C33   C60   A    
C22   C27   A    
C12   O15   A    
C45   C88   A    
C68   O46   A    
C79   O8    A    
C56   H15   S    
C83   H7    S    
C36   C44   A    
Cr1   O36   S    
C38   H50   S    
C87   H34   S    
C80   H6    S    
C52   C57   A    
C21   H30   S    
C2    C23   S    
C81   C84   D    
C45   C89   A    
C65   O34   A    
C77   O38   A    
C74   O51   A    
C70   O43   A    
Cr12  O27   S    
C21   C25   A    
C15   C63   S    
C30   H35   S    
Cr7   O43   S    
C86   H23   S    
Cr11  O21   S    
C17   C65   S    
Cr6   O42   S    
C85   H12   S    
C3    C67   A    
C24   C28   A    
Cr5   O41   S    
C5    C89   A    
Cr3   O7    S    
C6    C10   A    
Cr8   O45   S    
C57   C61   A    
C62   O31   A    
H42   N2    S    
C13   C17   A    
C33   H38   S    
C77   O7    A    
C29   H33   S    
H41   N1    S    
C46   C50   A    
C53   N1    S    
C33   C38   A    
C38   C47   A    
Cr3   O3    S    
C76   O37   A    
C1    C4    S    
Cr9   O49   S    
H47   N4    S    
H40   N1    S    
C34   C89   S    
C27   H31   S    
C73   O3    A    
C2    C56   A    
Cr2   O10   S    
C15   C90   A    
C74   O4    A    
Cr8   O44   S    
C42   O29   A    
C63   O12   A    
C20   C26   A    
C61   C79   S    
C49   C53   A    
C55   N3    S    
C91   H11   S    
C51   C55   A    
C90   H10   S    
Cr10  O47   S    
Cr2   O32   S    
Cr9   O46   S    
Cr3   O29   S    
C14   C88   A    
C8    H21   S    
C71   O45   A    
C83   C86   D    
C20   C21   A    
C52   H4    S    
C16   C91   A    
C51   H3    S    
C71   O52   A    
Cr7   O39   S    
C27   C28   A    
C50   H2    S    
C18   C19   A    
Cr12  O52   S    
C31   C36   A    
C39   C48   A    
C34   O17   A    
C16   C64   S    
C32   C59   A    
C48   C66   S    
C37   C46   A    
H43   N2    S    
Cr3   O11   S    
C59   C76   S    
C66   O40   A    
C63   O32   A    
C24   C71   S    
C35   H39   S    
Cr12  O9    S    
C65   O35   A    
