data_mof_unit_13393.cif
_audit_creation_date              2012-12-11T15:43:12-0500
_audit_creation_method            fapswitch 2.2
_symmetry_space_group_name_H-M    P1
_symmetry_Int_Tables_number       1
_space_group_crystal_system       triclinic
_cell_length_a                    19.080251
_cell_length_b                    10.930432
_cell_length_c                    18.819655
_cell_angle_alpha                 89.901629
_cell_angle_beta                  89.882912
_cell_angle_gamma                 89.855199
_cell_volume                      3924.91393471

loop_
_atom_site_label
_atom_site_type_symbol
_atom_type_description
_atom_site_fract_x
_atom_site_fract_y
_atom_site_fract_z
_atom_type_partial_charge
C1    C     C_R   0.726202 0.367802 0.142330 0.548443
C2    C     C_R   0.956733 0.986608 0.047077 -0.123616
C3    C     C_R   0.749100 0.438846 0.571666 0.041404
C4    C     C_R   0.729602 0.377586 0.352560 0.549957
C5    C     C_R   0.271345 0.377522 0.646999 0.544722
C6    C     C_R   0.229189 0.876919 0.352854 0.556244
C7    C     C_R   0.770051 0.881144 0.648586 0.546600
C8    C     C_R   0.534774 0.156983 0.355235 0.544095
C9    C     C_R   0.469274 0.155992 0.647328 0.573331
C10   C     C_R   0.033974 0.657090 0.354780 0.543488
C11   C     C_R   0.969030 0.656292 0.647116 0.570729
C12   C     C_R   0.739573 0.977788 0.356878 0.543309
C13   C     C_R   0.481414 0.503026 0.970249 -0.140811
C14   C     C_R   0.257952 0.971396 0.645808 0.552540
C15   C     C_R   0.241272 0.471159 0.354294 0.547139
C16   C     C_R   0.758076 0.471299 0.645614 0.550056
C17   C     C_R   0.499328 0.168976 0.924312 -0.002865
C18   C     C_R   0.505696 0.162349 0.073301 -0.001327
C19   C     C_R   0.001276 0.671293 0.923148 -0.005692
C20   C     C_R   0.010207 0.660466 0.071694 -0.005037
C21   C     C_R   0.494793 0.280530 0.963611 0.030458
C22   C     C_R   0.491914 0.275128 0.038911 0.015500
C23   C     C_R   0.991321 0.780119 0.964106 0.028340
C24   C     C_R   0.470727 0.495294 0.043131 -0.133334
C25   C     C_R   0.988736 0.770856 0.039171 0.006181
C26   C     C_R   0.513844 0.055876 0.032706 -0.154467
C27   C     C_R   0.513004 0.059735 0.959907 -0.167509
C28   C     C_R   0.028146 0.559167 0.029341 -0.149901
C29   C     C_R   0.023848 0.564585 0.956528 -0.166600
C30   C     C_R   0.751340 0.909128 0.925696 0.020572
C31   C     C_R   0.221400 0.844112 0.062055 0.012412
C32   C     C_R   0.247067 0.423860 0.922136 0.017236
C33   C     C_R   0.734433 0.381403 0.066209 0.020507
C34   C     C_R   0.723691 0.818211 0.970372 0.039754
C35   C     C_R   0.285742 0.820722 0.029105 0.011282
C36   C     C_R   0.196679 0.362508 0.963254 0.002525
C37   C     C_R   0.269839 0.376690 0.853986 0.546619
C38   C     C_R   0.796784 0.349851 0.032393 -0.000745
C39   C     C_R   0.723293 0.832266 0.043340 0.001492
C40   C     C_R   0.296067 0.847431 0.957881 0.006634
C41   C     C_R   0.194417 0.377274 0.036301 0.008265
C42   C     C_R   0.803193 0.363069 0.959646 0.002590
C43   C     C_R   0.784908 0.023375 0.029104 -0.135209
C44   C     C_R   0.174642 0.903796 0.946828 -0.156246
C45   C     C_R   0.288920 0.522280 0.028233 -0.139834
C46   C     C_R   0.680418 0.411768 0.950623 -0.164126
C47   C     C_R   0.784364 0.010033 0.956090 -0.146889
C48   C     C_R   0.211582 0.829650 0.138695 0.561741
C49   C     C_R   0.164460 0.877473 0.018929 -0.153492
C50   C     C_R   0.288354 0.513210 0.954854 -0.140664
C51   C     C_R   0.674454 0.401634 0.024063 -0.151116
C52   C     C_3   0.652281 0.762075 0.971265 -0.269149
C53   C     C_3   0.357441 0.862804 0.048902 -0.269136
C54   C     C_3   0.180090 0.229163 0.968935 -0.248384
C55   C     C_3   0.869038 0.394917 0.046214 -0.281341
C56   C     C_3   0.653209 0.774364 0.051629 -0.280777
C57   C     C_3   0.368636 0.892359 0.970953 -0.262902
C58   C     C_3   0.176760 0.246080 0.048789 -0.275807
C59   C     C_R   0.769823 0.876126 0.854012 0.545141
C60   C     C_3   0.876032 0.411485 0.966541 -0.245193
C61   C     C_R   0.751292 0.937455 0.073551 0.025755
C62   C     C_R   0.242381 0.899016 0.917074 0.009143
C63   C     C_R   0.244861 0.448406 0.070247 0.020434
C64   C     C_R   0.746623 0.405063 0.918730 0.015607
C65   C     C_R   0.531631 0.155289 0.146540 0.534651
C66   C     C_R   0.469048 0.156384 0.852949 0.531135
C67   C     C_R   0.032776 0.654793 0.145908 0.524933
C68   C     C_R   0.969273 0.656702 0.852718 0.531069
C69   C     C_R   0.505980 0.158541 0.579364 0.016291
C70   C     C_R   0.493228 0.397190 0.930686 -0.088728
C71   C     C_R   0.518252 0.163161 0.430443 -0.007808
C72   C     C_R   0.005043 0.660598 0.578771 0.013596
C73   C     C_R   0.016079 0.663558 0.429631 -0.010999
C74   C     C_R   0.515406 0.049712 0.540349 0.024720
C75   C     C_R   0.517960 0.053621 0.467866 0.057665
C76   C     C_R   0.016903 0.551880 0.540348 0.018693
C77   C     C_R   0.018875 0.554733 0.467772 0.049883
C78   C     C_R   0.526043 0.271719 0.470005 -0.163524
C79   C     C_R   0.520296 0.269261 0.544554 -0.172264
C80   C     C_R   0.019719 0.773761 0.468224 -0.169261
C81   C     C_R   0.475539 0.382541 0.077367 -0.096011
C82   C     C_R   0.014806 0.772228 0.542802 -0.182174
C83   C     C_3   0.481788 0.924772 0.537555 0.117580
C84   C     C_3   0.479037 0.937076 0.457328 0.143079
C85   C     C_3   0.985664 0.424859 0.538510 0.117645
C86   C     C_3   0.981746 0.435976 0.458334 0.141973
C87   C     C_R   0.750702 0.935515 0.580907 0.018995
C88   C     C_R   0.247886 0.912443 0.424191 0.010589
C89   C     C_R   0.260797 0.404912 0.572778 0.023575
C90   C     C_R   0.749815 0.415159 0.423223 0.007482
C91   C     C_R   0.801691 0.999904 0.542394 0.013548
C92   C     C_R   0.984566 0.897924 0.933193 -0.083651
C93   C     C_R   0.219368 0.017108 0.455224 0.011033
C94   C     C_R   0.320408 0.409644 0.529459 0.056718
C95   C     C_R   0.719877 0.517836 0.454977 0.008745
C96   C     C_R   0.797961 0.008010 0.469977 0.023418
C97   C     C_R   0.219408 0.029183 0.528001 0.056575
C98   C     C_R   0.315938 0.413949 0.456654 0.020689
C99   C     C_R   0.719211 0.528032 0.527741 0.052695
C100  C     C_R   0.685385 0.911909 0.471750 -0.164692
C101  C     C_R   0.279879 0.836961 0.541807 -0.118436
C102  C     C_R   0.190254 0.401525 0.467027 -0.168914
C103  C     C_R   0.966787 0.873245 0.079382 -0.097364
C104  C     C_R   0.784212 0.340473 0.540391 -0.111261
C105  C     C_R   0.688507 0.904230 0.546139 -0.164959
C106  C     C_R   0.280768 0.824772 0.468117 -0.139221
C107  C     C_R   0.195355 0.394323 0.540830 -0.177893
C108  C     C_R   0.786463 0.330758 0.466406 -0.138841
C109  C     C_3   0.879803 0.985858 0.539303 -0.265107
C110  C     C_3   0.147336 0.070852 0.448979 -0.266326
C111  C     C_3   0.380618 0.496402 0.531064 -0.267854
C112  C     C_3   0.648210 0.572576 0.448273 -0.265897
C113  C     C_R   0.741297 0.971616 0.146934 0.544073
C114  C     C_R   0.967586 0.999644 0.974462 -0.133528
C115  C     C_R   0.257976 0.967198 0.851924 0.531353
C116  C     C_R   0.240213 0.474395 0.145610 0.535715
C117  C     C_R   0.758479 0.467587 0.851768 0.540846
C118  C     C_3   0.874958 0.996209 0.459398 -0.277581
C119  C     C_3   0.146355 0.078833 0.529041 -0.268213
C120  C     C_3   0.378886 0.494915 0.450707 -0.276037
C121  C     C_3   0.646202 0.577442 0.528478 -0.267983
C122  C     C_R   0.743474 0.954258 0.432645 0.013467
C123  C     C_R   0.248352 0.939258 0.572170 0.049175
C124  C     C_R   0.250302 0.419396 0.424464 0.008745
Cr1   Cr    Cr6+3 0.772010 0.169670 0.250090 1.009499
Cr2   Cr    Cr6+3 0.383290 0.010760 0.749160 1.015047
Cr3   Cr    Cr6+3 0.116710 0.510760 0.250840 1.041443
Cr4   Cr    Cr6+3 0.883290 0.510760 0.749160 1.014790
Cr5   Cr    Cr6+3 0.227990 0.169670 0.749910 1.003276
Cr6   Cr    Cr6+3 0.272010 0.669670 0.250090 1.003408
Cr7   Cr    Cr6+3 0.727990 0.669670 0.749910 1.004468
Cr8   Cr    Cr6+3 0.615000 0.323260 0.249260 1.003891
Cr9   Cr    Cr6+3 0.385000 0.323260 0.750740 1.001365
Cr10  Cr    Cr6+3 0.115000 0.823260 0.249260 1.001365
Cr11  Cr    Cr6+3 0.885000 0.823260 0.750740 0.997798
Cr12  Cr    Cr6+3 0.616710 0.010760 0.250840 1.043303
H1    H     H_    0.522487 0.967673 0.057142 0.136542
H2    H     H_    0.425864 0.951237 0.434229 0.153149
H3    H     H_    0.023043 0.353204 0.557577 0.098000
H4    H     H_    0.928098 0.447331 0.435875 0.152861
H5    H     H_    0.645065 0.866292 0.575654 0.111093
H6    H     H_    0.301380 0.741462 0.446068 0.131526
H7    H     H_    0.148511 0.384949 0.572862 0.110756
H8    H     H_    0.811769 0.251624 0.443477 0.143008
H9    H     H_    0.907684 0.063760 0.564438 0.123445
H10   H     H_    0.147896 0.161662 0.422409 0.167062
H11   H     H_    0.366206 0.586464 0.554071 0.121091
H12   H     H_    0.517987 0.973994 0.931550 0.129713
H13   H     H_    0.649756 0.664261 0.422884 0.156583
H14   H     H_    0.898912 0.081362 0.438163 0.130828
H15   H     H_    0.143324 0.173294 0.549445 0.155689
H16   H     H_    0.369391 0.586142 0.427422 0.150924
H17   H     H_    0.643151 0.670866 0.549948 0.149630
H18   H     H_    0.504447 0.409336 0.874874 0.130497
H19   H     H_    0.465436 0.380376 0.133893 0.133981
H20   H     H_    0.995799 0.914753 0.877801 0.132351
H21   H     H_    0.957292 0.866805 0.135919 0.133742
H22   H     H_    0.962317 0.088814 0.949877 0.099000
H23   H     H_    0.046662 0.474123 0.052314 0.150905
H24   H     H_    0.941681 0.065061 0.078702 0.112659
H25   H     H_    0.480121 0.591347 0.944144 0.099885
H26   H     H_    0.459703 0.577189 0.073447 0.105112
H27   H     H_    0.809137 0.104695 0.050403 0.147559
H28   H     H_    0.131052 0.939838 0.916572 0.133277
H29   H     H_    0.325317 0.585754 0.051943 0.144934
H30   H     H_    0.634925 0.438678 0.920157 0.130181
H31   H     H_    0.810875 0.077493 0.923484 0.132463
H32   H     H_    0.113341 0.892221 0.042097 0.152907
H33   H     H_    0.326050 0.566494 0.924861 0.141242
H34   H     H_    0.034286 0.481994 0.926464 0.135348
H35   H     H_    0.623409 0.415222 0.047859 0.160480
H36   H     H_    0.224565 0.169987 0.952212 0.164653
H37   H     H_    0.903673 0.321818 0.067706 0.131824
H38   H     H_    0.653041 0.665605 0.953101 0.159621
H39   H     H_    0.391137 0.786597 0.068084 0.126422
H40   H     H_    0.612272 0.820783 0.945118 0.122544
H41   H     H_    0.356737 0.945296 0.083428 0.152115
H42   H     H_    0.128541 0.206257 0.945023 0.135135
H43   H     H_    0.869792 0.482587 0.076138 0.143874
H44   H     H_    0.656462 0.684792 0.079537 0.146985
H45   H     H_    0.534709 0.357747 0.443507 0.122834
H46   H     H_    0.408849 0.833393 0.945220 0.129872
H47   H     H_    0.218597 0.195634 0.077798 0.146944
H48   H     H_    0.915622 0.349604 0.942151 0.132318
H49   H     H_    0.920174 0.348326 0.601854 0.319688
H50   H     H_    0.993649 0.271741 0.423943 0.310565
H51   H     H_    0.414084 0.850968 0.599321 0.321419
H52   H     H_    0.489165 0.772831 0.422453 0.312281
H53   H     H_    0.639085 0.881688 0.444832 0.204591
H54   H     H_    0.302939 0.766850 0.574999 0.104070
H55   H     H_    0.139011 0.405025 0.443958 0.214040
H56   H     H_    0.523050 0.353299 0.574437 0.108253
H57   H     H_    0.809431 0.271526 0.572901 0.121602
H58   H     H_    0.896232 0.893536 0.556854 0.177317
H59   H     H_    0.107426 0.006802 0.428408 0.156685
H60   H     H_    0.428151 0.455547 0.553975 0.147796
H61   H     H_    0.608239 0.510589 0.426111 0.157222
H62   H     H_    0.889696 0.910750 0.431030 0.143174
H63   H     H_    0.108535 0.014659 0.554166 0.126894
H64   H     H_    0.423895 0.445973 0.426489 0.134306
H65   H     H_    0.608172 0.512418 0.552367 0.124909
H66   H     H_    0.613050 0.837986 0.072716 0.151356
H67   H     H_    0.023908 0.860416 0.440925 0.127820
H68   H     H_    0.373609 0.992046 0.960437 0.161982
H69   H     H_    0.123061 0.234724 0.070836 0.140113
H70   H     H_    0.879571 0.509227 0.950725 0.171476
H71   H     H_    0.012870 0.857985 0.571369 0.116367
H72   H     H_    0.517579 0.850801 0.556805 0.098297
O1    O     O_R   0.787520 0.042810 0.170440 -0.533251
O2    O     O_R   0.454050 0.051210 0.669140 -0.482798
O3    O     O_R   0.045950 0.551210 0.330860 -0.467424
O4    O     O_R   0.954050 0.551210 0.669140 -0.478977
O5    O     O_R   0.681390 0.959480 0.325510 -0.494071
O6    O     O_R   0.318610 0.959480 0.674490 -0.477664
O7    O     O_R   0.181390 0.459480 0.325510 -0.491929
O8    O     O_R   0.818610 0.459480 0.674490 -0.477271
O9    O     O_3   0.667900 0.167900 0.250060 -0.253626
O10   O     O_3   0.332100 0.167900 0.749940 -0.241118
O11   O     O_3   0.167900 0.667900 0.250060 -0.271374
O12   O     O_R   0.212480 0.042810 0.829560 -0.535390
O13   O     O_3   0.832100 0.667900 0.749940 -0.240318
O14   O     O_R   0.765640 0.292100 0.175020 -0.499722
O15   O     O_R   0.234360 0.292100 0.824980 -0.504071
O16   O     O_R   0.265640 0.792100 0.175020 -0.500421
O17   O     O_R   0.734360 0.792100 0.824980 -0.501989
O18   O     O_R   0.670190 0.408840 0.168540 -0.528764
O19   O     O_R   0.329810 0.408840 0.831460 -0.523648
O20   O     O_R   0.170190 0.908840 0.168540 -0.518249
O21   O     O_R   0.829810 0.908840 0.831460 -0.521995
O22   O     O_R   0.556620 0.251410 0.175160 -0.512780
O23   O     O_R   0.287520 0.542810 0.170440 -0.537389
O24   O     O_R   0.443380 0.251410 0.824840 -0.512109
O25   O     O_R   0.056620 0.751410 0.175160 -0.526266
O26   O     O_R   0.943380 0.751410 0.824840 -0.511453
O27   O     O_R   0.545960 0.049620 0.170320 -0.525606
O28   O     O_R   0.454040 0.049620 0.829680 -0.531807
O29   O     O_R   0.045960 0.549620 0.170320 -0.522992
O30   O     O_R   0.954040 0.549620 0.829680 -0.533222
O31   O     O_R   0.681390 0.958010 0.176690 -0.501226
O32   O     O_R   0.318610 0.958010 0.823310 -0.502353
O33   O     O_R   0.181390 0.458010 0.176690 -0.498698
O34   O     O_R   0.712480 0.542810 0.829560 -0.530959
O35   O     O_R   0.818610 0.458010 0.823310 -0.506960
O36   O     O_R   0.787510 0.044390 0.330970 -0.522196
O37   O     O_R   0.212490 0.044390 0.669030 -0.529074
O38   O     O_R   0.287510 0.544390 0.330970 -0.527843
O39   O     O_R   0.712490 0.544390 0.669030 -0.528589
O40   O     O_R   0.765630 0.293570 0.323840 -0.509191
O41   O     O_R   0.234370 0.293570 0.676160 -0.502838
O42   O     O_R   0.265630 0.793570 0.323840 -0.505900
O43   O     O_R   0.734370 0.793570 0.676160 -0.503773
O44   O     O_R   0.670190 0.410420 0.329080 -0.521776
O45   O     O_R   0.556610 0.252880 0.323980 -0.515660
O46   O     O_R   0.329810 0.410420 0.670920 -0.523466
O47   O     O_R   0.170190 0.910420 0.329080 -0.518277
O48   O     O_R   0.829810 0.910420 0.670920 -0.527849
O49   O     O_3   0.918816 0.417747 0.567803 -0.690425
O50   O     O_3   0.022146 0.347550 0.423453 -0.737981
O51   O     O_3   0.414556 0.921649 0.566149 -0.688618
O52   O     O_3   0.518647 0.847472 0.422564 -0.737493
O53   O     O_R   0.443390 0.252880 0.676020 -0.511412
O54   O     O_R   0.056610 0.752880 0.323980 -0.513455
O55   O     O_R   0.943390 0.752880 0.676020 -0.518066
O56   O     O_R   0.545950 0.051210 0.330860 -0.467557

loop_
_geom_bond_atom_site_label_1
_geom_bond_atom_site_label_2
_ccdc_geom_bond_type
C3    C104  A    
C60   H48   S    
C71   C75   A    
Cr10  O47   S    
C78   C79   A    
Cr11  O55   S    
C87   C91   A    
C7    O48   A    
C35   C53   S    
C103  H21   S    
C8    O45   A    
C20   C67   S    
C19   C23   A    
C100  H53   S    
C18   C26   A    
C59   O21   A    
C108  H8    S    
C74   C83   S    
C72   C76   A    
C26   H1    S    
Cr2   O32   S    
Cr6   O38   S    
C1    C33   S    
C90   C95   A    
Cr5   O37   S    
C85   C86   S    
C68   O26   A    
C18   C65   S    
C98   C124  A    
C43   C61   A    
C100  C105  A    
C101  C123  A    
C121  H17   S    
C65   O22   A    
C3    C99   A    
C119  H63   S    
C32   C36   A    
C96   C118  S    
C28   C29   A    
C9    C69   S    
C41   C58   S    
C38   C42   A    
Cr5   O12   S    
Cr8   O18   S    
C95   C112  S    
C105  H5    S    
C115  O32   A    
C48   O20   A    
C10   C73   S    
C95   C99   A    
C75   C84   S    
C80   H67   S    
Cr12  O56   S    
C20   C25   A    
C94   C98   A    
Cr4   O30   S    
Cr10  O11   S    
Cr12  O27   S    
C66   O24   A    
C94   C111  S    
C6    C88   S    
C14   O6    A    
Cr1   O36   S    
C118  H14   S    
Cr8   O9    S    
C89   C94   A    
C16   O8    A    
C114  H22   S    
C110  C119  S    
Cr2   O6    S    
C91   C96   A    
C88   C93   A    
C52   C56   S    
Cr1   O9    S    
C73   C80   A    
C55   H37   S    
C38   C55   S    
C83   C84   S    
C27   H12   S    
C12   O36   A    
Cr3   O33   S    
C83   H72   S    
C104  H57   S    
C83   O51   S    
C40   C57   S    
C11   O55   A    
Cr11  O48   S    
C8    O56   A    
Cr2   O28   S    
C85   H3    S    
C23   C92   A    
Cr5   O15   S    
C111  H60   S    
C99   C121  S    
C14   O37   A    
Cr6   O23   S    
C117  O34   A    
C23   C25   A    
C40   C62   A    
C84   H2    S    
Cr10  O54   S    
C70   H18   S    
C55   C60   S    
C89   C107  A    
C36   C41   A    
H49   O49   S    
C12   O5    A    
C31   C49   A    
C102  C124  A    
C86   O50   S    
C56   H44   S    
C82   H71   S    
C90   C108  A    
Cr7   O43   S    
C109  C118  S    
C106  H6    S    
C4    C90   S    
Cr6   O42   S    
C119  H15   S    
C39   C61   A    
Cr5   O41   S    
C120  H16   S    
C74   C75   A    
C6    O42   A    
Cr3   O11   S    
C34   C39   A    
C17   C27   A    
C22   C81   A    
C54   H36   S    
C30   C47   A    
C19   C68   S    
C76   C77   A    
C4    O44   A    
C5    O41   A    
C15   O7    A    
C101  H54   S    
Cr2   O2    S    
C42   C60   S    
C53   C57   S    
C11   C72   S    
C25   C103  A    
Cr12  O9    S    
C20   C28   A    
C58   H69   S    
C44   C62   A    
Cr1   O14   S    
C111  C120  S    
C46   C51   A    
C67   O29   A    
C44   C49   A    
C17   C21   A    
C64   C117  S    
C10   O54   A    
C13   C24   A    
C46   C64   A    
C1    O14   A    
Cr10  O20   S    
C5    O46   A    
Cr9   O46   S    
Cr9   O53   S    
C24   C81   A    
C1    O18   A    
Cr5   O10   S    
C111  H11   S    
C11   O4    A    
C47   H31   S    
Cr7   O17   S    
C93   C97   A    
Cr11  O21   S    
C39   C56   S    
C87   C105  A    
C15   O38   A    
C37   O19   A    
C9    O2    A    
H51   O51   S    
C30   C59   S    
H52   O52   S    
C102  H55   S    
C17   C66   S    
C88   C106  A    
C57   H46   S    
C102  C107  A    
C92   H20   S    
Cr8   O44   S    
C66   O28   A    
C32   C37   S    
C98   C120  S    
C32   C50   A    
C110  H10   S    
Cr7   O39   S    
Cr8   O45   S    
Cr4   O8    S    
C109  H58   S    
C63   C116  S    
C117  O35   A    
C80   C82   A    
C15   C124  S    
Cr11  O26   S    
Cr3   O29   S    
C37   O15   A    
C109  H9    S    
C31   C48   S    
C116  O23   A    
C26   C27   A    
C29   H34   S    
C9    O53   A    
C31   C35   A    
C115  O12   A    
C69   C79   A    
C41   C63   A    
C107  H7    S    
C19   C29   A    
C52   H38   S    
C112  H61   S    
C104  C108  A    
C53   H39   S    
Cr12  O5    S    
C54   C58   S    
C16   O39   A    
Cr3   O3    S    
C101  C106  A    
C52   H40   S    
C116  O33   A    
C67   O25   A    
Cr11  O13   S    
Cr1   O1    S    
C14   C123  S    
C46   H30   S    
C112  C121  S    
C18   C22   A    
C55   H43   S    
C65   O27   A    
C24   H26   S    
Cr9   O19   S    
C43   C47   A    
Cr1   O40   S    
Cr7   O34   S    
Cr8   O22   S    
Cr4   O13   S    
C77   C86   S    
C42   C64   A    
C13   H25   S    
C12   C122  S    
C86   H4    S    
C33   C51   A    
C48   O16   A    
C93   C110  S    
C34   C52   S    
Cr9   O10   S    
C81   H19   S    
C96   C122  A    
C21   C70   A    
C79   H56   S    
C78   H45   S    
C91   C109  S    
Cr6   O16   S    
C35   C40   A    
Cr9   O24   S    
C113  O1    A    
C62   C115  S    
C97   C123  A    
C68   O30   A    
Cr4   O4    S    
C61   C113  S    
C2    C114  A    
C60   H70   S    
C53   H41   S    
C2    C103  A    
H50   O50   S    
C72   C82   A    
C57   H68   S    
C51   H35   S    
C97   C119  S    
C120  H64   S    
Cr10  O25   S    
C45   C63   A    
C6    O47   A    
C45   H29   S    
C50   H33   S    
C100  C122  A    
C28   H23   S    
C30   C34   A    
C7    C87   S    
Cr6   O11   S    
C59   O17   A    
C5    C89   S    
C36   C54   S    
C49   H32   S    
C121  H65   S    
Cr3   O7    S    
C54   H42   S    
C10   O3    A    
C113  O31   A    
C56   H66   S    
C2    H24   S    
C13   C70   A    
Cr12  O31   S    
C7    O43   A    
C110  H59   S    
C4    O40   A    
Cr4   O35   S    
C73   C77   A    
C112  H13   S    
C58   H47   S    
C33   C38   A    
C45   C50   A    
C44   H28   S    
C85   O49   S    
C69   C74   A    
C21   C22   A    
C92   C114  A    
C76   C85   S    
Cr7   O13   S    
C71   C78   A    
C84   O52   S    
C3    C16   S    
Cr2   O10   S    
C43   H27   S    
C8    C71   S    
C118  H62   S    
