data_mof_unit_46030.cif
_audit_creation_date              2013-03-05T15:45:30-0500
_audit_creation_method            fapswitch 2.2
_symmetry_space_group_name_H-M    P1
_symmetry_Int_Tables_number       1
_space_group_crystal_system       triclinic
_cell_length_a                    9.819698
_cell_length_b                    10.984193
_cell_length_c                    13.388553
_cell_angle_alpha                 93.781413
_cell_angle_beta                  82.434702
_cell_angle_gamma                 110.994378
_cell_volume                      1336.23147911

loop_
_atom_site_label
_atom_site_type_symbol
_atom_site_description
_atom_site_fract_x
_atom_site_fract_y
_atom_site_fract_z
_atom_type_partial_charge
O1    O     O_R   0.426290 0.668220 0.490680 -0.583143
O2    O     O_R   0.659360 0.703290 0.520190 -0.552368
C1    C     C_R   0.555659 0.746120 0.508421 0.781219
O3    O     O_R   0.326580 0.473880 0.629020 -0.574093
O4    O     O_R   0.559660 0.508940 0.658530 -0.557556
C2    C     C_R   0.420967 0.474165 0.689591 0.828408
Cu1   Cu    Cu3+1 0.362000 0.479240 0.482530 1.016706
Cu2   Cu    Cu3+1 0.638000 0.520760 0.517470 1.064005
O5    O     O_R   0.340640 0.296710 0.479810 -0.557425
O6    O     O_R   0.573710 0.331780 0.509320 -0.546111
O7    O     O_R   0.440340 0.491060 0.341470 -0.554099
O8    O     O_R   0.673420 0.526120 0.370980 -0.607397
C3    C     C_R   0.442780 0.254169 0.496437 0.869311
C4    C     C_R   0.576528 0.510207 0.309371 0.809503
C5    C     C_R   0.785643 0.475056 0.059576 -0.086494
H1    H     H_    0.839220 0.510961 0.210991 0.176819
H2    H     H_    0.815109 0.425370 0.863412 0.214675
H3    H     H_    0.894475 0.476493 0.030494 0.177118
C6    C     C_R   0.616896 0.500348 0.200591 -0.088771
C7    C     C_R   0.221340 0.399172 0.831015 -0.268727
C8    C     C_R   0.166545 0.355777 0.929414 0.280074
C9    C     C_R   0.267542 0.373043 0.000755 0.245114
C10   C     C_R   0.421850 0.416913 0.967728 -0.069816
C11   C     C_R   0.467282 0.423304 0.862620 0.020636
C12   C     C_R   0.533358 0.447262 0.033846 0.110376
C13   C     C_R   0.676263 0.450228 0.995488 0.105176
C14   C     C_R   0.708433 0.428043 0.893485 -0.101831
C15   C     C_R   0.605914 0.414582 0.828048 -0.031929
C16   C     C_R   0.510506 0.482672 0.135435 -0.144505
C17   C     C_R   0.755096 0.497015 0.162080 -0.148403
C18   C     C_R   0.370589 0.433391 0.796017 -0.153725
H4    H     H_    0.411589 0.500209 0.164726 0.197994
H5    H     H_    0.145057 0.397666 0.779034 0.229500
H6    H     H_    0.636039 0.390774 0.751135 0.224288
H7    H     H_    0.356610 0.856568 0.537840 0.158171
C19   C     C_2   0.584286 0.886547 0.515576 -0.179163
C20   C     C_2   0.468272 0.926633 0.533666 -0.218450
H8    H     H_    0.343364 0.053555 0.441357 0.150976
C21   C     C_2   0.414549 0.114644 0.494762 -0.415876
C22   C     C_2   0.483613 0.063296 0.550871 0.424656
H9    H     H_    0.139368 0.590971 0.557721 0.196031
H10   H     H_    0.880481 0.429519 0.429324 0.140401
N1    N     N_2   0.845330 0.551960 0.543750 -0.065568
C23   C     C_2   0.926694 0.494167 0.490790 0.063086
H11   H     H_    0.100534 0.377436 0.406226 0.247544
N2    N     N_2   0.154690 0.448120 0.456210 -0.286863
C24   C     C_2   0.083007 0.515850 0.505554 -0.010116
C25   C     C_2   0.739419 0.977108 0.498847 0.484020
H12   H     H_    0.827004 0.947168 0.517316 0.103238
O9    O     O_2   0.771726 0.082026 0.458786 -0.500780
N3    N     N_R   0.895001 0.622301 0.630499 0.220683
O10   O     O_R   0.860545 0.724476 0.657171 -0.308651
O11   O     O_R   0.942354 0.570382 0.696843 -0.394634
N4    N     N_R   0.213037 0.328589 0.101598 0.141061
O12   O     O_R   0.243168 0.233685 0.135109 -0.308906
O13   O     O_R   0.140451 0.387833 0.161945 -0.361599
N5    N     N_R   0.009900 0.287152 0.952006 0.123745
O14   O     O_R   0.926935 0.253720 0.879275 -0.341124
O15   O     O_R   0.951190 0.241342 0.040822 -0.265081
N6    N     N_R   0.555825 0.132887 0.635235 0.125144
O16   O     O_R   0.499062 0.093059 0.725857 -0.335468
O17   O     O_R   0.690153 0.214957 0.621663 -0.311005

loop_
_geom_bond_atom_site_label_1
_geom_bond_atom_site_label_2
_geom_bond_distance
_ccdc_geom_bond_type
C5    H3    1.083107 S    
C10   C11   1.417591 A    
Cu2   N1    2.014688 S    
C8    N5    1.449999 S    
C22   N6    1.439295 S    
C16   H4    1.076199 S    
N4    O12   1.301217 A    
C23   C24   1.504515 S    
Cu2   O8    1.947314 S    
C25   O9    1.221142 D    
O2    C1    1.295535 A    
H9    C24   1.083294 S    
C11   C18   1.421383 A    
C15   H6    1.075172 S    
Cu1   Cu2   2.681832 S    
C9    N4    1.434295 S    
O1    Cu1   1.941292 S    
H11   N2    1.030914 S    
Cu1   O7    1.937428 S    
N1    N3    1.394487 S    
C13   C14   1.386332 A    
H8    C21   1.087356 S    
H10   C23   1.085248 S    
C1    C19   1.464354 S    
O3    Cu1   1.947315 S    
C7    H5    1.082873 S    
N6    O17   1.300786 A    
C25   H12   1.085539 S    
H7    C20   1.087457 S    
O8    C4    1.297945 A    
C19   C25   1.487961 S    
C20   C22   1.459669 S    
N5    O14   1.301591 A    
C10   C12   1.431250 A    
N1    C23   1.303454 D    
C12   C16   1.401410 A    
O4    C2    1.293348 A    
O7    C4    1.294769 A    
N4    O13   1.302184 A    
N5    O15   1.300038 A    
O4    Cu2   1.937428 S    
C3    C21   1.455614 S    
H1    C17   1.083155 S    
N3    O10   1.299622 A    
H2    C14   1.081528 S    
Cu1   N2    2.014835 S    
C21   C22   1.344059 D    
C7    C8    1.401682 A    
C5    C17   1.389737 A    
Cu2   O6    1.941294 S    
O3    C2    1.308512 A    
C14   C15   1.382531 A    
Cu1   O5    1.938085 S    
O5    C3    1.297003 A    
N2    C24   1.293593 D    
C19   C20   1.350216 D    
C5    C13   1.402203 A    
C2    C18   1.488440 S    
O1    C1    1.294668 A    
C12   C13   1.419051 A    
C8    C9    1.422193 A    
C6    C17   1.399179 A    
C4    C6    1.465578 S    
O6    C3    1.289620 A    
C9    C10   1.432553 A    
O2    Cu2   1.938083 S    
C11   C15   1.413614 A    
N6    O16   1.300525 A    
N3    O11   1.302311 A    
C7    C18   1.398731 A    
C6    C16   1.400868 A    
