data_mof_unit_39883.cif
_audit_creation_date              2012-12-11T18:07:19-0500
_audit_creation_method            fapswitch 2.2
_symmetry_space_group_name_H-M    P1
_symmetry_Int_Tables_number       1
_space_group_crystal_system       triclinic
_cell_length_a                    8.212175
_cell_length_b                    12.689056
_cell_length_c                    26.954502
_cell_angle_alpha                 96.693807
_cell_angle_beta                  92.764676
_cell_angle_gamma                 81.37585
_cell_volume                      2756.74546535

loop_
_atom_site_label
_atom_site_type_symbol
_atom_type_description
_atom_site_fract_x
_atom_site_fract_y
_atom_site_fract_z
_atom_type_partial_charge
Ba1   Ba    Ba6+2 0.859560 0.448380 0.523550 1.644458
Ba2   Ba    Ba6+2 0.330270 0.551530 0.476440 1.658873
C1    C     C_3   0.664543 0.075395 0.660053 -0.371269
C2    C     C_R   0.923768 0.614533 0.180731 0.603567
C3    C     C_2   0.763051 0.578383 0.273201 -0.095329
C4    C     C_3   0.203250 0.206095 0.659081 0.289957
C5    C     C_3   0.738525 0.609976 0.328317 -0.060216
C6    C     C_1   0.985911 0.482450 0.343381 0.041780
C7    C     C_2   0.028969 0.477107 0.295827 -0.073348
C8    C     C_2   0.910283 0.525498 0.257203 0.210430
C9    C     C_R   0.033646 0.517025 0.103077 -0.080464
C10   C     C_R   0.068406 0.423835 0.127779 -0.034239
C11   C     C_R   0.143201 0.328954 0.101050 -0.055887
C12   C     C_3   0.681231 0.179290 0.639081 0.336623
C13   C     C_R   0.960268 0.612716 0.129884 -0.026700
C14   C     C_2   0.847786 0.538761 0.360743 -0.271032
C15   C     C_2   0.355795 0.478537 0.641254 -0.280501
C16   C     C_3   0.216904 0.166524 0.710658 -0.296021
C17   C     C_R   0.197883 0.418155 0.974681 0.020037
C18   C     C_R   0.060941 0.604834 0.974769 0.020586
C19   C     C_R   0.148458 0.510520 0.949262 0.051095
C20   C     C_R   0.292179 0.328387 0.948239 -0.098228
C21   C     C_R   0.332778 0.328493 0.898593 -0.056713
C22   C     C_R   0.280542 0.417702 0.872642 -0.030159
C23   C     C_3   0.482772 0.722892 0.628205 0.298540
C24   C     C_R   0.187316 0.508709 0.897811 -0.077393
C25   C     C_R   0.133716 0.598150 0.871613 -0.033729
C26   C     C_R   0.172897 0.595259 0.820772 0.591207
C27   C     C_R   0.320603 0.417736 0.822085 0.586318
C28   C     C_3   0.214721 0.222501 0.417339 0.293079
C29   C     C_2   0.464401 0.485021 0.729484 -0.071663
C30   C     C_3   0.505416 0.489157 0.675328 -0.058030
C31   C     C_1   0.210379 0.524478 0.657020 0.039953
C32   C     C_2   0.171849 0.526260 0.704546 -0.103552
C33   C     C_2   0.305342 0.504162 0.743915 0.202855
C34   C     C_3   0.446231 0.767915 0.681985 -0.371525
C35   C     C_R   0.152956 0.418764 0.025454 0.020088
C36   C     C_R   0.072281 0.514712 0.051569 0.051311
C37   C     C_R   0.029871 0.608532 0.026757 0.019572
C38   C     C_R   0.185007 0.326374 0.051274 -0.098715
C39   C     C_R   0.925655 0.705585 0.105504 -0.052576
C40   C     C_3   0.224929 0.101874 0.405370 -0.357772
C41   C     C_R   0.006362 0.692361 0.947015 -0.099880
C42   C     C_R   0.041848 0.688881 0.896761 -0.060716
C43   C     C_R   0.959025 0.703667 0.055244 -0.100483
C44   C     C_R   0.754594 0.819507 0.476616 -0.264736
C45   C     C_3   0.955229 0.883982 0.342836 0.260864
C46   C     C_R   0.432252 0.188890 0.519700 -0.290868
C47   C     C_R   0.409552 0.009536 0.535870 -0.097040
C48   C     C_R   0.346221 0.117590 0.539088 -0.007095
C49   C     C_R   0.575397 0.152135 0.493272 0.065309
C50   C     C_R   0.637853 0.040830 0.487099 -0.053866
C51   C     C_R   0.554209 0.969226 0.509582 -0.062537
C52   C     C_3   0.982186 0.776906 0.580159 0.277599
C53   C     C_R   0.615945 0.858845 0.504531 0.050028
C54   C     C_R   0.841803 0.888727 0.456136 -0.037502
C55   C     C_R   0.782293 0.998711 0.460358 -0.098321
C56   C     C_3   0.005744 0.924723 0.295208 -0.200414
C57   C     C_3   0.991266 0.896105 0.589904 -0.335194
C58   C     C_3   0.695828 0.313314 0.375819 0.289630
C59   C     C_3   0.713118 0.284130 0.319777 -0.352928
C60   C     C_1   0.105230 0.838848 0.263797 0.399393
C61   C     C_1   0.861750 0.968453 0.265762 0.234614
C62   C     C_1   0.059217 0.191296 0.735916 0.333496
C63   C     C_3   0.485700 0.834511 0.351767 0.366138
C64   C     C_3   0.503091 0.910098 0.313311 -0.381452
C65   C     C_R   0.025997 0.427022 0.178501 0.596956
H1    H     H_    0.801801 0.169765 0.620913 0.098455
H2    H     H_    0.811460 0.339252 0.391941 0.010912
H3    H     H_    0.592763 0.380113 0.382234 0.080789
H4    H     H_    0.657026 0.010565 0.628964 0.081255
H5    H     H_    0.821761 0.221587 0.312312 0.133635
H6    H     H_    0.729362 0.355871 0.301727 0.066511
H7    H     H_    0.600627 0.253194 0.303270 0.142047
H8    H     H_    0.580508 0.194324 0.610869 -0.027855
H9    H     H_    0.551110 0.085079 0.681773 0.129583
H10   H     H_    0.368308 0.697447 0.610330 0.032151
H11   H     H_    0.581669 0.652836 0.627892 0.031890
H12   H     H_    0.298208 0.074911 0.371590 0.110876
H13   H     H_    0.352642 0.840988 0.682627 0.136206
H14   H     H_    0.397167 0.708098 0.701728 0.079575
H15   H     H_    0.560577 0.788931 0.701875 0.125647
H16   H     H_    0.772134 0.052626 0.685127 0.137120
H17   H     H_    0.310236 0.205968 0.733848 0.130399
H18   H     H_    0.889953 0.813199 0.333118 0.003263
H19   H     H_    0.871189 0.950107 0.363005 -0.034569
H20   H     H_    0.080443 0.990308 0.305927 0.059106
H21   H     H_    0.610490 0.812436 0.368941 -0.110343
H22   H     H_    0.406679 0.877813 0.382056 0.085662
H23   H     H_    0.284678 0.060472 0.436853 0.079740
H24   H     H_    0.578503 0.865941 0.282326 0.148370
H25   H     H_    0.564187 0.978105 0.330936 0.080529
H26   H     H_    0.136711 0.289459 0.661361 0.069276
H27   H     H_    0.380541 0.942253 0.297928 0.122605
H28   H     H_    0.151649 0.439891 0.284956 0.128021
H29   H     H_    0.170377 0.255512 0.118658 0.124891
H30   H     H_    0.564240 0.473125 0.757089 0.107458
H31   H     H_    0.405785 0.257472 0.880453 0.123290
H32   H     H_    0.340056 0.256850 0.965173 0.070178
H33   H     H_    0.239693 0.249448 0.033747 0.070590
H34   H     H_    0.099226 0.080184 0.398388 0.123736
H35   H     H_    0.670704 0.611866 0.246945 0.115619
H36   H     H_    0.871434 0.780996 0.125292 0.127662
H37   H     H_    0.932416 0.764745 0.962753 0.070194
H38   H     H_    0.330034 0.206843 0.646922 -0.036037
H39   H     H_    0.996762 0.758481 0.877583 0.123102
H40   H     H_    0.044208 0.544258 0.715236 0.124285
H41   H     H_    0.930740 0.779406 0.040118 0.071271
H42   H     H_    0.825554 0.550947 0.400506 0.075183
H43   H     H_    0.367739 0.434676 0.604199 0.072566
H44   H     H_    0.340922 0.958088 0.552786 0.103455
H45   H     H_    0.853136 0.764621 0.572798 0.001621
H46   H     H_    0.852625 0.049730 0.443710 0.100519
H47   H     H_    0.802126 0.734825 0.474090 0.056331
H48   H     H_    0.382509 0.273243 0.522906 0.067540
H49   H     H_    0.257598 0.078517 0.707299 0.095748
H50   H     H_    0.339911 0.242904 0.425331 0.003907
H51   H     H_    0.137442 0.247882 0.450527 0.067691
H52   H     H_    0.055897 0.744439 0.546907 0.077369
H53   H     H_    0.935769 0.928957 0.626082 0.124732
H54   H     H_    0.924611 0.938721 0.559712 0.086307
H55   H     H_    0.121811 0.909473 0.591922 0.127181
N1    N     N_R   0.954276 0.521918 0.204745 -0.421855
N2    N     N_R   0.265273 0.505496 0.796344 -0.424465
N3    N     N_1   0.184374 0.771574 0.239017 -0.248755
N4    N     N_1   0.749213 0.003635 0.242284 -0.267967
N5    N     N_1   0.935412 0.210936 0.756140 -0.237049
O1    O     O_2   0.907040 0.557650 0.617910 -0.468112
O2    O     O_2   0.178748 0.883013 0.466041 -0.484062
O3    O     O_3   0.098335 0.855658 0.371956 -0.577846
O4    O     O_3   0.139040 0.557570 0.557730 -0.494925
O5    O     O_3   0.571310 0.369620 0.475470 -0.490629
O6    O     O_2   0.348200 0.764910 0.523260 -0.468512
O7    O     O_3   0.535700 0.802830 0.603984 -0.649612
O8    O     O_2   0.424668 0.537938 0.322961 -0.482729
O9    O     O_3   0.411025 0.747273 0.328490 -0.548982
O10   O     O_2   0.050926 0.344792 0.198925 -0.595656
O11   O     O_2   0.404476 0.339207 0.800969 -0.600302
O12   O     O_3   0.664482 0.223062 0.396993 -0.642384
O13   O     O_2   0.865681 0.699490 0.203753 -0.612973
O14   O     O_2   0.126854 0.673551 0.798523 -0.597172
O15   O     O_3   0.684960 0.360550 0.588460 -0.489498
O16   O     O_2   0.848511 0.413881 0.672657 -0.491416
O17   O     O_3   0.040738 0.729574 0.623092 -0.627004
O18   O     O_3   0.670011 0.263340 0.678089 -0.575309
O19   O     O_2   0.841490 0.235060 0.476710 -0.468442
O20   O     O_3   0.099640 0.305100 0.564190 -0.483790
O21   O     O_2   0.007283 0.115972 0.533653 -0.487887
O22   O     O_3   0.120387 0.137091 0.625754 -0.614113
O23   O     O_2   0.282660 0.442310 0.382060 -0.457513
O24   O     O_3   0.050670 0.442340 0.442260 -0.501258
O25   O     O_3   0.504750 0.639360 0.411530 -0.464974
O26   O     O_3   0.147198 0.270655 0.375531 -0.629665
O27   O     O_3   0.618400 0.630290 0.524520 -0.477547
O28   O     O_3   0.090070 0.694820 0.435810 -0.458442
P1    P     P_3+3 0.072810 0.589830 0.610360 0.994863
P2    P     P_3+3 0.661990 0.251250 0.462170 0.969949
P3    P     P_3+3 0.143411 0.166995 0.565033 0.939776
P4    P     P_3+3 0.116900 0.410080 0.389630 0.991359
P5    P     P_3+3 0.047518 0.833181 0.431828 0.964107
P6    P     P_3+3 0.678577 0.384435 0.653604 0.986604
P7    P     P_3+3 0.533695 0.764753 0.539516 0.935277
P8    P     P_3+3 0.519723 0.628487 0.346870 0.995397

loop_
_geom_bond_atom_site_label_1
_geom_bond_atom_site_label_2
_ccdc_geom_bond_type
Ba2   O23   S    
C52   O17   S    
C19   C24   A    
C56   C60   S    
C57   H53   S    
Ba1   P1    S    
Ba1   O1    S    
Ba1   O5    S    
C56   H20   S    
O15   P6    S    
C31   P1    S    
O19   P2    D    
C48   P3    S    
C63   H22   S    
C27   O11   D    
C12   O18   S    
C24   C25   A    
Ba2   O28   S    
C23   H10   S    
C32   H40   S    
C45   H18   S    
C33   N2    S    
C17   C19   A    
C22   C24   A    
C32   C33   S    
C35   C38   A    
C36   C37   A    
C27   N2    Am   
Ba2   O24   S    
C54   C55   A    
O3    P5    S    
Ba1   Ba2   S    
C22   C27   A    
C11   C38   A    
Ba1   O15   S    
C17   C35   A    
C41   H37   S    
C4    O22   S    
C9    C13   A    
C25   C42   A    
C46   C49   A    
C34   H15   S    
Ba2   P4    S    
C44   C53   A    
C16   H17   S    
C21   C22   A    
C7    C8    S    
C7    H28   S    
C43   H41   S    
C64   H27   S    
C47   H44   S    
C62   N5    T    
C57   H55   S    
C46   C48   A    
C40   H12   S    
C6    C14   D    
C52   H52   S    
C15   H43   S    
Ba1   O19   S    
C15   C31   D    
O17   P1    S    
C14   H42   S    
Ba2   O4    S    
C52   C57   S    
C51   C53   A    
Ba2   O25   S    
C4    C16   S    
C10   C65   A    
Ba2   O6    S    
O23   P4    D    
C44   H47   S    
C45   O3    S    
C49   C50   A    
O25   P8    S    
C45   H19   S    
C17   C20   A    
C13   C39   A    
C8    N1    S    
C34   H13   S    
C16   H49   S    
C3    C5    S    
C18   C37   A    
C6    C7    D    
C64   H25   S    
C11   H29   S    
O6    P7    D    
C59   H6    S    
C5    P8    S    
C49   P2    S    
C23   H11   S    
C2    N1    Am   
C58   C59   S    
C40   H23   S    
O24   P4    S    
O26   P4    S    
C9    C36   A    
C1    H4    S    
C41   C42   A    
C35   C36   A    
C23   O7    S    
C2    O13   D    
Ba2   O5    S    
C29   C30   S    
C58   H3    S    
C34   H14   S    
C4    H26   S    
C30   P6    S    
C31   C32   D    
C52   H45   S    
O21   P3    D    
C18   C19   A    
C1    H9    S    
C1    C12   S    
C46   H48   S    
C59   H5    S    
C5    C14   S    
C47   C48   A    
C1    H16   S    
C29   C33   D    
Ba1   O20   S    
C40   H34   S    
C18   C41   A    
C50   C51   A    
C63   H21   S    
O22   P3    S    
C56   C61   S    
C3    H35   S    
O4    P1    S    
C39   C43   A    
C20   H32   S    
O28   P5    S    
O8    P8    D    
O27   P7    S    
C53   P7    S    
Ba1   O4    S    
C65   N1    Am   
C38   H33   S    
C60   N3    T    
C55   H46   S    
C9    C10   A    
C26   N2    Am   
C64   H24   S    
C28   H50   S    
C42   H39   S    
C59   H7    S    
C28   H51   S    
O5    P2    S    
C37   C43   A    
C12   H8    S    
C2    C13   A    
Ba1   P2    S    
C3    C8    D    
C54   P5    S    
C23   C34   S    
C45   C56   S    
C39   H36   S    
O20   P3    S    
C16   C62   S    
O18   P6    S    
C58   H2    S    
C47   C51   A    
C4    H38   S    
Ba1   O24   S    
C29   H30   S    
Ba1   O27   S    
C65   O10   D    
C28   O26   S    
C63   O9    S    
C50   C55   A    
O1    P1    D    
C58   O12   S    
C57   H54   S    
O7    P7    S    
C61   N4    T    
C21   H31   S    
C10   C11   A    
O12   P2    S    
Ba2   O27   S    
C63   C64   S    
C44   C54   A    
C25   C26   A    
C15   C30   S    
C12   H1    S    
C20   C21   A    
C28   C40   S    
C26   O14   D    
C6    P4    S    
O16   P6    D    
O2    P5    D    
O9    P8    S    
