data_mof_unit_65371.cif
_audit_creation_date              2012-10-26T18:36:02-0400
_audit_creation_method            fapswitch 2.2
_symmetry_space_group_name_H-M    P1
_symmetry_Int_Tables_number       1
_space_group_crystal_system       triclinic
_cell_length_a                    10.778794
_cell_length_b                    12.745775
_cell_length_c                    13.898946
_cell_angle_alpha                 97.946528
_cell_angle_beta                  90.19498
_cell_angle_gamma                 93.160206
_cell_volume                      1888.16483784

loop_
_atom_site_label
_atom_site_type_symbol
_atom_type_description
_atom_site_fract_x
_atom_site_fract_y
_atom_site_fract_z
_atom_type_partial_charge
C1    C     C_R   0.498579 0.483575 0.315817 0.551233
C2    C     C_1   0.497492 0.474196 0.212476 0.004909
C3    C     C_2   0.464188 0.028173 0.473837 -0.158413
C4    C     C_R   0.259568 0.500206 0.498321 0.587890
C5    C     C_2   0.535767 0.971811 0.526188 -0.155400
C6    C     C_1   0.525633 0.854634 0.519047 0.164476
C7    C     C_1   0.474345 0.145360 0.480964 0.141705
C8    C     C_R   0.501357 0.516442 0.684178 0.567299
C9    C     C_R   0.740425 0.499910 0.501946 0.559134
C10   C     C_3   0.063285 0.386024 0.493482 -0.258205
C11   C     C_3   0.921403 0.385378 0.486817 -0.255034
C12   C     C_3   0.878206 0.501106 0.504036 0.052520
C13   C     C_3   0.080068 0.567893 0.597102 0.003841
C14   C     C_3   0.071733 0.549732 0.410742 -0.138533
C15   C     C_3   0.121913 0.501618 0.500480 0.015482
C16   C     C_2   0.886391 0.672785 0.627020 0.243826
C17   C     C_2   0.131238 0.657158 0.397655 0.236357
C18   C     C_3   0.933200 0.560908 0.604453 0.120018
C19   C     C_3   0.928915 0.555565 0.417382 -0.260923
C20   C     C_1   0.502221 0.525889 0.787509 0.000682
C21   C     C_2   0.503895 0.543659 0.978407 -0.113808
C22   C     C_2   0.495468 0.456549 0.021575 -0.117258
C23   C     C_1   0.496506 0.465673 0.125406 -0.036839
C24   C     C_1   0.503019 0.534494 0.874577 -0.044434
Cu1   Cu    Cu3+1 0.491980 0.395330 0.493960 0.992477
Cu2   Cu    Cu3+1 0.508020 0.604670 0.506040 1.038173
H1    H     H_    0.090626 0.347791 0.556881 0.141156
H2    H     H_    0.879043 0.335404 0.538834 0.149558
H3    H     H_    0.092227 0.494048 0.344224 0.149581
H4    H     H_    0.885998 0.514881 0.348152 0.104536
H5    H     H_    0.812882 0.687876 0.679568 0.142638
H6    H     H_    0.126261 0.462097 0.693263 0.233469
H7    H     H_    0.121209 0.591012 0.744472 0.235864
H8    H     H_    0.926254 0.428677 0.680364 0.231288
H9    H     H_    0.913509 0.545309 0.751537 0.219363
H10   H     H_    0.118248 0.726055 0.451053 0.149445
H11   H     H_    0.900418 0.638642 0.423552 0.183514
H12   H     H_    0.112827 0.651170 0.592590 0.180727
H13   H     H_    0.487835 0.378079 0.979248 0.137941
H14   H     H_    0.511546 0.622133 0.020724 0.146052
H15   H     H_    0.604760 0.014132 0.576374 0.132779
H16   H     H_    0.395194 0.985840 0.423656 0.141157
H17   H     H_    0.097518 0.336311 0.427743 0.134407
H18   H     H_    0.890378 0.346370 0.413321 0.130281
N1    N     N_1   0.479930 0.238040 0.484880 -0.189893
N2    N     N_1   0.520070 0.761960 0.515120 -0.178242
N3    N     N_3   0.145827 0.540597 0.682496 -0.646898
N4    N     N_3   0.888710 0.502707 0.683764 -0.666401
O1    O     O_R   0.492240 0.399110 0.356330 -0.501040
O2    O     O_2   0.193804 0.667594 0.326175 -0.495078
O3    O     O_R   0.505790 0.575900 0.366540 -0.473703
O4    O     O_R   0.310920 0.411610 0.494880 -0.506097
O5    O     O_R   0.324460 0.588390 0.505090 -0.479677
O6    O     O_R   0.494210 0.424100 0.633460 -0.487338
O7    O     O_R   0.507760 0.600890 0.643670 -0.494736
O8    O     O_R   0.675540 0.411610 0.494910 -0.504141
O9    O     O_R   0.689080 0.588390 0.505120 -0.500401
O10   O     O_2   0.925962 0.745744 0.585202 -0.561287

loop_
_geom_bond_atom_site_label_1
_geom_bond_atom_site_label_2
_ccdc_geom_bond_type
C17   O2    D    
C10   H1    S    
C11   C12   S    
C3    H16   S    
C17   H10   S    
Cu1   N1    S    
C4    O5    A    
C19   H11   S    
C9    O9    A    
Cu1   O8    S    
Cu2   O7    S    
C4    C15   S    
Cu1   Cu2   S    
Cu1   O4    S    
C11   H18   S    
C9    O8    A    
C16   O10   D    
Cu2   O3    S    
C16   H5    S    
C1    O3    A    
C14   C17   S    
C13   H12   S    
C8    C20   S    
C21   H14   S    
C13   C18   S    
C4    O4    A    
C22   H13   S    
C11   H2    S    
C8    O7    A    
H6    N3    S    
C9    C12   S    
C3    C7    S    
C10   C15   S    
C13   C15   S    
C5    C6    S    
H7    N3    S    
Cu2   O9    S    
Cu1   O1    S    
H8    N4    S    
C10   C11   S    
Cu2   N2    S    
C14   H3    S    
C12   C18   S    
Cu2   O5    S    
C7    N1    T    
Cu1   O6    S    
C12   C19   S    
C16   C18   S    
C1    C2    S    
C21   C24   S    
C8    O6    A    
C2    C23   T    
C13   N3    S    
C5    H15   S    
C14   C15   S    
C6    N2    T    
C10   H17   S    
C21   C22   D    
C19   H4    S    
C1    O1    A    
C14   C19   S    
C22   C23   S    
C20   C24   T    
H9    N4    S    
C3    C5    D    
C18   N4    S    
