data_mof_unit_16314.cif
_audit_creation_date              2012-12-10T17:03:59-0500
_audit_creation_method            fapswitch 2.2
_symmetry_space_group_name_H-M    P1
_symmetry_Int_Tables_number       1
_space_group_crystal_system       triclinic
_cell_length_a                    18.936077
_cell_length_b                    18.983485
_cell_length_c                    18.283577
_cell_angle_alpha                 109.067489
_cell_angle_beta                  108.868334
_cell_angle_gamma                 110.164974
_cell_volume                      5078.34574248

loop_
_atom_site_label
_atom_site_type_symbol
_atom_type_description
_atom_site_fract_x
_atom_site_fract_y
_atom_site_fract_z
_atom_type_partial_charge
C1    C     C_R   0.997747 0.117840 0.620302 0.912789
C2    C     C_R   0.166711 0.227492 0.452701 0.030055
C3    C     C_R   0.319340 0.318932 0.512374 -0.133902
C4    C     C_R   0.337697 0.319319 0.595052 -0.021539
C5    C     C_R   0.271012 0.260220 0.600489 -0.103197
C6    C     C_R   0.185153 0.210095 0.524745 -0.138322
C7    C     C_R   0.421492 0.375261 0.672533 0.483912
C8    C     C_R   0.444134 0.356567 0.741046 -0.376242
C9    C     C_R   0.381563 0.299189 0.747870 0.485872
C10   C     C_R   0.294630 0.256521 0.682620 -0.115183
C11   C     C_R   0.870415 0.082665 0.685496 -0.141815
C12   C     C_R   0.119001 0.129902 0.510950 0.896761
C13   C     C_R   0.835540 0.062803 0.738317 0.406787
C14   C     C_R   0.878222 0.120703 0.829903 -0.042203
C15   C     C_R   0.944068 0.204288 0.863378 -0.163374
C16   C     C_R   0.970441 0.228594 0.807435 -0.021870
C17   C     C_R   0.945778 0.164108 0.724596 -0.023474
C18   C     C_R   0.996581 0.185143 0.684722 -0.092654
C19   C     C_R   0.053350 0.271644 0.712844 -0.064552
C20   C     C_R   0.066536 0.337507 0.788216 0.464526
C21   C     C_R   0.019793 0.315616 0.831415 -0.197365
C22   C     C_R   0.751642 0.722824 0.336212 -0.241632
C23   C     C_R   0.001413 0.882389 0.378596 0.887857
C24   C     C_R   0.683996 0.651559 0.254081 0.461804
C25   C     C_R   0.613812 0.590560 0.251005 -0.056814
C26   C     C_R   0.612739 0.602373 0.330400 -0.198109
C27   C     C_R   0.681673 0.673772 0.414057 -0.028713
C28   C     C_R   0.749829 0.736556 0.416308 0.054067
C29   C     C_R   0.815879 0.810905 0.498775 -0.219920
C30   C     C_R   0.819360 0.820474 0.579873 -0.150465
C31   C     C_R   0.751923 0.757701 0.577622 0.473961
C32   C     C_R   0.684205 0.684723 0.495525 -0.227655
C33   C     C_R   0.142959 0.924991 0.331245 -0.117251
C34   C     C_R   0.880692 0.879454 0.500024 0.822930
C35   C     C_R   0.221158 0.939191 0.331694 0.369835
C36   C     C_R   0.236581 0.870242 0.304935 -0.079017
C37   C     C_R   0.170322 0.785122 0.270983 -0.077769
C38   C     C_R   0.085812 0.769699 0.254269 -0.049844
C39   C     C_R   0.077222 0.839733 0.298780 0.028177
C40   C     C_R   0.002828 0.820600 0.308925 -0.026372
C41   C     C_R   0.931619 0.737517 0.259366 -0.214317
C42   C     C_R   0.933260 0.671891 0.200490 -0.171535
C43   C     C_R   0.009095 0.687045 0.196607 -0.123958
C44   C     C_R   0.616209 0.496900 0.620628 0.997455
C45   C     C_R   0.081977 0.202127 0.390937 -0.025762
C46   C     C_R   0.384253 0.381050 0.505704 0.983869
C47   C     C_R   0.379591 0.498947 0.379409 0.908571
C48   C     C_R   0.618510 0.619567 0.497595 0.908003
C49   C     C_R   0.880544 0.495635 0.874272 0.939365
C50   C     C_R   0.008466 0.380963 0.888132 0.932994
C51   C     C_R   0.119367 0.503011 0.124241 0.917851
C52   C     C_R   0.002678 0.619997 0.123511 0.868780
C53   C     C_R   0.791667 0.623955 0.696496 -0.158048
C54   C     C_R   0.875724 0.673969 0.715919 -0.056446
C55   C     C_R   0.937399 0.651993 0.747355 -0.258839
C56   C     C_R   0.063075 0.200053 0.309349 0.026644
C57   C     C_R   0.916383 0.582806 0.764267 0.027604
C58   C     C_R   0.835677 0.543136 0.761494 0.111791
C59   C     C_R   0.770016 0.556395 0.716480 -0.005191
C60   C     C_R   0.683428 0.497132 0.685987 -0.114111
C61   C     C_R   0.663272 0.427228 0.702870 -0.013179
C62   C     C_R   0.729430 0.428717 0.765320 -0.299927
C63   C     C_R   0.815465 0.488365 0.798078 -0.079171
C64   C     C_R   0.215866 0.446464 0.374294 -0.348630
C65   C     C_R   0.139144 0.426630 0.377372 -0.117347
C66   C     C_R   0.075870 0.434911 0.320777 0.439526
C67   C     C_R   0.130128 0.229415 0.291415 -0.236936
C68   C     C_R   0.096200 0.475278 0.271628 0.404239
C69   C     C_R   0.168784 0.484138 0.259166 -0.056609
C70   C     C_R   0.231181 0.473785 0.314981 -0.029551
C71   C     C_R   0.309966 0.495265 0.313618 -0.151608
C72   C     C_R   0.327638 0.527174 0.259060 0.524636
C73   C     C_R   0.263068 0.527743 0.197434 -0.259276
C74   C     C_R   0.184243 0.506344 0.196189 -0.134475
C75   C     C_R   0.214983 0.266568 0.356737 -0.203084
C76   C     C_R   0.234632 0.269883 0.440114 0.010073
H1    H     H_    0.974654 0.250548 0.933128 0.202080
H2    H     H_    0.806292 0.766267 0.336356 0.155383
H3    H     H_    0.555893 0.556162 0.324876 0.248933
H4    H     H_    0.030540 0.187875 0.407025 0.232740
H5    H     H_    0.874282 0.723353 0.265713 0.167968
H6    H     H_    0.875070 0.609081 0.157959 0.182184
H7    H     H_    0.743143 0.636860 0.664029 0.192083
H8    H     H_    0.891293 0.725362 0.699833 0.208312
H9    H     H_    0.999457 0.684760 0.751870 0.143509
H10   H     H_    0.713575 0.380623 0.785994 0.167249
H11   H     H_    0.263423 0.439477 0.418672 0.173031
H12   H     H_    0.275788 0.546369 0.150933 0.197380
H13   H     H_    0.117477 0.228624 0.228875 0.154417
H14   H     H_    0.264086 0.294005 0.340806 0.171930
H15   H     H_    0.510856 0.392412 0.793187 0.163907
O1    O     O_R   0.051710 0.091600 0.643330 -0.657566
O2    O     O_R   0.591640 0.448340 0.539940 -0.582626
O3    O     O_R   0.408370 0.460150 0.551730 -0.615954
O4    O     O_R   0.408410 0.356720 0.448320 -0.612299
O5    O     O_R   0.408360 0.551760 0.460120 -0.642153
O6    O     O_R   0.408400 0.448330 0.356700 -0.603544
O7    O     O_R   0.591600 0.643380 0.551740 -0.617503
O8    O     O_R   0.591640 0.539950 0.448320 -0.628695
O9    O     O_R   0.960070 0.551730 0.908390 -0.627548
O10   O     O_R   0.856640 0.448280 0.908400 -0.629055
O11   O     O_R   0.051720 0.460120 0.908370 -0.565221
O12   O     O_R   0.948270 0.091620 0.539910 -0.530665
O13   O     O_R   0.948290 0.356670 0.908380 -0.636108
O14   O     O_R   0.143340 0.551720 0.091580 -0.629938
O15   O     O_R   0.039910 0.448270 0.091590 -0.591837
O16   O     O_R   0.051690 0.643330 0.091600 -0.623538
O17   O     O_R   0.948270 0.539880 0.091610 -0.596792
O18   O     O_R   0.143340 0.091610 0.551710 -0.678670
O19   O     O_R   0.039890 0.091630 0.448290 -0.575645
O20   O     O_R   0.051730 0.908380 0.460090 -0.629130
O21   O     O_R   0.948290 0.908400 0.356670 -0.588612
O22   O     O_R   0.960110 0.908370 0.551710 -0.626437
O23   O     O_R   0.856660 0.908390 0.448290 -0.622671
O24   O     O_R   0.591600 0.551770 0.643360 -0.622138
Zn1   Zn    Zn3+2 0.069070 0.999990 0.569050 0.957292
Zn2   Zn    Zn3+2 0.930930 0.000010 0.430950 1.088614
Zn3   Zn    Zn3+2 0.499980 0.569110 0.569080 0.939137
Zn4   Zn    Zn3+2 0.500030 0.430990 0.430980 1.041381
Zn5   Zn    Zn3+2 0.069050 0.569070 0.999980 1.013680
Zn6   Zn    Zn3+2 0.930930 0.430930 0.000000 1.001054
O25   O     O_3   0.404172 0.284765 0.819627 -0.604784
C77   C     C_3   0.437827 0.360759 0.899108 -0.234881
H16   H     H_    0.397601 0.391889 0.892283 0.183745
H17   H     H_    0.505709 0.407208 0.922076 0.145329
H18   H     H_    0.438100 0.343452 0.951533 0.211194
C78   C     C_2   0.816577 0.024432 0.588257 0.431050
H19   H     H_    0.784735 0.955131 0.561278 0.071433
O26   O     O_2   0.800478 0.053276 0.538275 -0.520618
O27   O     O_3   0.759031 0.986820 0.699589 -0.689670
C79   C     C_3   0.690271 0.003782 0.679481 -0.360275
H20   H     H_    0.686333 0.029510 0.632527 0.205333
H21   H     H_    0.695666 0.049045 0.740662 0.172293
H22   H     H_    0.628846 0.942298 0.646670 0.194459
C80   C     C_2   0.850271 0.095506 0.888792 0.405310
H23   H     H_    0.799265 0.030449 0.862382 0.099945
O28   O     O_2   0.884108 0.146824 0.967620 -0.599480
O29   O     O_3   0.133264 0.421615 0.827789 -0.600056
C81   C     C_3   0.114472 0.461721 0.777122 -0.223851
H24   H     H_    0.122275 0.523331 0.821053 0.193096
H25   H     H_    0.048597 0.422494 0.717882 0.192422
H26   H     H_    0.162764 0.478527 0.754794 0.146677
C82   C     C_2   0.892632 0.896433 0.666937 0.479760
H27   H     H_    0.925604 0.958694 0.672215 0.041748
O30   O     O_2   0.918406 0.889889 0.733486 -0.550660
O31   O     O_3   0.689196 0.637877 0.177276 -0.640686
C83   C     C_3   0.680889 0.700188 0.155069 -0.333300
H28   H     H_    0.739184 0.765199 0.202442 0.188128
H29   H     H_    0.621722 0.701972 0.151562 0.163934
H30   H     H_    0.674753 0.682467 0.088287 0.198499
C84   C     C_2   0.541238 0.514858 0.164515 0.447751
H31   H     H_    0.541522 0.507133 0.103150 0.082079
O32   O     O_2   0.480149 0.460064 0.160518 -0.541453
O33   O     O_3   0.755757 0.762744 0.656345 -0.620398
C85   C     C_3   0.724743 0.816369 0.689721 -0.134747
H32   H     H_    0.690994 0.790012 0.722202 0.158842
H33   H     H_    0.677613 0.820025 0.637622 0.162011
H34   H     H_    0.779972 0.881552 0.741928 0.216669
C86   C     C_2   0.127927 0.998866 0.351051 0.423218
H35   H     H_    0.180569 0.062916 0.403391 0.105743
O34   O     O_2   0.059354 0.990166 0.304018 -0.557707
O35   O     O_3   0.284837 0.022215 0.362693 -0.630161
C87   C     C_3   0.274779 0.036991 0.290111 -0.285359
H36   H     H_    0.210898 0.031224 0.256368 0.178493
H37   H     H_    0.283605 0.992532 0.241341 0.163967
H38   H     H_    0.325142 0.103848 0.315434 0.213781
C88   C     C_2   0.321084 0.889266 0.308679 0.516471
H39   H     H_    0.378646 0.951004 0.359540 0.095476
O36   O     O_2   0.326395 0.838344 0.252259 -0.545081
C89   C     C_2   0.192487 0.716804 0.270786 0.488556
H40   H     H_    0.142653 0.650776 0.238543 0.065376
O37   O     O_2   0.266662 0.734093 0.312817 -0.564834
C90   C     C_2   0.576112 0.349997 0.656460 0.445589
H41   H     H_    0.561295 0.310955 0.687326 0.055666
O38   O     O_2   0.521713 0.325831 0.581902 -0.550510
C91   C     C_2   0.974004 0.168705 0.242896 0.428564
H42   H     H_    0.961170 0.166974 0.179821 0.073815
O39   O     O_2   0.913953 0.144368 0.257449 -0.540409
C92   C     C_2   0.970421 0.542350 0.762841 0.447326
H43   H     H_    0.036183 0.579862 0.777628 0.012676
O40   O     O_2   0.940515 0.465850 0.740350 -0.589136
O41   O     O_3   0.408510 0.558241 0.265958 -0.597083
C93   C     C_3   0.452390 0.649353 0.314225 -0.306018
H44   H     H_    0.468584 0.672490 0.384936 0.164469
H45   H     H_    0.414959 0.676292 0.284572 0.202956
H46   H     H_    0.513643 0.675457 0.312694 0.191771
C94   C     C_2   0.129461 0.401537 0.443958 0.480451
H47   H     H_    0.182590 0.401585 0.490333 0.041785
O42   O     O_2   0.063064 0.380800 0.448500 -0.486306
O43   O     O_3   0.998642 0.413262 0.322072 -0.571410
C95   C     C_3   0.929032 0.349030 0.236168 -0.149243
H48   H     H_    0.940652 0.296264 0.204697 0.133580
H49   H     H_    0.914799 0.377332 0.192710 0.181636
H50   H     H_    0.870622 0.319638 0.241764 0.199125
O44   O     O_3   0.050518 0.513558 0.244125 -0.606899
C96   C     C_3   0.066113 0.582600 0.319899 -0.314015
H51   H     H_    0.039010 0.619805 0.298613 0.180973
H52   H     H_    0.136488 0.627616 0.367335 0.156565
H53   H     H_    0.032831 0.559464 0.354230 0.223382
O45   O     O_3   0.483127 0.448845 0.683272 -0.596768
C97   C     C_3   0.491177 0.521588 0.748170 -0.254049
H54   H     H_    0.523886 0.530566 0.815807 0.138853
H55   H     H_    0.427368 0.517229 0.732904 0.144769
H56   H     H_    0.531767 0.580327 0.748895 0.199043
C98   C     C_2   0.235151 0.221555 0.713730 0.500900
H57   H     H_    0.215847 0.157757 0.706298 0.128146
O46   O     O_2   0.221113 0.269221 0.762775 -0.617429
C99   C     C_2   0.095266 0.294624 0.661419 0.418304
H58   H     H_    0.160644 0.348245 0.695451 0.120360
O47   O     O_2   0.055615 0.256598 0.580397 -0.577616

loop_
_geom_bond_atom_site_label_1
_geom_bond_atom_site_label_2
_ccdc_geom_bond_type
C66   C68   A    
C95   H49   S    
C65   C94   S    
C50   O13   A    
C16   C21   A    
C49   C63   S    
C85   H33   S    
C97   H55   S    
C73   C74   A    
C83   H28   S    
C42   H6    S    
C51   C74   S    
O17   Zn6   S    
C93   H44   S    
C79   H22   S    
C54   H8    S    
C53   C59   A    
C2    C76   A    
C7    C8    A    
C88   O36   D    
O12   Zn2   S    
C90   H41   S    
C34   O22   A    
C23   O21   A    
C62   H10   S    
C1    C18   S    
O43   C95   S    
C56   C91   S    
O5    Zn3   S    
C28   C29   A    
C87   H37   S    
C10   C98   S    
O31   C83   S    
C69   C70   A    
C96   H53   S    
C6    C12   S    
C5    C6    A    
C81   H26   S    
C43   C52   S    
C77   H17   S    
C16   C17   A    
C14   C80   S    
C23   C40   S    
C67   H13   S    
C80   O28   D    
C18   C19   A    
C41   C42   A    
C20   O29   S    
C7    O45   S    
O41   C93   S    
C12   O18   A    
C44   O2    A    
C75   H14   S    
C87   H36   S    
C52   O16   A    
C11   C17   A    
C46   O4    A    
C19   C20   A    
C45   C56   A    
C8    C9    A    
O45   C97   S    
C13   O27   S    
C86   O34   D    
O14   Zn5   S    
O7    Zn3   S    
O20   Zn1   S    
O9    Zn5   S    
C64   C70   A    
C45   H4    S    
C9    C10   A    
C1    O12   A    
C64   H11   S    
O18   Zn1   S    
C72   C73   A    
O22   Zn1   S    
C91   O39   D    
C84   H31   S    
C59   C60   A    
C22   C28   A    
C13   C14   A    
O3    Zn3   S    
C85   H34   S    
C32   C48   S    
C84   O32   D    
C2    C6    A    
C37   C38   A    
C4    C7    A    
O19   Zn2   S    
C12   O19   A    
C21   C50   S    
C17   C18   A    
C90   O38   D    
C2    C45   A    
C38   C39   A    
C85   H32   S    
C35   O35   S    
C15   C16   A    
C95   H48   S    
C80   H23   S    
C83   H30   S    
C61   C90   S    
C24   C25   A    
C44   O24   A    
C96   H52   S    
C93   H46   S    
C99   H58   S    
C88   H39   S    
C57   C92   S    
C68   C69   A    
C77   H18   S    
O13   Zn6   S    
O4    Zn4   S    
C25   C26   A    
C98   H57   S    
C29   C34   S    
C47   O5    A    
O10   Zn6   S    
C30   C82   S    
O44   C96   S    
C60   C61   A    
C35   C36   A    
C55   H9    S    
C11   C78   S    
C75   C76   A    
C78   O26   D    
C73   H12   S    
C29   C30   A    
C86   H35   S    
C46   O3    A    
C30   C31   A    
C51   O14   A    
O24   Zn3   S    
C41   H5    S    
C87   H38   S    
C62   C63   A    
C9    O25   S    
C26   C27   A    
C69   C74   A    
C8    H15   S    
C33   C39   A    
C81   H25   S    
C3    C76   A    
O1    Zn1   S    
C47   C71   S    
O33   C85   S    
C70   C71   A    
C91   H42   S    
C50   O11   A    
C1    O1    A    
C77   H16   S    
C55   C57   A    
C19   C99   S    
C97   H56   S    
C22   C24   A    
C96   H51   S    
C67   C75   A    
C42   C43   A    
C3    C4    A    
O16   Zn5   S    
C37   C89   S    
C31   O33   S    
O11   Zn5   S    
O35   C87   S    
C58   C63   A    
C82   O30   D    
C48   O8    A    
C54   C55   A    
C36   C37   A    
C83   H29   S    
C27   C32   A    
C31   C32   A    
C4    C5    A    
C79   H21   S    
C81   H24   S    
C53   C54   A    
C78   H19   S    
C34   O23   A    
C56   C67   A    
C23   O20   A    
C3    C46   S    
C26   H3    S    
C47   O6    A    
C97   H54   S    
C25   C84   S    
O21   Zn2   S    
C53   H7    S    
C64   C65   A    
C93   H45   S    
O27   C79   S    
C58   C59   A    
C95   H50   S    
C72   O41   S    
C5    C10   A    
C24   O31   S    
C79   H20   S    
C49   O9    A    
C49   O10   A    
C11   C13   A    
C57   C58   A    
C15   H1    S    
C22   H2    S    
C89   O37   D    
C44   C60   S    
C51   O15   A    
C66   O43   S    
O15   Zn6   S    
O6    Zn4   S    
C33   C35   A    
C68   O44   S    
C48   O7    A    
C36   C88   S    
C61   C62   A    
C94   O42   D    
O23   Zn2   S    
O29   C81   S    
O8    Zn4   S    
C92   H43   S    
C39   C40   A    
C33   C86   S    
C38   C43   A    
C71   C72   A    
C20   C21   A    
C94   H47   S    
C99   O47   D    
C65   C66   A    
C89   H40   S    
C27   C28   A    
C14   C15   A    
C52   O17   A    
C40   C41   A    
O2    Zn4   S    
O25   C77   S    
C98   O46   D    
C82   H27   S    
C92   O40   D    
