data_mof_unit_38879.cif
_audit_creation_date              2013-03-05T15:46:16-0500
_audit_creation_method            fapswitch 2.2
_symmetry_space_group_name_H-M    P1
_symmetry_Int_Tables_number       1
_space_group_crystal_system       triclinic
_cell_length_a                    22.045094
_cell_length_b                    22.051106
_cell_length_c                    22.042821
_cell_angle_alpha                 90.163671
_cell_angle_beta                  89.892369
_cell_angle_gamma                 90.116877
_cell_volume                      10715.3427864

loop_
_atom_site_label
_atom_site_type_symbol
_atom_site_description
_atom_site_fract_x
_atom_site_fract_y
_atom_site_fract_z
_atom_type_partial_charge
O1    O     O_R   0.552210 0.090180 0.999970 -0.575427
O2    O     O_R   0.000030 0.090180 0.552210 -0.569715
O3    O     O_R   0.447790 0.090180 0.000030 -0.575940
O4    O     O_R   0.999970 0.090180 0.447790 -0.570729
O5    O     O_R   0.552210 0.909820 0.000030 -0.575928
O6    O     O_R   0.000030 0.909820 0.447790 -0.569113
O7    O     O_R   0.447790 0.909820 0.999970 -0.575838
O8    O     O_R   0.999970 0.909820 0.552210 -0.570692
O9    O     O_R   0.909820 0.000030 0.552210 -0.575652
O10   O     O_R   0.909820 0.447790 0.000030 -0.570128
O11   O     O_R   0.909820 0.999970 0.447790 -0.574634
O12   O     O_R   0.909820 0.552210 0.999970 -0.569978
O13   O     O_R   0.090180 0.999970 0.552210 -0.575642
O14   O     O_R   0.090180 0.552210 0.000030 -0.569340
O15   O     O_R   0.090180 0.000030 0.447790 -0.576480
O16   O     O_R   0.090180 0.447790 0.999970 -0.571437
O17   O     O_R   0.999970 0.447790 0.909820 -0.575514
O18   O     O_R   0.552210 0.999970 0.909820 -0.569842
O19   O     O_R   0.000030 0.552210 0.909820 -0.575880
O20   O     O_R   0.447790 0.000030 0.909820 -0.570647
O21   O     O_R   0.000030 0.447790 0.090180 -0.576561
O22   O     O_R   0.447790 0.999970 0.090180 -0.570121
O23   O     O_R   0.999970 0.552210 0.090180 -0.574999
O24   O     O_R   0.552210 0.000030 0.090180 -0.570453
O25   O     O_R   0.052210 0.590180 0.499970 -0.566731
O26   O     O_R   0.500030 0.590180 0.052210 -0.569461
O27   O     O_R   0.947790 0.590180 0.500030 -0.598358
O28   O     O_R   0.499970 0.590180 0.947790 -0.571173
O29   O     O_R   0.052210 0.409820 0.500030 -0.574019
O30   O     O_R   0.500030 0.409820 0.947790 -0.569674
O31   O     O_R   0.947790 0.409820 0.499970 -0.573822
O32   O     O_R   0.499970 0.409820 0.052210 -0.570617
O33   O     O_R   0.409820 0.500030 0.052210 -0.575474
O34   O     O_R   0.409820 0.947790 0.500030 -0.569658
O35   O     O_R   0.409820 0.499970 0.947790 -0.575977
O36   O     O_R   0.409820 0.052210 0.499970 -0.570706
O37   O     O_R   0.590180 0.499970 0.052210 -0.575875
O38   O     O_R   0.590180 0.052210 0.500030 -0.570229
O39   O     O_R   0.590180 0.500030 0.947790 -0.575846
O40   O     O_R   0.590180 0.947790 0.499970 -0.569668
O41   O     O_R   0.499970 0.947790 0.409820 -0.575490
O42   O     O_R   0.052210 0.499970 0.409820 -0.558780
O43   O     O_R   0.500030 0.052210 0.409820 -0.576066
O44   O     O_R   0.947790 0.500030 0.409820 -0.580425
O45   O     O_R   0.500030 0.947790 0.590180 -0.575939
O46   O     O_R   0.947790 0.499970 0.590180 -0.567017
O47   O     O_R   0.499970 0.052210 0.590180 -0.575761
O48   O     O_R   0.052210 0.500030 0.590180 -0.568427
C1    C     C_R   0.500030 0.118649 0.000041 0.886800
C2    C     C_R   0.999969 0.118609 0.500073 0.918095
C3    C     C_R   0.499918 0.881349 0.999990 0.887266
C4    C     C_R   0.000025 0.881388 0.499914 0.915401
C5    C     C_R   0.881350 0.000044 0.500039 0.885634
C6    C     C_R   0.881400 0.499969 0.000180 0.917456
C7    C     C_R   0.118645 0.000029 0.499945 0.887163
C8    C     C_R   0.118602 0.500079 0.999855 0.919420
C9    C     C_R   0.000018 0.499955 0.881355 0.886553
C10   C     C_R   0.500051 0.000064 0.881396 0.918326
C11   C     C_R   0.000090 0.500213 0.118644 0.887527
C12   C     C_R   0.499962 0.999894 0.118605 0.918599
C13   C     C_R   0.000041 0.618638 0.499787 0.812039
C14   C     C_R   0.499774 0.618607 0.000089 0.918504
C15   C     C_R   0.999970 0.381353 0.499924 0.891921
C16   C     C_R   0.500003 0.381394 0.999930 0.918392
C17   C     C_R   0.381351 0.499985 0.000017 0.886348
C18   C     C_R   0.381397 0.999936 0.499884 0.917855
C19   C     C_R   0.618650 0.500084 0.999973 0.888030
C20   C     C_R   0.618597 0.000050 0.500030 0.918301
C21   C     C_R   0.500044 0.999932 0.381359 0.886486
C22   C     C_R   0.000347 0.501275 0.381420 0.872516
C23   C     C_R   0.499961 0.000075 0.618641 0.887355
C24   C     C_R   0.999965 0.499927 0.618600 0.923556
Cu1   Cu    Cu3+1 0.561820 0.000000 0.000000 1.040374
Cu2   Cu    Cu3+1 0.000000 0.000000 0.561820 1.040502
Cu3   Cu    Cu3+1 0.438180 0.000000 0.000000 1.040321
Cu4   Cu    Cu3+1 0.000000 0.000000 0.438180 1.041701
Cu5   Cu    Cu3+1 1.000000 0.438180 0.000000 1.041287
Cu6   Cu    Cu3+1 1.000000 0.561820 0.000000 1.039935
Cu7   Cu    Cu3+1 0.061820 0.500000 0.500000 1.038442
Cu8   Cu    Cu3+1 0.500000 0.500000 0.061820 1.040129
Cu9   Cu    Cu3+1 0.938180 0.500000 0.500000 1.032994
Cu10  Cu    Cu3+1 0.500000 0.500000 0.938180 1.040294
Cu11  Cu    Cu3+1 0.500000 0.938180 0.500000 1.040935
Cu12  Cu    Cu3+1 0.500000 0.061820 0.500000 1.040217
C25   C     C_R   0.446804 0.897508 0.810941 -0.013275
C26   C     C_R   0.187814 0.926387 0.412005 0.018487
C27   C     C_R   0.553198 0.897419 0.188524 -0.012841
C28   C     C_R   0.811700 0.926229 0.587255 0.021250
C29   C     C_R   0.446663 0.102193 0.189283 -0.013339
C30   C     C_R   0.187999 0.073740 0.587572 0.019331
C31   C     C_R   0.553546 0.102606 0.811331 -0.013749
C32   C     C_R   0.812314 0.073991 0.412928 0.020270
C33   C     C_R   0.102701 0.188829 0.447016 -0.013642
C34   C     C_R   0.072076 0.590280 0.187068 0.016484
C35   C     C_R   0.102793 0.811349 0.552425 -0.015147
C36   C     C_R   0.073804 0.412664 0.811684 0.019109
C37   C     C_R   0.896785 0.810819 0.448397 -0.014260
C38   C     C_R   0.926313 0.413634 0.188325 0.020622
C39   C     C_R   0.897491 0.188859 0.553599 -0.014267
C40   C     C_R   0.926346 0.587359 0.812361 0.019749
C41   C     C_R   0.810995 0.553422 0.102906 -0.014219
C42   C     C_R   0.411697 0.812173 0.073349 0.018009
C43   C     C_R   0.188612 0.447819 0.102646 -0.011089
C44   C     C_R   0.587390 0.188391 0.073775 0.019272
C45   C     C_R   0.189223 0.553555 0.897597 -0.013463
C46   C     C_R   0.587383 0.811874 0.926268 0.019477
C47   C     C_R   0.811255 0.446681 0.897479 -0.013644
C48   C     C_R   0.412600 0.187557 0.926350 0.019812
C49   C     C_R   0.947867 0.398172 0.311094 -0.009097
C50   C     C_R   0.687979 0.426587 0.912080 0.018650
C51   C     C_R   0.053269 0.397538 0.688539 -0.013381
C52   C     C_R   0.311533 0.426052 0.087050 0.019425
C53   C     C_R   0.946816 0.602359 0.689195 -0.015195
C54   C     C_R   0.687872 0.573453 0.088091 0.019236
C55   C     C_R   0.060699 0.600678 0.311209 -0.023912
C56   C     C_R   0.312413 0.573809 0.912713 0.020406
C57   C     C_R   0.602489 0.688929 0.947173 -0.012618
C58   C     C_R   0.573514 0.088015 0.687995 0.018641
C59   C     C_R   0.602471 0.311459 0.053114 -0.012896
C60   C     C_R   0.573861 0.912530 0.311675 0.018768
C61   C     C_R   0.397701 0.310758 0.946433 -0.013890
C62   C     C_R   0.426265 0.912477 0.687882 0.019452
C63   C     C_R   0.397071 0.688858 0.053550 -0.014681
C64   C     C_R   0.426216 0.087071 0.312415 0.020183
C65   C     C_R   0.311057 0.053191 0.602527 -0.013073
C66   C     C_R   0.912109 0.312155 0.573463 0.018811
C67   C     C_R   0.688610 0.946882 0.602458 -0.012172
C68   C     C_R   0.087744 0.688321 0.572921 0.020845
C69   C     C_R   0.689161 0.053474 0.397746 -0.013204
C70   C     C_R   0.088175 0.311934 0.426636 0.017451
C71   C     C_R   0.311159 0.946115 0.397407 -0.013428
C72   C     C_R   0.910571 0.687913 0.427519 0.049646
C73   C     C_R   0.422631 0.849649 0.776558 0.243972
C74   C     C_R   0.215399 0.911992 0.356475 0.227032
C75   C     C_R   0.577777 0.849800 0.222568 0.244464
C76   C     C_R   0.783996 0.911629 0.642589 0.226508
C77   C     C_R   0.422502 0.149921 0.223799 0.243666
C78   C     C_R   0.215485 0.088147 0.643035 0.227372
C79   C     C_R   0.577524 0.150594 0.777169 0.244422
C80   C     C_R   0.784880 0.088581 0.357595 0.227196
C81   C     C_R   0.150704 0.223019 0.422974 0.245180
C82   C     C_R   0.085091 0.645980 0.214880 0.224662
C83   C     C_R   0.150632 0.777222 0.576466 0.244969
C84   C     C_R   0.088376 0.357325 0.783937 0.226828
C85   C     C_R   0.847569 0.776329 0.427361 0.227447
C86   C     C_R   0.911864 0.358201 0.215667 0.228156
C87   C     C_R   0.849457 0.223116 0.577436 0.244388
C88   C     C_R   0.912032 0.642767 0.784984 0.227421
C89   C     C_R   0.776560 0.577037 0.151080 0.238607
C90   C     C_R   0.356134 0.784604 0.087474 0.228161
C91   C     C_R   0.222585 0.422616 0.149993 0.244554
C92   C     C_R   0.642704 0.216162 0.088366 0.226657
C93   C     C_R   0.223699 0.577727 0.849868 0.243616
C94   C     C_R   0.642822 0.784382 0.911863 0.227165
C95   C     C_R   0.777042 0.422749 0.849433 0.244293
C96   C     C_R   0.357141 0.214904 0.912071 0.227107
C97   C     C_R   0.923063 0.350583 0.276770 0.240535
C98   C     C_R   0.715654 0.412288 0.856607 0.227247
C99   C     C_R   0.077701 0.349888 0.722628 0.244462
C100  C     C_R   0.283731 0.411285 0.142305 0.226223
C101  C     C_R   0.922650 0.650124 0.723660 0.243148
C102  C     C_R   0.715232 0.587506 0.143699 0.229161
C103  C     C_R   0.078756 0.651200 0.277077 0.257731
C104  C     C_R   0.285058 0.588201 0.857276 0.226952
C105  C     C_R   0.650270 0.723199 0.922773 0.244199
C106  C     C_R   0.587899 0.143437 0.715745 0.226928
C107  C     C_R   0.650129 0.277399 0.077579 0.244566
C108  C     C_R   0.588544 0.857244 0.283865 0.226789
C109  C     C_R   0.349852 0.276274 0.922455 0.243523
C110  C     C_R   0.411932 0.857013 0.715294 0.227268
C111  C     C_R   0.348908 0.723147 0.077224 0.244124
C112  C     C_R   0.411906 0.142518 0.285119 0.226893
C113  C     C_R   0.276750 0.077459 0.650392 0.243905
C114  C     C_R   0.856631 0.284527 0.587766 0.227426
C115  C     C_R   0.722731 0.922397 0.650074 0.244600
C116  C     C_R   0.143183 0.715980 0.587234 0.222516
C117  C     C_R   0.723587 0.077879 0.350115 0.244153
C118  C     C_R   0.143541 0.284262 0.412318 0.226896
C119  C     C_R   0.276904 0.922118 0.349394 0.243311
C120  C     C_R   0.854269 0.714897 0.416765 0.264422
C121  C     C_R   0.465883 0.954948 0.717925 0.004180
C122  C     C_R   0.282149 0.971181 0.450619 0.014989
C123  C     C_R   0.534155 0.954760 0.281855 0.003279
C124  C     C_R   0.717708 0.971598 0.549233 0.016216
C125  C     C_R   0.465843 0.044828 0.282201 0.004514
C126  C     C_R   0.282122 0.028430 0.549178 0.015203
C127  C     C_R   0.534049 0.045432 0.718005 0.003194
C128  C     C_R   0.717981 0.028708 0.450962 0.014576
C129  C     C_R   0.045397 0.282008 0.466047 0.003777
C130  C     C_R   0.031747 0.549144 0.282241 0.021676
C131  C     C_R   0.045432 0.718095 0.533244 0.018557
C132  C     C_R   0.028496 0.450746 0.717680 0.014727
C133  C     C_R   0.954561 0.717826 0.465830 -0.031121
C134  C     C_R   0.972537 0.451569 0.282223 0.022895
C135  C     C_R   0.954703 0.282069 0.534019 0.003767
C136  C     C_R   0.971484 0.549104 0.718003 0.015138
C137  C     C_R   0.717939 0.534055 0.045429 0.004282
C138  C     C_R   0.450396 0.717850 0.028695 0.014637
C139  C     C_R   0.281813 0.465958 0.044970 0.002945
C140  C     C_R   0.549240 0.282319 0.028395 0.014942
C141  C     C_R   0.282197 0.534240 0.954944 0.004976
C142  C     C_R   0.549081 0.717859 0.971750 0.015194
C143  C     C_R   0.718003 0.466055 0.954724 0.003073
C144  C     C_R   0.450905 0.281975 0.971293 0.014537
C145  C     C_R   0.966429 0.455777 0.218165 0.001278
C146  C     C_R   0.782207 0.471495 0.950800 0.014842
C147  C     C_R   0.034124 0.454877 0.781844 0.003956
C148  C     C_R   0.217721 0.471962 0.049221 0.015353
C149  C     C_R   0.965909 0.545018 0.782176 0.004845
C150  C     C_R   0.782105 0.528552 0.049518 0.015645
C151  C     C_R   0.034496 0.546413 0.217693 0.005587
C152  C     C_R   0.218019 0.528757 0.950811 0.014328
C153  C     C_R   0.544949 0.781961 0.965971 0.003814
C154  C     C_R   0.528653 0.049376 0.782228 0.014471
C155  C     C_R   0.545122 0.218177 0.034084 0.003546
C156  C     C_R   0.528484 0.950635 0.217688 0.014909
C157  C     C_R   0.454960 0.217794 0.965858 0.004633
C158  C     C_R   0.471544 0.950833 0.782065 0.014868
C159  C     C_R   0.454367 0.782067 0.034024 0.003836
C160  C     C_R   0.471404 0.048951 0.218040 0.014396
C161  C     C_R   0.217986 0.034093 0.545083 0.004039
C162  C     C_R   0.950747 0.217862 0.528677 0.014632
C163  C     C_R   0.781858 0.965950 0.545090 0.004653
C164  C     C_R   0.049513 0.782246 0.527753 0.012678
C165  C     C_R   0.782151 0.034298 0.455101 0.005020
C166  C     C_R   0.049383 0.217851 0.471681 0.015208
C167  C     C_R   0.217936 0.965842 0.454583 0.003864
C168  C     C_R   0.950562 0.781987 0.471829 0.028316
C169  C     C_R   0.499925 0.000203 0.685882 -0.124388
C170  C     C_R   0.314384 0.999796 0.499905 -0.062012
C171  C     C_R   0.500010 0.999810 0.314116 -0.124040
C172  C     C_R   0.685597 0.000153 0.500095 -0.061903
C173  C     C_R   0.999972 0.314120 0.499923 -0.126663
C174  C     C_R   0.001787 0.500538 0.314460 -0.052275
C175  C     C_R   0.000168 0.685839 0.499284 -0.119817
C176  C     C_R   0.999923 0.499887 0.685597 -0.064889
C177  C     C_R   0.685894 0.500119 0.999992 -0.124767
C178  C     C_R   0.499778 0.685609 0.000280 -0.062043
C179  C     C_R   0.314105 0.500050 0.999983 -0.124519
C180  C     C_R   0.500091 0.314394 0.999793 -0.062226
C181  C     C_R   0.000255 0.500910 0.185896 -0.125007
C182  C     C_R   0.814400 0.499968 0.000192 -0.062394
C183  C     C_R   0.999992 0.499919 0.814103 -0.124353
C184  C     C_R   0.185614 0.500332 0.999993 -0.061534
C185  C     C_R   0.499710 0.814101 0.999976 -0.124434
C186  C     C_R   0.500140 0.000073 0.814390 -0.062055
C187  C     C_R   0.500048 0.185896 0.999999 -0.124294
C188  C     C_R   0.499896 0.999786 0.185613 -0.062130
C189  C     C_R   0.185885 0.000023 0.499831 -0.124690
C190  C     C_R   0.000055 0.185618 0.500204 -0.062220
C191  C     C_R   0.814098 0.000112 0.500096 -0.125369
C192  C     C_R   0.000147 0.814372 0.499656 -0.058405
N1    N     N_R   0.599599 0.203979 0.807032 0.160561
O49   O     O_R   0.561745 0.243400 0.829357 -0.316500
O50   O     O_R   0.657679 0.211838 0.813902 -0.236689
N2    N     N_R   0.181299 0.113870 0.692385 0.162407
O51   O     O_R   0.150068 0.163151 0.685031 -0.232768
O52   O     O_R   0.185029 0.090371 0.746331 -0.209903
N3    N     N_R   0.400385 0.203227 0.194339 0.161286
O53   O     O_R   0.438209 0.243083 0.172700 -0.313224
O54   O     O_R   0.342334 0.210386 0.186824 -0.235112
N4    N     N_R   0.819138 0.114591 0.308530 0.162229
O55   O     O_R   0.850435 0.163911 0.316424 -0.233818
O56   O     O_R   0.815383 0.091350 0.254335 -0.209740
N5    N     N_R   0.599840 0.796477 0.192634 0.159690
O57   O     O_R   0.561986 0.756627 0.170950 -0.316411
O58   O     O_R   0.657917 0.788729 0.185676 -0.237400
N6    N     N_R   0.181118 0.887155 0.306707 0.164604
O59   O     O_R   0.146837 0.839751 0.313933 -0.237493
O60   O     O_R   0.186735 0.910250 0.252720 -0.208100
N7    N     N_R   0.400741 0.796155 0.806122 0.160487
O61   O     O_R   0.438740 0.756846 0.828030 -0.314588
O62   O     O_R   0.342674 0.787903 0.812831 -0.234444
N8    N     N_R   0.817946 0.885570 0.691651 0.162326
O63   O     O_R   0.849308 0.836409 0.683678 -0.234296
O64   O     O_R   0.813964 0.908687 0.745891 -0.209562
N9    N     N_R   0.796028 0.193375 0.599489 0.160595
O65   O     O_R   0.756666 0.170950 0.561613 -0.316282
O66   O     O_R   0.788084 0.186697 0.657578 -0.236284
N10   N     N_R   0.885503 0.309183 0.181510 0.162276
O67   O     O_R   0.835810 0.316957 0.151024 -0.232905
O68   O     O_R   0.908803 0.255111 0.184622 -0.209458
N11   N     N_R   0.793778 0.806044 0.406803 0.164427
O69   O     O_R   0.754210 0.826005 0.445878 -0.312076
O70   O     O_R   0.788462 0.819914 0.349746 -0.248311
N12   N     N_R   0.886416 0.692038 0.819316 0.162404
O71   O     O_R   0.837281 0.684491 0.850987 -0.233763
O72   O     O_R   0.909895 0.746076 0.815357 -0.210277
N13   N     N_R   0.204012 0.807067 0.598453 0.161202
O73   O     O_R   0.243772 0.828726 0.560525 -0.315940
O74   O     O_R   0.211285 0.815014 0.656489 -0.237522
N14   N     N_R   0.107437 0.696753 0.180582 0.161438
O75   O     O_R   0.156182 0.692019 0.147693 -0.231993
O76   O     O_R   0.082417 0.749766 0.187164 -0.213419
N15   N     N_R   0.204155 0.193274 0.401137 0.160887
O77   O     O_R   0.243534 0.171557 0.439189 -0.314943
O78   O     O_R   0.211946 0.185611 0.343110 -0.236273
N16   N     N_R   0.114254 0.308188 0.817892 0.162769
O79   O     O_R   0.163287 0.316023 0.849516 -0.234271
O80   O     O_R   0.091064 0.254024 0.813719 -0.209267
N17   N     N_R   0.806834 0.400779 0.795963 0.160499
O81   O     O_R   0.829016 0.438698 0.756570 -0.316027
O82   O     O_R   0.813794 0.342734 0.788004 -0.236691
N18   N     N_R   0.692041 0.818479 0.885865 0.162093
O83   O     O_R   0.684518 0.849266 0.836339 -0.232635
O84   O     O_R   0.746046 0.815020 0.909318 -0.210065
N19   N     N_R   0.194201 0.599915 0.796559 0.160078
O85   O     O_R   0.172167 0.562176 0.756780 -0.314794
O86   O     O_R   0.188114 0.658024 0.788699 -0.233174
N20   N     N_R   0.307752 0.180511 0.886753 0.162756
O87   O     O_R   0.315174 0.148346 0.837888 -0.234082
O88   O     O_R   0.253743 0.184802 0.910280 -0.210104
N21   N     N_R   0.192644 0.400636 0.203311 0.159916
O89   O     O_R   0.172048 0.438503 0.243735 -0.316457
O90   O     O_R   0.184353 0.342659 0.210348 -0.237264
N22   N     N_R   0.306534 0.818928 0.112374 0.163396
O91   O     O_R   0.313388 0.850908 0.161444 -0.232599
O92   O     O_R   0.252857 0.814718 0.088248 -0.209476
N23   N     N_R   0.805996 0.598369 0.205029 0.158704
O93   O     O_R   0.828667 0.559983 0.243508 -0.306854
O94   O     O_R   0.808571 0.656227 0.216440 -0.222136
N24   N     N_R   0.691792 0.182317 0.114500 0.162078
O95   O     O_R   0.683902 0.151242 0.163835 -0.233813
O96   O     O_R   0.745994 0.186220 0.091339 -0.209812
N25   N     N_R   0.101824 0.704161 0.306969 0.162609
O97   O     O_R   0.065734 0.738389 0.338835 -0.323597
O98   O     O_R   0.159792 0.715306 0.306241 -0.229788
N26   N     N_R   0.680809 0.612703 0.193140 0.161749
O99   O     O_R   0.650191 0.662454 0.186316 -0.231860
O100  O     O_R   0.683941 0.588350 0.246742 -0.211856
N27   N     N_R   0.900591 0.703442 0.694152 0.160296
O101  O     O_R   0.938451 0.743191 0.672379 -0.314632
O102  O     O_R   0.842517 0.710989 0.687191 -0.234710
N28   N     N_R   0.319453 0.613667 0.808004 0.162801
O103  O     O_R   0.351564 0.662502 0.815643 -0.234311
O104  O     O_R   0.315262 0.590275 0.753904 -0.210263
N29   N     N_R   0.099852 0.296596 0.692726 0.160116
O105  O     O_R   0.062061 0.256843 0.670752 -0.315962
O106  O     O_R   0.157963 0.288890 0.685925 -0.235727
N30   N     N_R   0.681579 0.386785 0.807116 0.162356
O107  O     O_R   0.649896 0.337618 0.814283 -0.232917
O108  O     O_R   0.685864 0.410360 0.753222 -0.210108
N31   N     N_R   0.901209 0.297064 0.306310 0.160214
O109  O     O_R   0.939226 0.257072 0.326915 -0.312609
O110  O     O_R   0.843230 0.289534 0.314439 -0.235654
N32   N     N_R   0.317547 0.384770 0.191208 0.162565
O111  O     O_R   0.348676 0.335518 0.182928 -0.234288
O112  O     O_R   0.313823 0.407675 0.245556 -0.210117
N33   N     N_R   0.295167 0.693498 0.098869 0.156400
O113  O     O_R   0.256360 0.670586 0.060710 -0.319975
O114  O     O_R   0.284492 0.690585 0.156850 -0.232738
N34   N     N_R   0.386239 0.807686 0.681046 0.162280
O115  O     O_R   0.336952 0.815046 0.649793 -0.233028
O116  O     O_R   0.409775 0.753755 0.684734 -0.209972
N35   N     N_R   0.296530 0.305761 0.900313 0.160532
O117  O     O_R   0.256943 0.328005 0.938116 -0.314442
O118  O     O_R   0.288681 0.311988 0.842190 -0.233778
N36   N     N_R   0.386345 0.191781 0.319510 0.162475
O119  O     O_R   0.337387 0.184182 0.351438 -0.234044
O120  O     O_R   0.409745 0.245845 0.315442 -0.210404
N37   N     N_R   0.703427 0.307296 0.099667 0.161238
O121  O     O_R   0.743420 0.328645 0.061809 -0.314291
O122  O     O_R   0.710288 0.315778 0.157672 -0.237225
N38   N     N_R   0.613363 0.192908 0.681706 0.162527
O123  O     O_R   0.662364 0.185666 0.649752 -0.233329
O124  O     O_R   0.589877 0.246829 0.686207 -0.210119
N39   N     N_R   0.703773 0.693563 0.900900 0.160424
O125  O     O_R   0.743344 0.672129 0.938913 -0.314545
O126  O     O_R   0.711702 0.686183 0.842856 -0.235428
N40   N     N_R   0.614535 0.808124 0.317775 0.162536
O127  O     O_R   0.663608 0.815992 0.349339 -0.234239
O128  O     O_R   0.591356 0.753951 0.313671 -0.209308
N41   N     N_R   0.306716 0.899847 0.296043 0.159761
O129  O     O_R   0.329774 0.937520 0.256910 -0.317305
O130  O     O_R   0.311734 0.841698 0.287311 -0.234674
N42   N     N_R   0.192912 0.318219 0.386432 0.161169
O131  O     O_R   0.185723 0.348540 0.336559 -0.231875
O132  O     O_R   0.246795 0.314784 0.410164 -0.211111
N43   N     N_R   0.694063 0.100006 0.296809 0.160594
O133  O     O_R   0.672423 0.062205 0.256871 -0.313902
O134  O     O_R   0.686941 0.158064 0.289461 -0.234632
N44   N     N_R   0.804460 0.680847 0.391504 0.168324
O135  O     O_R   0.812154 0.645709 0.344702 -0.202950
O136  O     O_R   0.750202 0.686823 0.414067 -0.217053
N45   N     N_R   0.692882 0.900296 0.703376 0.160639
O137  O     O_R   0.671375 0.938114 0.743367 -0.315163
O138  O     O_R   0.685108 0.842264 0.710543 -0.236356
N46   N     N_R   0.807146 0.318661 0.613161 0.162580
O139  O     O_R   0.814338 0.350569 0.662226 -0.233132
O140  O     O_R   0.753240 0.314236 0.589585 -0.209932
N47   N     N_R   0.306386 0.099418 0.703891 0.160051
O141  O     O_R   0.328438 0.061490 0.743182 -0.315326
O142  O     O_R   0.312656 0.157501 0.712370 -0.234032
N48   N     N_R   0.192254 0.682083 0.613334 0.162333
O143  O     O_R   0.184474 0.651358 0.662915 -0.233776
O144  O     O_R   0.246393 0.685780 0.589995 -0.210767
N49   N     N_3   0.443094 0.891161 0.875189 -0.538361
H1    H     H_    0.397177 0.890494 0.887277 0.271255
H2    H     H_    0.461233 0.849475 0.887579 0.253207
N50   N     N_3   0.132587 0.895614 0.427314 -0.552732
H3    H     H_    0.100707 0.903098 0.393146 0.294852
H4    H     H_    0.141387 0.849081 0.429291 0.267767
N51   N     N_3   0.556201 0.890836 0.124263 -0.539447
H5    H     H_    0.601986 0.890163 0.111687 0.271436
H6    H     H_    0.537797 0.849044 0.112135 0.252864
N52   N     N_3   0.866838 0.895513 0.571783 -0.554297
H7    H     H_    0.898495 0.902473 0.606351 0.292752
H8    H     H_    0.857722 0.849037 0.569021 0.265547
N53   N     N_3   0.443058 0.108649 0.125049 -0.538304
H9    H     H_    0.397163 0.109087 0.113052 0.271875
H10   H     H_    0.461160 0.150466 0.112699 0.252875
N54   N     N_3   0.132926 0.104538 0.572368 -0.553480
H11   H     H_    0.101138 0.097548 0.606890 0.293050
H12   H     H_    0.142071 0.151018 0.569925 0.266696
N55   N     N_3   0.557511 0.108778 0.875581 -0.537796
H13   H     H_    0.603470 0.109490 0.887334 0.271484
H14   H     H_    0.539323 0.150411 0.888377 0.252838
N56   N     N_3   0.867552 0.104659 0.428370 -0.554121
H15   H     H_    0.899227 0.097756 0.393716 0.292993
H16   H     H_    0.858644 0.151136 0.431245 0.265557
N57   N     N_3   0.108919 0.124594 0.443260 -0.538347
H17   H     H_    0.109590 0.112502 0.397329 0.271600
H18   H     H_    0.150591 0.112125 0.461417 0.252963
N58   N     N_3   0.103236 0.576022 0.131715 -0.549580
H19   H     H_    0.095030 0.610234 0.100079 0.294391
H20   H     H_    0.149823 0.575133 0.140522 0.266074
N59   N     N_3   0.109059 0.875585 0.556292 -0.538099
H21   H     H_    0.109513 0.887594 0.602246 0.271804
H22   H     H_    0.150874 0.888139 0.538242 0.253063
N60   N     N_3   0.104500 0.428082 0.866877 -0.554291
H23   H     H_    0.097490 0.393547 0.898506 0.293204
H24   H     H_    0.151003 0.430822 0.857827 0.265806
N61   N     N_3   0.891388 0.874963 0.442516 -0.535169
H25   H     H_    0.890782 0.885216 0.396213 0.275313
H26   H     H_    0.849879 0.888721 0.460379 0.251789
N62   N     N_3   0.895136 0.429204 0.133562 -0.555106
H27   H     H_    0.901604 0.394710 0.101608 0.292715
H28   H     H_    0.848745 0.431934 0.143130 0.266747
N63   N     N_3   0.891374 0.124643 0.557819 -0.537566
H29   H     H_    0.890715 0.113113 0.603827 0.271457
H30   H     H_    0.849735 0.111721 0.539708 0.252786
N64   N     N_3   0.895468 0.572002 0.867493 -0.553343
H31   H     H_    0.902487 0.606524 0.899304 0.293355
H32   H     H_    0.848982 0.569416 0.858475 0.266069
N65   N     N_3   0.875225 0.558245 0.108768 -0.536767
H33   H     H_    0.886521 0.604350 0.109373 0.270343
H34   H     H_    0.888323 0.540370 0.150356 0.254401
N66   N     N_3   0.426846 0.867413 0.104252 -0.552906
H35   H     H_    0.392458 0.899109 0.096995 0.293492
H36   H     H_    0.428974 0.858524 0.150772 0.266332
N67   N     N_3   0.124408 0.446521 0.109931 -0.542490
H37   H     H_    0.110704 0.401082 0.111149 0.271862
H38   H     H_    0.113413 0.465594 0.151754 0.252034
N68   N     N_3   0.572087 0.133202 0.104433 -0.553678
H39   H     H_    0.606720 0.101635 0.097452 0.292843
H40   H     H_    0.569277 0.142265 0.150941 0.266093
N69   N     N_3   0.124989 0.557265 0.891230 -0.538728
H41   H     H_    0.113068 0.603165 0.890774 0.271440
H42   H     H_    0.112525 0.539102 0.849433 0.252992
N70   N     N_3   0.572147 0.866886 0.895421 -0.553628
H43   H     H_    0.606709 0.898659 0.902319 0.292849
H44   H     H_    0.569578 0.857656 0.848939 0.266736
N71   N     N_3   0.875490 0.442710 0.891271 -0.537448
H45   H     H_    0.887219 0.396760 0.890545 0.271491
H46   H     H_    0.888248 0.460841 0.849616 0.252731
N72   N     N_3   0.428029 0.132443 0.895436 -0.553821
H47   H     H_    0.393584 0.100604 0.902513 0.293618
H48   H     H_    0.430510 0.141422 0.848941 0.265901
N73   N     N_3   0.945266 0.391232 0.375304 -0.532610
H49   H     H_    0.899538 0.390707 0.388111 0.272084
H50   H     H_    0.963217 0.349240 0.386920 0.251592
N74   N     N_3   0.632730 0.395727 0.927185 -0.552846
H51   H     H_    0.601104 0.402808 0.892679 0.293353
H52   H     H_    0.641684 0.349242 0.929503 0.266556
N75   N     N_3   0.056583 0.391036 0.624279 -0.539589
H53   H     H_    0.102426 0.390432 0.611911 0.271406
H54   H     H_    0.038278 0.349252 0.611979 0.253003
N76   N     N_3   0.366757 0.395461 0.071619 -0.554117
H55   H     H_    0.398311 0.402311 0.106306 0.292725
H56   H     H_    0.357722 0.348985 0.068571 0.265986
N77   N     N_3   0.943239 0.608754 0.624950 -0.532637
H57   H     H_    0.897346 0.609223 0.612943 0.271767
H58   H     H_    0.961380 0.650540 0.612541 0.255448
N78   N     N_3   0.632836 0.604380 0.072987 -0.552924
H59   H     H_    0.601003 0.597260 0.107444 0.292908
H60   H     H_    0.642023 0.650867 0.070820 0.266724
N79   N     N_3   0.080264 0.600126 0.373033 -0.534638
H61   H     H_    0.127637 0.597583 0.373349 0.273986
H62   H     H_    0.068388 0.640448 0.394771 0.241091
N80   N     N_3   0.367534 0.604635 0.928259 -0.554140
H63   H     H_    0.399377 0.597603 0.893791 0.293364
H64   H     H_    0.358546 0.651113 0.930872 0.265960
N81   N     N_3   0.609058 0.624704 0.943975 -0.539129
H65   H     H_    0.609817 0.612233 0.898145 0.271403
H66   H     H_    0.650806 0.612643 0.962240 0.252952
N82   N     N_3   0.604277 0.072900 0.632672 -0.552924
H67   H     H_    0.597120 0.107400 0.601093 0.293439
H68   H     H_    0.650793 0.070541 0.641539 0.266270
N83   N     N_3   0.609029 0.375699 0.056284 -0.538825
H69   H     H_    0.609549 0.388204 0.102107 0.272147
H70   H     H_    0.650885 0.387873 0.038066 0.252857
N84   N     N_3   0.604422 0.927836 0.366974 -0.553332
H71   H     H_    0.597358 0.893224 0.398512 0.293496
H72   H     H_    0.650944 0.930631 0.358042 0.266368
N85   N     N_3   0.391461 0.374970 0.942423 -0.537812
H73   H     H_    0.391015 0.386642 0.896451 0.271411
H74   H     H_    0.349714 0.387643 0.960509 0.253038
N86   N     N_3   0.395418 0.927699 0.632836 -0.553408
H75   H     H_    0.402421 0.893200 0.600998 0.293223
H76   H     H_    0.348928 0.930139 0.642001 0.266673
N87   N     N_3   0.391117 0.624646 0.057981 -0.538040
H77   H     H_    0.390258 0.613292 0.104030 0.269497
H78   H     H_    0.349597 0.611571 0.039718 0.253018
N88   N     N_3   0.395273 0.071539 0.367459 -0.554390
H79   H     H_    0.402217 0.105992 0.399356 0.293580
H80   H     H_    0.348804 0.068942 0.358362 0.265957
N89   N     N_3   0.375301 0.056781 0.608915 -0.538473
H81   H     H_    0.387479 0.102663 0.609668 0.271097
H82   H     H_    0.387647 0.038581 0.650594 0.253152
N90   N     N_3   0.927301 0.367393 0.604343 -0.553692
H83   H     H_    0.892829 0.399036 0.597246 0.293597
H84   H     H_    0.929633 0.358473 0.650846 0.266408
N91   N     N_3   0.624359 0.943756 0.609054 -0.539041
H85   H     H_    0.611861 0.897959 0.609597 0.272320
H86   H     H_    0.612217 0.962039 0.650913 0.252627
N92   N     N_3   0.072233 0.633489 0.604124 -0.547517
H87   H     H_    0.106691 0.601682 0.597377 0.292996
H88   H     H_    0.069567 0.642994 0.650555 0.264869
N93   N     N_3   0.624927 0.056845 0.391229 -0.538736
H89   H     H_    0.612772 0.102684 0.390825 0.271739
H90   H     H_    0.612666 0.038712 0.349358 0.252888
N94   N     N_3   0.073466 0.367190 0.395955 -0.548462
H91   H     H_    0.108188 0.398732 0.403159 0.293108
H92   H     H_    0.071060 0.358199 0.349416 0.267152
N95   N     N_3   0.375401 0.941966 0.391307 -0.537604
H93   H     H_    0.387031 0.895992 0.390518 0.270820
H94   H     H_    0.388309 0.960208 0.349749 0.253233
N96   N     N_3   0.924585 0.636321 0.390393 -0.491015
H95   H     H_    0.898648 0.599343 0.404544 0.288312
H96   H     H_    0.970273 0.626198 0.390695 0.210088

loop_
_geom_bond_atom_site_label_1
_geom_bond_atom_site_label_2
_geom_bond_distance
_ccdc_geom_bond_type
N24   O96   1.301282 A    
N59   H21   1.046321 S    
C155  C187  1.433690 A    
C26   C167  1.440162 A    
N69   H41   1.046304 S    
N94   H92   1.045695 S    
C63   C138  1.444756 A    
C45   N69   1.425799 S    
C99   N29   1.431970 S    
N29   O105  1.301244 A    
C86   C97   1.380567 A    
N73   H49   1.046388 S    
C6    C182  1.477036 S    
N51   H6    1.040587 S    
O21   C11   1.313705 A    
O11   Cu4   1.998884 S    
N49   H2    1.040575 S    
O22   C12   1.310769 A    
O36   C18   1.310865 A    
C122  C167  1.422767 A    
C73   N7    1.431741 S    
C105  N39   1.431769 S    
C30   N54   1.433098 S    
N7    O61   1.301210 A    
C140  C155  1.423001 A    
C103  N25   1.432153 S    
N8    O63   1.298285 A    
C5    C191  1.482587 S    
C32   N56   1.432812 S    
C39   C87   1.402481 A    
N84   H71   1.045078 S    
C68   N92   1.433225 S    
C66   C135  1.440132 A    
C26   C74   1.401648 A    
C129  C166  1.423423 A    
C62   C110  1.400968 A    
C54   C137  1.440062 A    
C75   C108  1.381557 A    
C7    C189  1.482303 S    
O44   C22   1.316166 A    
C74   C119  1.382314 A    
C141  C152  1.422778 A    
O46   C24   1.310776 A    
C66   C114  1.401062 A    
C160  C188  1.441364 A    
C39   C162  1.444181 A    
C165  C191  1.434226 A    
C88   N12   1.438141 S    
C95   C98   1.381224 A    
Cu1   Cu3   2.725658 S    
O40   Cu11  1.998856 S    
C39   N63   1.425470 S    
C134  C174  1.442648 A    
C87   N9    1.431870 S    
C141  C179  1.434533 A    
C90   N22   1.438212 S    
N20   O88   1.301297 A    
C86   N10   1.437834 S    
C54   N78   1.433231 S    
N71   H45   1.046320 S    
N30   O107  1.298370 A    
C150  C182  1.442686 A    
O44   Cu9   1.998685 S    
C56   N80   1.432807 S    
C82   C103  1.382330 A    
N89   H82   1.040526 S    
N17   O81   1.301222 A    
O28   Cu10  1.999217 S    
O26   Cu8   2.000418 S    
C24   C176  1.476817 S    
N22   O91   1.298423 A    
O30   Cu10  2.000423 S    
C73   C110  1.381411 A    
O32   Cu8   1.999217 S    
N35   O117  1.301220 A    
C64   C112  1.401053 A    
N71   H46   1.040541 S    
N34   O115  1.298330 A    
N21   O90   1.300777 A    
O8    Cu2   1.999217 S    
N79   H62   1.042476 S    
N10   O67   1.298169 A    
O47   C23   1.311243 A    
C36   N60   1.432986 S    
C48   C157  1.439524 A    
N26   O100  1.301263 A    
C126  C161  1.422689 A    
N6    O60   1.301336 A    
C32   C165  1.439590 A    
C49   N73   1.425081 S    
N81   H66   1.040596 S    
N52   H8    1.045598 S    
N16   O79   1.298297 A    
C59   C107  1.402271 A    
C92   C107  1.381144 A    
N62   H27   1.044990 S    
C60   C108  1.401229 A    
O41   C21   1.311367 A    
C120  N44   1.440867 S    
C52   C100  1.401359 A    
C37   C85   1.402541 A    
C157  C187  1.434491 A    
N3    O54   1.300722 A    
O7    Cu3   2.000250 S    
O33   Cu8   1.999678 S    
C126  C170  1.441940 A    
C156  C188  1.442416 A    
C31   N55   1.425213 S    
N66   H35   1.045015 S    
C44   C92   1.400966 A    
N14   O76   1.301224 A    
C33   N57   1.425491 S    
N12   O72   1.301288 A    
C83   N13   1.431763 S    
C55   C103  1.402681 A    
N65   H33   1.046284 S    
N60   H24   1.045665 S    
C16   C180  1.477433 S    
C89   N23   1.433517 S    
N48   O143  1.298431 A    
C53   C101  1.402341 A    
C36   C84   1.401061 A    
C127  C169  1.434201 A    
C37   C168  1.443512 A    
N94   H91   1.045257 S    
N90   H84   1.045695 S    
N72   H47   1.044926 S    
N13   O73   1.301228 A    
O5    C3    1.311532 A    
C89   C102  1.382016 A    
O6    C4    1.310458 A    
N53   H9    1.046313 S    
C47   C95   1.402556 A    
N45   O138  1.300765 A    
C40   N64   1.432908 S    
N23   O94   1.300852 A    
N57   H17   1.046325 S    
O45   C23   1.310994 A    
C37   N61   1.425967 S    
C49   C97   1.402614 A    
O34   C18   1.310662 A    
N40   O127  1.298427 A    
C87   C114  1.381350 A    
N15   O78   1.300837 A    
O23   C11   1.308609 A    
N59   H22   1.040608 S    
C45   C152  1.444211 A    
Cu2   Cu4   2.725377 S    
N54   H11   1.045053 S    
C3    C185  1.482892 S    
N63   H30   1.040574 S    
N1    O49   1.301226 A    
C71   C122  1.444035 A    
C97   N31   1.431692 S    
O38   C20   1.310848 A    
C70   N94   1.433262 S    
C40   C149  1.439702 A    
O42   C22   1.304940 A    
N38   O123  1.298362 A    
N25   O98   1.300909 A    
O2    C2    1.310687 A    
C28   N52   1.432863 S    
C122  C170  1.442427 A    
N46   O139  1.298365 A    
N2    O52   1.301286 A    
C27   C156  1.443653 A    
N55   H14   1.040550 S    
C94   C105  1.381267 A    
N68   H39   1.045103 S    
O3    Cu3   1.999388 S    
O8    C4    1.310648 A    
C2    C190  1.477614 S    
C167  C189  1.434352 A    
N18   O84   1.301281 A    
C8    C184  1.477307 S    
O42   Cu7   1.999473 S    
O43   C21   1.310867 A    
C80   N4    1.437957 S    
N9    O65   1.301222 A    
C67   C124  1.443744 A    
O45   Cu11  1.998482 S    
C137  C177  1.434705 A    
O48   C24   1.310056 A    
C142  C153  1.422716 A    
C145  C181  1.432313 A    
N78   H59   1.045091 S    
C30   C78   1.400914 A    
O35   Cu10  1.998884 S    
N42   O132  1.301261 A    
N77   H57   1.046320 S    
N56   H16   1.045634 S    
C77   N3    1.431435 S    
C82   N14   1.438378 S    
O37   Cu8   1.998884 S    
N85   H74   1.040695 S    
C46   N70   1.433150 S    
C34   C82   1.400596 A    
O31   C15   1.311565 A    
N74   H51   1.045057 S    
O32   C16   1.310269 A    
C30   C161  1.440080 A    
Cu8   Cu10  2.725377 S    
C133  C168  1.423502 A    
C130  C151  1.425105 A    
N28   O103  1.298226 A    
N83   H70   1.040654 S    
C59   N83   1.425169 S    
C101  N27   1.431685 S    
O20   Cu3   1.998685 S    
O15   C7    1.310787 A    
O19   Cu6   1.998482 S    
C72   N96   1.433368 S    
C25   C158  1.444181 A    
O16   C8    1.311149 A    
C35   N59   1.425225 S    
C4    C192  1.477782 S    
N32   O112  1.301292 A    
Cu11  Cu12  2.726401 S    
C95   N17   1.431897 S    
N82   H68   1.045693 S    
N93   H89   1.046322 S    
C23   C169  1.482177 S    
N70   H43   1.045081 S    
N36   O120  1.301292 A    
N5    O58   1.300739 A    
C67   N91   1.425131 S    
C72   C120  1.398456 A    
C162  C190  1.441887 A    
N58   H19   1.045088 S    
N35   O118  1.300838 A    
O18   Cu1   1.999473 S    
C41   N65   1.425812 S    
N31   O110  1.300707 A    
C72   C133  1.444308 A    
C13   C175  1.481926 S    
C53   C136  1.444352 A    
N92   H88   1.045685 S    
O9    Cu2   1.999678 S    
O20   C10   1.310412 A    
C57   C142  1.444071 A    
C85   N11   1.431004 S    
C123  C171  1.433924 A    
N47   O142  1.300969 A    
C134  C145  1.421976 A    
C112  N36   1.438199 S    
O38   Cu12  1.999718 S    
O39   Cu10  1.999673 S    
N26   O99   1.298489 A    
C139  C179  1.433409 A    
C142  C178  1.442011 A    
C58   C127  1.440232 A    
O6    Cu4   2.000423 S    
N4    O55   1.298229 A    
C55   N79   1.430272 S    
N88   H79   1.044904 S    
C57   N81   1.425448 S    
N49   H1    1.046322 S    
O37   C19   1.310362 A    
C139  C148  1.422278 A    
C132  C147  1.422667 A    
N24   O95   1.298279 A    
N8    O64   1.301288 A    
N95   H94   1.040490 S    
C114  N46   1.438256 S    
N76   H55   1.045080 S    
O12   C6    1.310207 A    
C143  C177  1.433940 A    
C164  C192  1.441503 A    
N67   H37   1.046358 S    
C102  N26   1.437862 S    
O17   C9    1.311861 A    
N11   O69   1.301176 A    
C91   N21   1.432089 S    
O13   C7    1.310858 A    
N64   H31   1.044985 S    
N87   H77   1.046280 S    
C20   C172  1.477017 S    
N86   H75   1.045037 S    
O28   C14   1.310654 A    
C124  C163  1.422668 A    
C50   N74   1.433092 S    
O29   C15   1.310477 A    
C35   C83   1.402488 A    
N44   O135  1.299515 A    
C125  C160  1.422510 A    
O30   C16   1.310697 A    
C61   N85   1.425890 S    
C138  C159  1.423099 A    
C144  C180  1.441617 A    
C149  C183  1.434512 A    
C56   C141  1.439295 A    
C66   N90   1.433042 S    
N43   O133  1.301213 A    
Cu5   Cu6   2.726401 S    
O19   C9    1.310464 A    
N37   O122  1.300718 A    
N96   H95   1.043081 S    
N33   O113  1.301200 A    
N80   H64   1.045657 S    
O48   Cu7   1.998680 S    
C119  N41   1.432210 S    
N30   O108  1.301285 A    
C21   C171  1.482220 S    
C106  N38   1.438298 S    
N89   H81   1.046327 S    
C110  N34   1.438144 S    
O24   Cu1   1.998680 S    
C54   C102  1.400764 A    
O35   C17   1.310162 A    
C131  C175  1.434866 A    
N22   O92   1.301282 A    
O16   Cu5   1.998856 S    
C51   C99   1.402553 A    
C77   C112  1.381344 A    
C137  C150  1.423027 A    
C70   C118  1.400777 A    
C52   N76   1.432950 S    
C62   C121  1.440054 A    
N39   O125  1.301211 A    
C57   C105  1.402439 A    
N61   H26   1.040923 S    
N34   O116  1.301285 A    
C50   C98   1.400945 A    
C43   C91   1.402475 A    
N73   H50   1.040583 S    
O15   Cu4   1.999673 S    
C127  C154  1.422852 A    
C51   C132  1.443765 A    
N81   H65   1.046338 S    
C74   N6    1.439630 S    
N69   H42   1.040738 S    
N16   O80   1.301295 A    
C83   C116  1.381237 A    
C78   N2    1.438122 S    
N78   H60   1.045706 S    
N29   O106  1.300960 A    
N62   H28   1.045648 S    
C132  C176  1.442196 A    
N84   H72   1.045668 S    
N17   O82   1.300782 A    
C67   C115  1.402424 A    
C143  C146  1.422710 A    
C68   C116  1.400898 A    
N19   O85   1.301199 A    
C117  N43   1.431709 S    
C27   C75   1.402727 A    
C10   C186  1.476995 S    
C28   C76   1.401072 A    
N15   O77   1.301225 A    
N50   H3    1.044807 S    
C36   C147  1.439893 A    
C64   N88   1.432861 S    
C69   C117  1.402322 A    
C19   C177  1.482400 S    
C59   C140  1.443657 A    
O4    C2    1.310362 A    
C50   C143  1.440276 A    
N66   H36   1.045709 S    
N63   H29   1.046302 S    
C109  N35   1.431729 S    
C69   N93   1.425698 S    
C90   C111  1.382196 A    
C48   C96   1.401070 A    
C92   N24   1.438043 S    
N91   H85   1.046340 S    
C78   C113  1.381405 A    
O17   Cu5   1.999689 S    
C80   C117  1.381278 A    
N39   O126  1.300821 A    
O25   C13   1.311273 A    
O47   Cu12  1.999684 S    
C84   C99   1.381445 A    
C1    C187  1.482858 S    
N48   O144  1.301273 A    
C42   C90   1.401243 A    
C31   C79   1.402496 A    
C136  C149  1.422759 A    
C161  C189  1.434013 A    
N72   H48   1.045676 S    
O9    C5    1.311149 A    
C32   C80   1.400990 A    
C33   C81   1.402137 A    
N45   O137  1.301211 A    
C163  C191  1.433775 A    
C123  C156  1.422820 A    
C166  C190  1.442164 A    
N20   O87   1.298260 A    
C79   N1    1.431922 S    
N96   H96   1.032131 S    
C76   N8    1.438137 S    
C148  C184  1.441671 A    
C44   C155  1.440116 A    
N74   H52   1.045695 S    
C135  C162  1.422915 A    
N40   O128  1.301295 A    
C136  C176  1.441459 A    
C47   N71   1.425259 S    
C115  N45   1.431795 S    
C14   C178  1.477473 S    
O1    Cu1   2.000252 S    
N54   H12   1.045677 S    
O7    C3    1.310602 A    
C81   C118  1.380841 A    
C9    C183  1.482421 S    
C29   C160  1.444243 A    
N91   H86   1.040646 S    
C138  C178  1.442556 A    
N21   O89   1.301213 A    
C64   C125  1.439434 A    
C60   N84   1.432977 S    
C85   C120  1.382136 A    
N38   O124  1.301290 A    
O23   Cu6   1.999684 S    
N25   O97   1.301297 A    
C100  N32   1.438051 S    
C81   N15   1.431646 S    
N23   O93   1.301190 A    
O13   Cu2   1.998884 S    
N46   O140  1.301287 A    
C29   N53   1.425832 S    
O40   C20   1.310529 A    
C69   C128  1.444224 A    
C25   N49   1.425690 S    
N52   H7    1.045038 S    
C135  C173  1.434427 A    
N68   H40   1.045660 S    
C128  C172  1.441616 A    
C131  C164  1.422777 A    
C133  C175  1.435539 A    
C63   C111  1.403674 A    
C25   C73   1.402417 A    
N6    O59   1.298629 A    
N67   H38   1.040620 S    
O14   C8    1.310326 A    
N31   O109  1.301200 A    
N87   H78   1.040488 S    
N11   O70   1.300766 A    
C151  C181  1.436226 A    
C53   N77   1.425902 S    
N51   H5    1.046340 S    
N27   O101  1.301204 A    
C65   C113  1.402493 A    
C140  C180  1.442205 A    
O3    C1    1.310498 A    
O33   C17   1.311550 A    
N47   O141  1.301262 A    
C104  N28   1.438229 S    
N85   H73   1.046306 S    
C88   C101  1.381408 A    
C158  C186  1.441724 A    
N14   O75   1.299347 A    
C111  N33   1.433594 S    
N43   O134  1.300790 A    
N10   O68   1.301273 A    
C31   C154  1.443896 A    
C98   N30   1.438228 S    
N12   O71   1.298252 A    
N28   O104  1.301296 A    
C113  N47   1.431885 S    
N75   H54   1.040548 S    
C61   C109  1.402431 A    
C38   N62   1.433131 S    
N83   H69   1.046338 S    
O41   Cu11  1.999689 S    
C29   C77   1.402283 A    
C96   C109  1.381505 A    
C22   C174  1.476304 S    
C58   N82   1.433043 S    
N65   H34   1.040489 S    
N60   H23   1.045027 S    
C47   C146  1.444239 A    
O27   C13   1.310621 A    
N93   H90   1.040743 S    
C55   C130  1.449440 A    
C44   N68   1.433067 S    
C33   C166  1.444103 A    
C121  C169  1.434199 A    
N90   H83   1.045019 S    
O29   Cu7   1.999394 S    
C48   N72   1.432878 S    
N95   H93   1.046299 S    
C159  C185  1.434829 A    
C38   C145  1.440045 A    
C130  C174  1.445368 A    
C94   N18   1.437986 S    
N53   H10   1.040756 S    
C46   C94   1.400879 A    
N5    O57   1.301210 A    
C52   C139  1.439881 A    
O11   C5    1.310588 A    
C70   C129  1.441237 A    
N58   H20   1.045809 S    
C76   C115  1.381309 A    
C34   C151  1.440873 A    
N57   H18   1.040572 S    
O5    Cu1   1.999394 S    
O43   Cu12  1.998482 S    
C146  C182  1.442357 A    
O22   Cu3   1.999475 S    
N13   O74   1.300897 A    
O10   Cu5   1.999718 S    
C125  C171  1.434129 A    
C63   N87   1.425365 S    
C93   C104  1.381692 A    
C62   N86   1.433087 S    
O27   Cu9   1.999388 S    
C107  N37   1.431561 S    
C43   C148  1.442704 A    
C124  C172  1.442009 A    
N50   H4    1.045718 S    
C128  C165  1.422804 A    
C65   N89   1.425522 S    
N75   H53   1.046337 S    
Cu7   Cu9   2.725658 S    
C71   C119  1.403043 A    
N4    O56   1.301281 A    
C38   C86   1.400281 A    
C45   C93   1.402558 A    
C58   C106  1.401127 A    
C108  N40   1.438408 S    
O12   Cu6   1.998860 S    
C65   C126  1.444181 A    
N19   O86   1.300764 A    
C79   C106  1.381376 A    
N88   H80   1.045666 S    
C147  C183  1.433638 A    
C15   C173  1.482575 S    
O46   Cu9   1.999475 S    
N1    O50   1.300768 A    
N55   H13   1.046310 S    
C116  N48   1.438052 S    
O24   C12   1.310174 A    
N2    O51   1.298331 A    
C28   C163  1.439819 A    
C26   N50   1.432813 S    
C49   C134  1.444855 A    
C154  C186  1.442090 A    
N76   H56   1.045628 S    
N27   O102  1.300774 A    
C27   N51   1.424938 S    
C42   C159  1.439866 A    
N18   O83   1.298291 A    
C12   C188  1.477043 S    
N9    O66   1.300780 A    
O34   Cu11  1.999718 S    
N64   H32   1.045666 S    
N3    O53   1.301202 A    
N79   H61   1.045997 S    
C129  C173  1.434883 A    
N42   O131  1.298445 A    
N86   H76   1.045683 S    
N56   H15   1.045010 S    
N7    O62   1.300825 A    
C46   C153  1.440067 A    
C96   N20   1.438265 S    
N44   O136  1.301336 A    
O25   Cu7   2.000252 S    
O39   C19   1.311376 A    
C56   C104  1.401215 A    
C17   C179  1.482441 S    
O36   Cu12  1.998860 S    
C61   C144  1.444387 A    
N70   H44   1.045671 S    
O18   C10   1.310511 A    
O2    Cu2   2.000418 S    
C42   N66   1.433096 S    
C93   N19   1.431955 S    
C41   C150  1.445333 A    
C118  N42   1.437942 S    
N37   O121  1.301210 A    
C18   C170  1.477286 S    
C71   N95   1.425442 S    
C35   C164  1.443781 A    
O31   Cu9   2.000250 S    
C144  C157  1.422961 A    
C11   C181  1.482477 S    
C68   C131  1.440455 A    
C91   C100  1.381467 A    
O26   C14   1.310363 A    
C152  C184  1.441413 A    
N41   O129  1.301274 A    
C51   N75   1.425062 S    
N32   O111  1.298161 A    
C43   N67   1.424400 S    
C40   C88   1.401089 A    
C41   C89   1.403742 A    
N82   H67   1.045053 S    
N77   H58   1.040810 S    
N41   O130  1.300980 A    
O14   Cu6   1.999718 S    
N36   O119  1.298202 A    
O10   C6    1.311238 A    
C60   C123  1.440285 A    
O4    Cu4   1.999217 S    
C34   N58   1.433512 S    
C84   N16   1.438207 S    
C168  C192  1.441499 A    
N33   O114  1.300849 A    
N61   H25   1.046142 S    
N80   H63   1.044913 S    
O21   Cu5   1.998482 S    
C121  C158  1.422711 A    
C75   N5    1.432207 S    
N92   H87   1.045090 S    
C153  C185  1.433812 A    
O1    C1    1.311595 A    
