data_mof_unit_24129.cif
_audit_creation_date              2012-12-11T14:04:07-0500
_audit_creation_method            fapswitch 2.2
_symmetry_space_group_name_H-M    P1
_symmetry_Int_Tables_number       1
_space_group_crystal_system       triclinic
_cell_length_a                    19.354223
_cell_length_b                    11.038632
_cell_length_c                    18.887148
_cell_angle_alpha                 90.591712
_cell_angle_beta                  89.641616
_cell_angle_gamma                 89.861579
_cell_volume                      4034.82206685

loop_
_atom_site_label
_atom_site_type_symbol
_atom_type_description
_atom_site_fract_x
_atom_site_fract_y
_atom_site_fract_z
_atom_type_partial_charge
C1    C     C_R   0.235942 0.477440 0.642498 0.596061
C2    C     C_R   0.997236 0.676007 0.577066 -0.032150
C3    C     C_3   0.410528 0.783551 0.033532 -0.353279
C4    C     C_3   0.400922 0.691407 0.092990 -0.446486
C5    C     C_3   0.458793 0.922248 0.901443 -0.179325
C6    C     C_3   0.524420 0.840577 0.907368 -0.263607
C7    C     C_3   0.518683 0.728082 0.860087 -0.450205
C8    C     C_2   0.201910 0.733275 0.521714 0.198209
C9    C     C_2   0.627424 0.858407 0.415493 0.223112
C10   C     C_2   0.699566 0.220309 0.527743 0.196129
C11   C     C_2   0.127390 0.359841 0.415710 0.222698
C12   C     C_3   0.190439 0.036160 0.468631 -0.246488
C13   C     C_R   0.494897 0.157138 0.429277 -0.020549
C14   C     C_3   0.213892 0.141779 0.514037 -0.320083
C15   C     C_3   0.165477 0.169915 0.576576 -0.439491
C16   C     C_3   0.806297 0.858531 0.548872 -0.266886
C17   C     C_3   0.872032 0.931984 0.553470 -0.274625
C18   C     C_3   0.869164 0.064333 0.531815 -0.401730
C19   C     C_3   0.685071 0.509795 0.463413 -0.235168
C20   C     C_3   0.711932 0.623317 0.500835 -0.299591
C21   C     C_3   0.668716 0.658081 0.566408 -0.442577
C22   C     C_3   0.306847 0.368813 0.547573 -0.267735
C23   C     C_3   0.371417 0.443971 0.553423 -0.275568
C24   C     C_R   0.496279 0.177358 0.577776 -0.030985
C25   C     C_3   0.367053 0.575769 0.531986 -0.402832
C26   C     C_R   0.030897 0.868564 0.418411 -0.085880
C27   C     C_R   0.026833 0.895607 0.564416 -0.070666
C28   C     C_R   0.525065 0.374337 0.420203 -0.095006
C29   C     C_R   0.525150 0.397407 0.566385 -0.080117
C30   C     C_R   0.031924 0.983584 0.448398 -0.147032
C31   C     C_R   0.030886 0.996950 0.521311 -0.168824
C32   C     C_R   0.525209 0.488705 0.451313 -0.153901
C33   C     C_R   0.761317 0.475240 0.355316 0.563693
C34   C     C_R   0.527853 0.499974 0.524232 -0.170976
C35   C     C_R   0.015885 0.777878 0.534880 0.034514
C36   C     C_R   0.015474 0.766118 0.460078 -0.009709
C37   C     C_R   0.513712 0.280313 0.536060 0.026792
C38   C     C_R   0.512322 0.269777 0.461142 -0.011432
C39   C     C_R   0.968649 0.573734 0.545499 -0.008618
C40   C     C_R   0.979729 0.553232 0.473151 0.020122
C41   C     C_R   0.467887 0.075602 0.545962 -0.007305
C42   C     C_R   0.479455 0.055311 0.473709 0.018294
C43   C     C_R   0.935425 0.485342 0.587068 -0.094616
C44   C     C_R   0.736790 0.973558 0.643545 0.595959
C45   C     C_R   0.973019 0.431081 0.449152 -0.074130
C46   C     C_R   0.435128 0.986997 0.587470 -0.093789
C47   C     C_R   0.473960 0.933031 0.449870 -0.079778
C48   C     C_R   0.926157 0.369032 0.561141 -0.121744
C49   C     C_R   0.947970 0.340649 0.492959 -0.157624
C50   C     C_R   0.427202 0.870494 0.561854 -0.120157
C51   C     C_R   0.449799 0.842168 0.493829 -0.161526
C52   C     C_2   0.252515 0.929306 0.916545 -0.108543
C53   C     C_2   0.760176 0.898032 0.072451 -0.106569
C54   C     C_2   0.752516 0.429312 0.916543 -0.108662
C55   C     C_R   0.270674 0.010605 0.361815 0.566418
C56   C     C_2   0.260176 0.398029 0.072450 -0.106479
C57   C     C_2   0.252904 0.936113 0.074173 -0.103893
C58   C     C_2   0.750637 0.902221 0.915768 -0.106258
C59   C     C_2   0.752903 0.436104 0.074175 -0.102316
C60   C     C_2   0.250638 0.402217 0.915767 -0.106501
C61   C     C_R   0.229110 0.876091 0.651337 0.587110
C62   C     C_R   0.770835 0.881727 0.348499 0.567717
C63   C     C_R   0.729288 0.376121 0.651162 0.579104
C64   C     C_R   0.270578 0.382653 0.347923 0.563549
C65   C     C_2   0.230626 0.023426 0.030185 -0.148539
C66   C     C_2   0.253092 0.832531 0.528105 -0.025569
C67   C     C_2   0.807936 0.925562 0.952325 -0.160333
C68   C     C_2   0.730624 0.523415 0.030186 -0.147734
C69   C     C_2   0.307937 0.425558 0.952324 -0.160347
C70   C     C_2   0.211994 0.998425 0.957213 -0.161512
C71   C     C_2   0.814058 0.900266 0.027252 -0.175238
C72   C     C_2   0.711988 0.498407 0.957217 -0.161969
C73   C     C_2   0.314059 0.400263 0.027251 -0.175266
C74   C     C_2   0.987956 0.646501 0.917566 -0.113811
C75   C     C_2   0.937208 0.635564 0.064117 -0.117988
C76   C     C_2   0.487960 0.146500 0.917567 -0.113654
C77   C     C_2   0.688199 0.917292 0.448068 -0.047079
C78   C     C_2   0.437209 0.135563 0.064117 -0.118524
C79   C     C_2   0.943001 0.529328 0.024041 -0.014380
C80   C     C_2   0.962889 0.539110 0.946319 0.002814
C81   C     C_2   0.443004 0.029327 0.024040 -0.014575
C82   C     C_2   0.462890 0.039110 0.946318 0.002938
C83   C     C_R   0.028860 0.657355 0.646550 0.572524
C84   C     C_R   0.969923 0.653250 0.355134 0.557122
C85   C     C_R   0.528582 0.157596 0.646817 0.575956
C86   C     C_R   0.469763 0.153696 0.355329 0.553173
C87   C     C_R   0.238739 0.465208 0.849840 0.550282
C88   C     C_2   0.751813 0.318353 0.529394 -0.019546
C89   C     C_R   0.762109 0.470120 0.147818 0.538137
C90   C     C_R   0.738738 0.965212 0.849842 0.548874
C91   C     C_R   0.262109 0.970122 0.147818 0.545100
C92   C     C_R   0.227271 0.874908 0.851849 0.545907
C93   C     C_R   0.774629 0.869056 0.145620 0.544732
C94   C     C_R   0.727271 0.374907 0.851849 0.545778
C95   C     C_R   0.274629 0.369054 0.145619 0.545921
C96   C     C_R   0.027748 0.650239 0.850322 0.536651
C97   C     C_R   0.934560 0.643820 0.142799 0.566526
C98   C     C_R   0.527748 0.150239 0.850322 0.535832
C99   C     C_2   0.187204 0.424232 0.446530 -0.045090
C100  C     C_R   0.434560 0.143820 0.142799 0.567275
C101  C     C_2   0.258013 0.907493 0.584825 -0.058946
C102  C     C_2   0.743338 0.950953 0.409465 -0.088904
C103  C     C_2   0.756925 0.400925 0.582756 -0.060517
C104  C     C_2   0.242510 0.455194 0.407457 -0.086708
C105  C     C_2   0.252180 0.972034 0.432583 -0.000690
C106  C     C_2   0.742188 0.927013 0.570134 0.012876
C107  C     C_2   0.743876 0.438946 0.426612 -0.005830
C108  C     C_2   0.241626 0.434150 0.568665 0.015133
C109  C     C_2   0.281751 0.875283 0.461675 -0.176413
C110  C     C_R   0.996004 0.654755 0.428664 -0.020302
C111  C     C_2   0.687198 0.941135 0.525813 -0.172817
C112  C     C_2   0.778120 0.352190 0.460086 -0.185992
C113  C     C_2   0.186817 0.449759 0.524211 -0.168229
C114  C     C_3   0.944569 0.402238 0.061132 -0.226452
C115  C     C_3   0.910521 0.283553 0.033531 -0.353038
C116  C     C_3   0.900903 0.191415 0.092991 -0.446848
C117  C     C_3   0.958810 0.422238 0.901452 -0.179365
C118  C     C_3   0.024451 0.340605 0.907393 -0.263518
C119  C     C_3   0.018767 0.228144 0.860077 -0.450111
C120  C     C_3   0.444574 0.902237 0.061132 -0.226513
Cr1   Cr    Cr6+3 0.113970 0.508630 0.747920 1.004032
Cr2   Cr    Cr6+3 0.887700 0.820070 0.250200 1.010652
Cr3   Cr    Cr6+3 0.612300 0.320070 0.749800 1.016201
Cr4   Cr    Cr6+3 0.387700 0.320070 0.250200 1.006032
Cr5   Cr    Cr6+3 0.886030 0.508630 0.252080 1.003496
Cr6   Cr    Cr6+3 0.613970 0.008630 0.747920 1.007310
Cr7   Cr    Cr6+3 0.386030 0.008630 0.252080 1.001710
Cr8   Cr    Cr6+3 0.269200 0.666740 0.749850 1.008485
Cr9   Cr    Cr6+3 0.730800 0.666740 0.250150 1.050803
Cr10  Cr    Cr6+3 0.769200 0.166740 0.749850 1.011413
Cr11  Cr    Cr6+3 0.230800 0.166740 0.250150 1.049721
Cr12  Cr    Cr6+3 0.112300 0.820070 0.749800 1.015073
H1    H     H_    0.319524 0.820432 0.433128 0.134675
H2    H     H_    0.708666 0.849937 0.938505 0.090297
H3    H     H_    0.410862 0.621086 0.557616 0.125567
H4    H     H_    0.391895 0.437750 0.608173 0.162952
H5    H     H_    0.406666 0.400605 0.515484 0.182462
H6    H     H_    0.313391 0.291430 0.584040 0.103929
H7    H     H_    0.305551 0.329174 0.493803 0.128853
H8    H     H_    0.759481 0.342848 0.057148 0.095254
H9    H     H_    0.208667 0.349933 0.938503 0.090221
H10   H     H_    0.302194 0.901486 0.935291 0.091998
H11   H     H_    0.707072 0.905562 0.054885 0.097988
H12   H     H_    0.802205 0.401521 0.935280 0.092004
H13   H     H_    0.207073 0.405557 0.054884 0.098079
H14   H     H_    0.933061 0.722240 0.039019 0.067427
H15   H     H_    0.989654 0.730593 0.947067 0.080578
H16   H     H_    0.433060 0.222239 0.039017 0.067447
H17   H     H_    0.638404 0.974285 0.547267 0.179334
H18   H     H_    0.489668 0.230587 0.947074 0.080554
H19   H     H_    0.297088 0.976762 0.586166 0.061581
H20   H     H_    0.778187 0.016032 0.432352 0.093734
H21   H     H_    0.794952 0.471965 0.580250 0.065361
H22   H     H_    0.277251 0.521457 0.429358 0.094928
H23   H     H_    0.035920 0.062493 0.415069 0.116107
H24   H     H_    0.031823 0.086619 0.544655 0.106324
H25   H     H_    0.527810 0.568748 0.418736 0.115430
H26   H     H_    0.529536 0.588951 0.548478 0.108647
H27   H     H_    0.039903 0.862024 0.362015 0.146483
H28   H     H_    0.817213 0.297506 0.433371 0.124027
H29   H     H_    0.020614 0.916475 0.619886 0.138408
H30   H     H_    0.533748 0.370266 0.363747 0.146955
H31   H     H_    0.520164 0.417210 0.622082 0.141105
H32   H     H_    0.990397 0.399286 0.398138 0.189167
H33   H     H_    0.919860 0.504788 0.641245 0.105482
H34   H     H_    0.491621 0.901520 0.398933 0.190235
H35   H     H_    0.419295 0.006379 0.641590 0.103502
H36   H     H_    0.903636 0.301575 0.595118 0.116825
H37   H     H_    0.944882 0.249161 0.472733 0.098457
H38   H     H_    0.405127 0.803538 0.596334 0.115591
H39   H     H_    0.138027 0.482226 0.546028 0.180348
H40   H     H_    0.447997 0.750667 0.473574 0.098873
H41   H     H_    0.220196 0.114746 0.049665 0.154176
H42   H     H_    0.851343 0.972200 0.928161 0.149859
H43   H     H_    0.720194 0.614737 0.049664 0.154533
H44   H     H_    0.351344 0.472195 0.928159 0.149831
H45   H     H_    0.951215 0.171494 0.118413 0.158216
H46   H     H_    0.863829 0.225669 0.133642 0.169777
H47   H     H_    0.879988 0.106171 0.070663 0.163857
H48   H     H_    0.859622 0.301651 0.011044 0.155641
H49   H     H_    0.941289 0.234769 0.993440 0.171454
H50   H     H_    0.163030 0.033445 0.938313 0.149136
H51   H     H_    0.998265 0.382584 0.078117 0.157558
H52   H     H_    0.912354 0.411389 0.107428 0.227075
H53   H     H_    0.972294 0.174602 0.874261 0.140709
H54   H     H_    0.015367 0.255013 0.803684 0.148602
H55   H     H_    0.065266 0.170280 0.866660 0.138727
H56   H     H_    0.072716 0.387663 0.893562 0.212739
H57   H     H_    0.034767 0.313415 0.962414 0.133733
H58   H     H_    0.912128 0.371417 0.914273 0.114131
H59   H     H_    0.946205 0.441837 0.845466 0.154947
H60   H     H_    0.451238 0.671491 0.118404 0.158048
H61   H     H_    0.866500 0.892493 0.046649 0.141400
H62   H     H_    0.363851 0.725652 0.133646 0.171052
H63   H     H_    0.380008 0.606161 0.070663 0.163818
H64   H     H_    0.359625 0.801643 0.011052 0.155609
H65   H     H_    0.441291 0.734774 0.993437 0.171489
H66   H     H_    0.498271 0.882585 0.078115 0.157559
H67   H     H_    0.412359 0.911386 0.107428 0.226793
H68   H     H_    0.472202 0.674588 0.874305 0.140752
H69   H     H_    0.515265 0.754909 0.803689 0.148481
H70   H     H_    0.565170 0.670185 0.866664 0.138747
H71   H     H_    0.572689 0.887581 0.893493 0.212725
H72   H     H_    0.663014 0.533398 0.938325 0.149084
H73   H     H_    0.534761 0.813431 0.962393 0.133726
H74   H     H_    0.412106 0.871444 0.914272 0.114214
H75   H     H_    0.446186 0.941863 0.845460 0.154841
H76   H     H_    0.195080 0.688507 0.470882 0.108659
H77   H     H_    0.593864 0.802533 0.447407 0.082647
H78   H     H_    0.689512 0.173761 0.478070 0.105198
H79   H     H_    0.095000 0.304427 0.449186 0.082022
H80   H     H_    0.145439 0.086550 0.600851 0.183798
H81   H     H_    0.193660 0.220044 0.618429 0.153031
H82   H     H_    0.121124 0.225709 0.559432 0.138146
H83   H     H_    0.366501 0.392491 0.046648 0.141350
H84   H     H_    0.267186 0.129756 0.532432 0.149000
H85   H     H_    0.216485 0.217984 0.478426 0.164995
H86   H     H_    0.153261 0.072923 0.430259 0.170848
H87   H     H_    0.159549 0.971536 0.499388 0.186470
H88   H     H_    0.877959 0.073281 0.474034 0.134636
H89   H     H_    0.820806 0.109844 0.547494 0.189396
H90   H     H_    0.911509 0.111418 0.559392 0.126103
H91   H     H_    0.892840 0.925539 0.608060 0.159508
H92   H     H_    0.906591 0.887208 0.515299 0.177392
H93   H     H_    0.812089 0.780641 0.585172 0.101547
H94   H     H_    0.259483 0.842858 0.057144 0.095618
H95   H     H_    0.803007 0.817316 0.495509 0.133318
H96   H     H_    0.647621 0.577973 0.593259 0.183697
H97   H     H_    0.700732 0.705849 0.606053 0.145729
H98   H     H_    0.624939 0.717204 0.551890 0.137369
H99   H     H_    0.766887 0.614527 0.515050 0.148798
H100  H     H_    0.711888 0.696139 0.461992 0.173226
H101  H     H_    0.646115 0.539897 0.425264 0.171167
H102  H     H_    0.655352 0.450949 0.499094 0.179517
H103  H     H_    0.373194 0.585490 0.473958 0.134100
H104  H     H_    0.319675 0.621233 0.550724 0.193953
O1    O     O_R   0.043230 0.549300 0.667990 -0.515161
O2    O     O_R   0.832470 0.905110 0.169660 -0.529532
O3    O     O_R   0.667530 0.405110 0.830340 -0.523442
O4    O     O_R   0.332470 0.405110 0.169660 -0.528373
O5    O     O_R   0.054010 0.748440 0.822860 -0.500363
O6    O     O_R   0.945990 0.748440 0.177140 -0.489880
O7    O     O_R   0.554010 0.248440 0.822860 -0.501117
O8    O     O_R   0.445990 0.248440 0.177140 -0.489112
O9    O     O_3   0.165160 0.665150 0.749190 -0.227460
O10   O     O_3   0.834840 0.665150 0.250810 -0.288558
O11   O     O_3   0.665160 0.165150 0.749190 -0.222443
O12   O     O_R   0.956770 0.549300 0.332010 -0.510212
O13   O     O_3   0.334840 0.165150 0.250810 -0.300899
O14   O     O_R   0.178620 0.457600 0.674100 -0.505077
O15   O     O_R   0.821380 0.457600 0.325900 -0.501782
O16   O     O_R   0.678620 0.957600 0.674100 -0.499320
O17   O     O_R   0.321380 0.957600 0.325900 -0.503168
O18   O     O_R   0.284680 0.542100 0.669460 -0.513221
O19   O     O_R   0.715320 0.542100 0.330540 -0.525960
O20   O     O_R   0.784680 0.042100 0.669460 -0.509617
O21   O     O_R   0.215320 0.042100 0.330540 -0.519072
O22   O     O_R   0.262860 0.790390 0.676650 -0.496876
O23   O     O_R   0.543230 0.049300 0.667990 -0.512219
O24   O     O_R   0.737140 0.790390 0.323350 -0.446126
O25   O     O_R   0.762860 0.290390 0.676650 -0.491668
O26   O     O_R   0.237140 0.290390 0.323350 -0.455053
O27   O     O_R   0.167460 0.907030 0.670940 -0.512518
O28   O     O_R   0.832540 0.907030 0.329060 -0.528467
O29   O     O_R   0.667460 0.407030 0.670940 -0.512966
O30   O     O_R   0.332540 0.407030 0.329060 -0.528186
O31   O     O_R   0.053950 0.750220 0.675100 -0.495797
O32   O     O_R   0.946050 0.750220 0.324900 -0.503858
O33   O     O_R   0.553950 0.250220 0.675100 -0.494583
O34   O     O_R   0.456770 0.049300 0.332010 -0.513713
O35   O     O_R   0.446050 0.250220 0.324900 -0.505828
O36   O     O_R   0.043300 0.547370 0.827390 -0.537060
O37   O     O_R   0.956700 0.547370 0.172610 -0.525798
O38   O     O_R   0.543300 0.047370 0.827390 -0.537710
O39   O     O_R   0.456700 0.047370 0.172610 -0.525194
O40   O     O_R   0.178690 0.455820 0.821860 -0.519872
O41   O     O_R   0.821310 0.455820 0.178140 -0.546783
O42   O     O_R   0.678690 0.955820 0.821860 -0.521052
O43   O     O_R   0.321310 0.955820 0.178140 -0.542406
O44   O     O_R   0.284750 0.540170 0.828860 -0.519633
O45   O     O_R   0.262920 0.788600 0.824420 -0.512741
O46   O     O_R   0.715250 0.540170 0.171140 -0.505568
O47   O     O_R   0.784750 0.040170 0.828860 -0.520513
O48   O     O_R   0.215250 0.040170 0.171140 -0.501923
O49   O     O_2   0.165685 0.702915 0.571368 -0.496860
O50   O     O_2   0.613063 0.874622 0.353411 -0.498688
O51   O     O_2   0.665682 0.193372 0.579715 -0.487111
O52   O     O_2   0.112412 0.371084 0.353390 -0.498296
O53   O     O_R   0.737080 0.788600 0.175580 -0.495142
O54   O     O_R   0.762920 0.288600 0.824420 -0.513116
O55   O     O_R   0.237080 0.288600 0.175580 -0.494991
O56   O     O_R   0.167530 0.905110 0.830340 -0.523588

loop_
_geom_bond_atom_site_label_1
_geom_bond_atom_site_label_2
_ccdc_geom_bond_type
C2    C35   A    
C114  H51   S    
C56   C95   S    
C54   H12   S    
C83   O1    A    
C16   H95   S    
C8    C66   S    
C20   H100  S    
C116  H46   S    
C4    H63   S    
C102  H20   S    
C41   C42   A    
C4    H60   S    
C35   C36   A    
C33   C107  S    
C12   C105  S    
C15   H81   S    
Cr9   O24   S    
C18   H88   S    
Cr3   O7    S    
C81   C82   S    
Cr5   O10   S    
C28   H30   S    
C95   O55   A    
C113  H39   S    
C58   C67   D    
Cr5   O37   S    
C58   H2    S    
C4    H62   S    
Cr6   O42   S    
C81   C120  S    
Cr2   O6    S    
C89   O46   A    
C15   H80   S    
Cr1   O36   S    
C23   H4    S    
C55   C105  S    
C104  H22   S    
Cr8   O9    S    
Cr8   O45   S    
C11   C99   S    
C51   H40   S    
C45   H32   S    
C11   O52   D    
C7    H70   S    
C30   C31   A    
Cr4   O4    S    
C118  H57   S    
C64   O26   A    
Cr12  O9    S    
C71   H61   S    
C67   H42   S    
C76   C98   S    
C65   C70   S    
C111  H17   S    
C75   C97   S    
C120  H67   S    
C84   O32   A    
Cr6   O16   S    
C59   C89   S    
C85   O33   A    
C7    H68   S    
C33   O15   A    
C18   H89   S    
C94   O54   A    
C118  C119  S    
Cr11  O48   S    
C6    H73   S    
C98   O38   A    
C11   H79   S    
C5    H74   S    
Cr11  O21   S    
C2    C39   A    
C10   H78   S    
C47   C51   A    
Cr9   O19   S    
C25   H104  S    
C9    H77   S    
C16   C17   S    
Cr7   O34   S    
C77   C111  S    
C13   C86   S    
Cr2   O10   S    
Cr8   O18   S    
C41   C46   A    
Cr12  O56   S    
C14   H85   S    
C69   C73   S    
C69   H44   S    
C45   C49   A    
Cr4   O8    S    
C8    H76   S    
C24   C85   S    
C12   H87   S    
Cr11  O13   S    
C115  H48   S    
C100  O8    A    
C16   C106  S    
C72   H72   S    
Cr11  O26   S    
Cr3   O33   S    
C93   O53   A    
Cr1   O9    S    
C99   C104  D    
C97   O6    A    
Cr9   O53   S    
C117  H58   S    
C20   H99   S    
C74   C80   D    
C116  H45   S    
C103  H21   S    
C24   C41   A    
C66   C101  D    
Cr10  O54   S    
C77   C102  D    
C61   O22   A    
C15   H82   S    
C25   H3    S    
C19   H101  S    
C12   H86   S    
C13   C42   A    
C115  H49   S    
C68   H43   S    
C70   H50   S    
C46   C50   A    
C50   C51   A    
Cr3   O3    S    
C106  C111  D    
C43   H33   S    
C75   H14   S    
C19   C107  S    
C40   C45   A    
Cr5   O15   S    
C16   H93   S    
C54   C94   S    
C46   H35   S    
C100  O39   A    
C109  H1    S    
C74   C96   S    
C74   H15   S    
C28   C32   A    
C86   O34   A    
Cr6   O11   S    
C63   C103  S    
Cr9   O10   S    
C44   O16   A    
C76   C82   D    
C39   C40   A    
C47   H34   S    
C118  H56   S    
C1    O14   A    
C44   O20   A    
C40   C110  A    
C54   C72   D    
C27   C35   A    
Cr2   O32   S    
C36   C110  A    
C27   C31   A    
C22   H7    S    
C101  H19   S    
C52   H10   S    
C55   O17   A    
C33   O19   A    
Cr7   O13   S    
C60   C87   S    
C108  C113  D    
C37   C38   A    
C61   C101  S    
C29   H31   S    
C119  H53   S    
C99   C113  S    
C92   O45   A    
C17   H91   S    
C59   C68   D    
C5    H75   S    
Cr10  O47   S    
C58   C90   S    
Cr3   O29   S    
C120  H66   S    
C48   H36   S    
C28   C38   A    
C93   O2    A    
C68   C72   S    
C43   C48   A    
C21   H97   S    
C92   O56   A    
C89   O41   A    
C17   C18   S    
C98   O7    A    
C14   H84   S    
C91   O48   A    
C50   H38   S    
C107  C112  D    
C9    C77   S    
C85   O23   A    
C91   O43   A    
C63   O29   A    
Cr4   O13   S    
C61   O27   A    
C13   C38   A    
Cr6   O38   S    
Cr1   O1    S    
Cr12  O27   S    
C57   C91   S    
C8    O49   D    
C34   H26   S    
C26   H27   S    
C48   C49   A    
C12   C14   S    
C26   C30   A    
C44   C106  S    
C56   H13   S    
C55   O21   A    
C60   H9    S    
C78   C100  S    
C96   O36   A    
C52   C92   S    
C9    O50   D    
C87   O40   A    
C57   H94   S    
C62   O28   A    
C3    C4    S    
C53   C71   D    
C19   H102  S    
C62   O24   A    
Cr6   O23   S    
C88   C103  D    
C1    O18   A    
C32   H25   S    
Cr2   O2    S    
C26   C36   A    
C24   C37   A    
C64   C104  S    
C21   H96   S    
C105  C109  D    
C80   C117  S    
C30   H23   S    
C59   H8    S    
C56   C73   D    
C112  H28   S    
C65   H41   S    
C90   O47   A    
Cr7   O17   S    
C10   O51   D    
C23   H5    S    
C22   C23   S    
Cr4   O35   S    
Cr7   O39   S    
C86   O35   A    
C39   C43   A    
Cr10  O11   S    
Cr5   O41   S    
C114  C115  S    
C6    C7    S    
C78   H16   S    
Cr3   O11   S    
C117  H59   S    
C22   H6    S    
C97   O37   A    
C3    H64   S    
Cr11  O55   S    
C84   O12   A    
Cr7   O43   S    
C19   C20   S    
C83   O31   A    
Cr1   O40   S    
C94   O3    A    
C7    H69   S    
C17   H92   S    
C64   O30   A    
C117  C118  S    
C27   H29   S    
Cr12  O31   S    
C49   H37   S    
C5    C82   S    
C78   C81   D    
Cr2   O28   S    
Cr1   O14   S    
C5    C6    S    
Cr8   O22   S    
C60   C69   D    
C114  H52   S    
C21   H98   S    
C29   C34   A    
C2    C83   S    
Cr4   O30   S    
C3    H65   S    
C67   C71   S    
C87   O44   A    
C23   C25   S    
C66   C109  S    
C22   C108  S    
Cr9   O46   S    
C18   H90   S    
C84   C110  S    
C96   O5    A    
C119  H54   S    
Cr10  O25   S    
C52   C70   D    
C3    C120  S    
C62   C102  S    
C1    C108  S    
C79   C80   S    
C88   C112  S    
C10   C88   S    
C31   H24   S    
Cr12  O5    S    
C6    H71   S    
C42   C47   A    
C76   H18   S    
C20   C21   S    
C25   H103  S    
C90   O42   A    
C79   C114  S    
C29   C37   A    
C14   C15   S    
C73   H83   S    
Cr5   O12   S    
C95   O4    A    
C119  H55   S    
C53   H11   S    
C116  H47   S    
C75   C79   D    
Cr8   O44   S    
C53   C93   S    
C115  C116  S    
C32   C34   A    
C57   C65   D    
C63   O25   A    
Cr10  O20   S    
