data_mof_unit_36676.cif
_audit_creation_date              2012-10-26T20:12:46-0400
_audit_creation_method            fapswitch 2.2
_symmetry_space_group_name_H-M    P1
_symmetry_Int_Tables_number       1
_space_group_crystal_system       triclinic
_cell_length_a                    15.112326
_cell_length_b                    13.994922
_cell_length_c                    10.771072
_cell_angle_alpha                 91.598753
_cell_angle_beta                  93.785798
_cell_angle_gamma                 90.801672
_cell_volume                      2271.89460156

loop_
_atom_site_label
_atom_site_type_symbol
_atom_type_description
_atom_site_fract_x
_atom_site_fract_y
_atom_site_fract_z
_atom_type_partial_charge
C1    C     C_R   0.330511 0.499353 0.515074 0.560134
C2    C     C_R   0.449203 0.790501 0.410161 0.154866
C3    C     C_R   0.436253 0.204583 0.428135 0.172449
C4    C     C_R   0.553629 0.794928 0.587064 0.205962
C5    C     C_R   0.496722 0.054168 0.506325 -0.009325
C6    C     C_R   0.495864 0.945728 0.506629 -0.014970
C7    C     C_R   0.512919 0.498544 0.264278 0.600956
C8    C     C_R   0.491709 0.501705 0.737951 0.585210
C9    C     C_R   0.591682 0.659952 0.129443 0.371403
C10   C     C_R   0.427910 0.337887 0.881275 0.398410
C11   C     C_R   0.494291 0.684588 0.904407 0.374488
C12   C     C_R   0.669715 0.500741 0.501786 0.543899
C13   C     C_R   0.530930 0.317470 0.102328 0.357704
C14   C     C_R   0.586513 0.750132 0.078430 -0.152991
C15   C     C_R   0.436623 0.248171 0.933311 -0.158862
C16   C     C_R   0.533400 0.763166 0.970332 -0.161752
C17   C     C_R   0.492856 0.237170 0.039166 -0.169404
C18   C     C_R   0.507820 0.590357 0.946921 -0.050585
C19   C     C_R   0.513249 0.410209 0.058403 -0.055791
C20   C     C_R   0.544711 0.581245 0.069893 -0.059024
C21   C     C_R   0.474672 0.418233 0.936699 -0.037446
C22   C     C_R   0.482995 0.505733 0.875076 0.014326
C23   C     C_R   0.048525 0.512266 0.541045 0.120031
C24   C     C_R   0.532561 0.494676 0.130703 -0.000944
C25   C     C_R   0.100762 0.593480 0.568096 0.378750
C26   C     C_R   0.904866 0.534040 0.635724 0.390028
C27   C     C_R   0.906879 0.495438 0.414938 0.367000
C28   C     C_R   0.087230 0.422833 0.536645 0.370511
C29   C     C_R   0.193405 0.587042 0.577625 -0.032678
C30   C     C_R   0.812082 0.526182 0.628632 -0.027098
C31   C     C_R   0.814251 0.487396 0.404282 -0.002310
C32   C     C_R   0.179936 0.413513 0.542629 -0.005661
C33   C     C_R   0.234333 0.498940 0.544902 -0.071021
C34   C     C_R   0.951700 0.517651 0.529836 0.116504
C35   C     C_R   0.766488 0.503750 0.511632 -0.060299
C36   C     C_3   0.244426 0.670239 0.642579 -0.191831
C37   C     C_3   0.249636 0.756265 0.559642 -0.373112
C38   C     C_3   0.764201 0.539718 0.747661 -0.242858
C39   C     C_3   0.781911 0.457572 0.835931 -0.397098
C40   C     C_3   0.769142 0.461674 0.277443 -0.198437
C41   C     C_3   0.784182 0.357259 0.240686 -0.363203
C42   C     C_3   0.214323 0.313745 0.570233 -0.205562
C43   C     C_3   0.182544 0.237178 0.472236 -0.400350
C44   C     C_3   0.636243 0.257876 0.657010 -0.243373
C45   C     C_R   0.566163 0.108586 0.564892 -0.113249
C46   C     C_3   0.645946 0.213385 0.785823 -0.470687
C47   C     C_3   0.397618 0.739942 0.299737 -0.248603
C48   C     C_3   0.321707 0.796057 0.235363 -0.486372
C49   C     C_3   0.376054 0.248415 0.325922 -0.247062
C50   C     C_3   0.325474 0.178840 0.232692 -0.495028
C51   C     C_3   0.633011 0.750707 0.658292 -0.235713
C52   C     C_3   0.691396 0.817389 0.745757 -0.482574
C53   C     C_R   0.452196 0.891586 0.410209 -0.125024
C54   C     C_R   0.429741 0.104490 0.442775 -0.116551
C55   C     C_R   0.543490 0.895340 0.598045 -0.101431
C56   C     C_R   0.563747 0.209533 0.571491 0.181760
Cu1   Cu    Cu3+1 0.500000 0.596430 0.500000 0.986163
Cu2   Cu    Cu3+1 0.500000 0.403570 0.500000 0.988320
F1    F     F_    0.643556 0.649671 0.235864 -0.633919
F2    F     F_    0.369256 0.347266 0.781956 -0.652845
F3    F     F_    0.435388 0.703405 0.808539 -0.654005
F4    F     F_    0.587777 0.303371 0.202654 -0.649924
F5    F     F_    0.061060 0.678217 0.590704 -0.612083
F6    F     F_    0.950153 0.555254 0.746552 -0.604996
F7    F     F_    0.954182 0.481382 0.313030 -0.628102
F8    F     F_    0.033018 0.344371 0.533879 -0.644001
H1    H     H_    0.504971 0.166570 0.074489 0.142011
H2    H     H_    0.264406 0.732201 0.464963 0.160264
H3    H     H_    0.185785 0.794597 0.553989 0.204864
H4    H     H_    0.211671 0.691964 0.728198 0.195965
H5    H     H_    0.311449 0.648772 0.676515 0.234691
H6    H     H_    0.771574 0.388003 0.784929 0.143804
H7    H     H_    0.850868 0.461513 0.878170 0.233082
H8    H     H_    0.735880 0.461565 0.912133 0.123614
H9    H     H_    0.786284 0.608134 0.795314 0.185781
H10   H     H_    0.691465 0.544077 0.729379 0.116228
H11   H     H_    0.756075 0.309462 0.309263 0.201836
H12   H     H_    0.522504 0.834607 0.937078 0.137159
H13   H     H_    0.750986 0.341029 0.147256 0.168112
H14   H     H_    0.855878 0.342633 0.236117 0.210624
H15   H     H_    0.696855 0.473119 0.274667 0.200436
H16   H     H_    0.795286 0.508750 0.206443 0.202794
H17   H     H_    0.178466 0.266437 0.377319 0.172692
H18   H     H_    0.228914 0.176395 0.476385 0.113539
H19   H     H_    0.116592 0.207559 0.491531 0.229538
H20   H     H_    0.286606 0.309856 0.585169 0.227100
H21   H     H_    0.189825 0.292699 0.660812 0.196101
H22   H     H_    0.677170 0.265339 0.855780 0.144848
H23   H     H_    0.402268 0.186604 0.888979 0.141025
H24   H     H_    0.580335 0.191889 0.816648 0.165717
H25   H     H_    0.688612 0.149534 0.783660 0.145684
H26   H     H_    0.700438 0.252479 0.612757 0.143229
H27   H     H_    0.624859 0.333437 0.675138 0.204605
H28   H     H_    0.348211 0.848967 0.171768 0.151279
H29   H     H_    0.277226 0.746095 0.177685 0.172072
H30   H     H_    0.281795 0.833511 0.303992 0.149768
H31   H     H_    0.444129 0.723468 0.227595 0.175042
H32   H     H_    0.367266 0.672914 0.327589 0.197751
H33   H     H_    0.293319 0.219768 0.155612 0.163306
H34   H     H_    0.620021 0.810810 0.126226 0.152297
H35   H     H_    0.371526 0.127370 0.191877 0.151260
H36   H     H_    0.272419 0.139143 0.276604 0.145315
H37   H     H_    0.327486 0.296040 0.364801 0.166266
H38   H     H_    0.416883 0.289799 0.267129 0.213180
H39   H     H_    0.653066 0.848640 0.820649 0.146233
H40   H     H_    0.746431 0.776232 0.790494 0.160994
H41   H     H_    0.721242 0.875301 0.692852 0.160964
H42   H     H_    0.612158 0.691526 0.714723 0.184051
H43   H     H_    0.678383 0.724455 0.589032 0.186756
H44   H     H_    0.622330 0.072819 0.608753 0.101381
H45   H     H_    0.421931 0.928720 0.332536 0.105756
H46   H     H_    0.373395 0.064725 0.401011 0.099924
H47   H     H_    0.576640 0.935591 0.674514 0.097161
H48   H     H_    0.302662 0.806600 0.598037 0.159034
N1    N     N_R   0.500000 0.258690 0.500000 -0.190258
N2    N     N_R   0.500000 0.741310 0.500000 -0.194615
O1    O     O_R   0.371460 0.581430 0.500010 -0.525636
O2    O     O_R   0.628540 0.418570 0.499990 -0.513637
O3    O     O_R   0.628540 0.581430 0.499990 -0.486684
O4    O     O_R   0.371460 0.418570 0.500010 -0.511380
O5    O     O_R   0.499990 0.581440 0.319660 -0.486501
O6    O     O_R   0.500010 0.418560 0.680340 -0.482673
O7    O     O_R   0.500010 0.581440 0.680340 -0.475813
O8    O     O_R   0.499990 0.418560 0.319660 -0.468659

loop_
_geom_bond_atom_site_label_1
_geom_bond_atom_site_label_2
_ccdc_geom_bond_type
C11   C18   A    
C48   H29   S    
C37   H3    S    
C43   H17   S    
C10   F2    S    
C6    C55   A    
C49   H38   S    
C3    C49   S    
C1    C33   S    
C38   H10   S    
C29   C36   S    
C50   H33   S    
C47   H32   S    
C48   H28   S    
C30   C35   A    
C36   C37   S    
C19   C21   A    
C10   C15   A    
C41   H11   S    
C38   C39   S    
C3    C54   A    
Cu1   O7    S    
C7    C24   S    
C37   H2    S    
C29   C33   A    
Cu2   O2    S    
C31   C40   S    
C30   C38   S    
C25   F5    S    
C39   H8    S    
C26   F6    S    
C44   H27   S    
C2    N2    A    
C26   C34   A    
C13   F4    S    
C20   C24   A    
C45   C56   A    
C44   C46   S    
C51   H42   S    
C46   H24   S    
C8    C22   S    
C39   H6    S    
C42   H20   S    
C7    O8    A    
C16   H12   S    
C44   H26   S    
C36   H5    S    
Cu1   O3    S    
C53   H45   S    
C23   C25   A    
C52   H40   S    
C10   C21   A    
C21   C22   A    
C43   H18   S    
C7    O5    A    
C36   H4    S    
Cu1   N2    S    
C46   H22   S    
C38   H9    S    
C27   C34   A    
C25   C29   A    
Cu2   O6    S    
C17   H1    S    
C13   C19   A    
C4    C51   S    
C27   C31   A    
C51   C52   S    
C43   H19   S    
C40   H16   S    
C5    C54   A    
C28   C32   A    
C52   H41   S    
C45   H44   S    
C37   H48   S    
C55   H47   S    
C5    C45   A    
C9    F1    S    
C1    O4    A    
C28   F8    S    
C9    C14   A    
C49   H37   S    
C27   F7    S    
C15   H23   S    
C12   O3    A    
C11   C16   A    
C44   C56   S    
C9    C20   A    
C47   C48   S    
C23   C34   S    
Cu2   O4    S    
C54   H46   S    
C1    O1    A    
C23   C28   A    
C12   C35   S    
C12   O2    A    
C40   C41   S    
C52   H39   S    
C26   C30   A    
C4    C55   A    
Cu2   N1    S    
C14   C16   A    
C42   C43   S    
C6    C53   A    
Cu1   O1    S    
C15   C17   A    
C48   H30   S    
C18   C22   A    
C40   H15   S    
C4    N2    A    
C50   H36   S    
C11   F3    S    
C2    C53   A    
C41   H13   S    
C8    O7    A    
C14   H34   S    
C46   H25   S    
C2    C47   S    
Cu2   O8    S    
C47   H31   S    
C13   C17   A    
C32   C33   A    
C19   C24   A    
C3    N1    A    
C8    O6    A    
Cu1   Cu2   S    
C5    C6    S    
C31   C35   A    
C56   N1    A    
C18   C20   A    
C39   H7    S    
Cu1   O5    S    
C50   H35   S    
C51   H43   S    
C49   C50   S    
C32   C42   S    
C41   H14   S    
C42   H21   S    
