data_mof_unit_28668.cif
_audit_creation_date              2012-12-10T18:50:03-0500
_audit_creation_method            fapswitch 2.2
_symmetry_space_group_name_H-M    P1
_symmetry_Int_Tables_number       1
_space_group_crystal_system       triclinic
_cell_length_a                    10.793761
_cell_length_b                    9.948922
_cell_length_c                    11.119519
_cell_angle_alpha                 90.020353
_cell_angle_beta                  92.688438
_cell_angle_gamma                 90.010234
_cell_volume                      1192.76949664

loop_
_atom_site_label
_atom_site_type_symbol
_atom_type_description
_atom_site_fract_x
_atom_site_fract_y
_atom_site_fract_z
_atom_type_partial_charge
C1    C     C_R   0.259805 0.499998 0.501529 0.821861
C2    C     C_3   0.627200 0.438864 0.934060 0.731286
C3    C     C_R   0.059668 0.377385 0.494447 0.028897
C4    C     C_R   0.060446 0.623067 0.505401 0.007472
C5    C     C_R   0.933938 0.380781 0.472624 -0.290581
C6    C     C_R   0.934469 0.622221 0.483737 -0.245552
C7    C     C_R   0.870740 0.501390 0.479690 -0.076745
C8    C     C_R   0.125900 0.499958 0.503281 -0.135371
C9    C     C_R   0.580417 0.072178 0.575276 0.489175
C10   C     C_R   0.578742 0.927763 0.577098 0.424339
C11   C     C_R   0.418124 0.928049 0.427457 -0.085442
C12   C     C_R   0.418776 0.071226 0.426591 -0.094597
C13   C     C_R   0.499549 0.500929 0.257262 0.969091
C14   C     C_R   0.739235 0.500397 0.494160 0.802161
C15   C     C_R   0.500346 0.500926 0.742631 0.987352
C16   C     C_3   0.468241 0.653700 0.065863 -0.262195
C17   C     C_3   0.400053 0.399075 0.064632 -0.262810
C18   C     C_3   0.494435 0.659894 0.924699 0.833859
C19   C     C_3   0.382222 0.421357 0.923167 0.790416
C20   C     C_3   0.634849 0.461740 0.077984 0.783341
C21   C     C_3   0.500206 0.504141 0.119209 -0.359802
C22   C     C_3   0.500565 0.505308 0.880027 -0.354632
H1    H     H_    0.885019 0.287924 0.455827 0.146417
H2    H     H_    0.885994 0.716037 0.475782 0.153986
N1    N     N_R   0.499970 0.857200 0.499970 -0.163134
N2    N     N_R   0.499970 0.142800 0.499970 -0.169221
O1    O     O_R   0.316750 0.614620 0.499990 -0.617265
O2    O     O_R   0.316750 0.385380 0.499990 -0.619841
O3    O     O_R   0.499970 0.614670 0.314790 -0.619147
O4    O     O_R   0.499970 0.385330 0.314790 -0.618164
O5    O     O_R   0.683220 0.614710 0.500010 -0.618706
O6    O     O_R   0.683220 0.385290 0.500010 -0.640717
O7    O     O_R   0.500010 0.614660 0.685200 -0.524442
O8    O     O_R   0.500010 0.385340 0.685200 -0.543301
Zn1   Zn    Zn3+2 0.499980 0.653120 0.500000 1.021776
Zn2   Zn    Zn3+2 0.499980 0.346880 0.500000 1.006825
C23   C     C_1   0.529343 0.763346 0.136519 0.267705
N3    N     N_1   0.575175 0.848612 0.194179 -0.220249
C24   C     C_1   0.436720 0.258029 0.092357 0.384716
N4    N     N_1   0.464897 0.147835 0.113191 -0.216962
C25   C     C_1   0.320513 0.857120 0.362395 0.296950
N5    N     N_1   0.238962 0.802353 0.312580 -0.208306
C26   C     C_1   0.326523 0.140444 0.353131 0.308014
N6    N     N_1   0.249296 0.191648 0.294256 -0.227448
C27   C     C_1   0.335516 0.685957 0.079353 0.294451
N7    N     N_1   0.231283 0.712071 0.083950 -0.168549
C28   C     C_1   0.279280 0.413663 0.122669 0.233680
N8    N     N_1   0.184695 0.426661 0.166407 -0.205483
O9    O     O_3   0.391564 0.718875 0.857031 -0.603297
C29   C     C_3   0.384417 0.860277 0.859849 -0.180154
H3    H     H_    0.454885 0.906374 0.803650 0.225617
H4    H     H_    0.388692 0.900761 0.952800 0.114917
H5    H     H_    0.292855 0.890123 0.819023 0.168677
O10   O     O_3   0.270713 0.498345 0.901154 -0.621386
C30   C     C_3   0.218313 0.495612 0.782539 -0.236043
H6    H     H_    0.118501 0.469967 0.785998 0.149196
H7    H     H_    0.260831 0.422415 0.722647 0.173478
H8    H     H_    0.224235 0.597004 0.742499 0.209746
O11   O     O_3   0.609387 0.718846 0.887637 -0.538939
C31   C     C_3   0.660092 0.835661 0.943929 -0.166989
H9    H     H_    0.723265 0.808186 0.021165 0.180060
H10   H     H_    0.591906 0.912389 0.967669 0.122152
H11   H     H_    0.720668 0.887404 0.882444 0.179965
O12   O     O_3   0.375769 0.293691 0.862054 -0.570296
C32   C     C_3   0.265693 0.218940 0.879658 -0.295106
H12   H     H_    0.290110 0.122672 0.924554 0.159396
H13   H     H_    0.221160 0.193928 0.790699 0.183222
H14   H     H_    0.195900 0.270427 0.933574 0.169759
O13   O     O_3   0.716526 0.571228 0.113373 -0.651906
C33   C     C_3   0.845373 0.554854 0.096511 -0.179811
H15   H     H_    0.877006 0.634385 0.035175 0.201099
H16   H     H_    0.871662 0.456649 0.059264 0.166621
H17   H     H_    0.897380 0.569379 0.184031 0.164495
O14   O     O_3   0.667585 0.336272 0.134333 -0.667296
C34   C     C_3   0.748088 0.337467 0.236883 -0.249642
H18   H     H_    0.748206 0.434782 0.282365 0.195238
H19   H     H_    0.843152 0.309436 0.212607 0.147592
H20   H     H_    0.716954 0.259162 0.299632 0.203218
O15   O     O_3   0.730282 0.507970 0.885326 -0.616715
C35   C     C_3   0.787172 0.448436 0.787413 -0.254151
H21   H     H_    0.831684 0.528343 0.735936 0.153973
H22   H     H_    0.720507 0.396229 0.726653 0.231587
H23   H     H_    0.864048 0.381493 0.818584 0.130641
O16   O     O_3   0.621486 0.298457 0.900850 -0.572804
C36   C     C_3   0.723502 0.215841 0.938319 -0.143134
H24   H     H_    0.804180 0.270075 0.979030 0.133562
H25   H     H_    0.756027 0.159088 0.861218 0.171890
H26   H     H_    0.692340 0.139598 0.003013 0.186329
C37   C     C_1   0.111205 0.247841 0.527222 0.165639
N9    N     N_1   0.150574 0.143869 0.555468 -0.215948
C38   C     C_1   0.113899 0.748113 0.549102 0.175006
N10   N     N_1   0.155793 0.847735 0.586073 -0.207895
O17   O     O_3   0.654772 0.142327 0.657655 -0.552537
C39   C     C_3   0.779090 0.141137 0.622699 -0.309937
H27   H     H_    0.817443 0.242445 0.632244 0.179381
H28   H     H_    0.792657 0.104864 0.529272 0.117795
H29   H     H_    0.838655 0.084934 0.687849 0.140880
O18   O     O_3   0.638174 0.860063 0.671534 -0.560594
C40   C     C_3   0.763633 0.835858 0.649106 -0.148143
H30   H     H_    0.824905 0.878795 0.721297 0.117984
H31   H     H_    0.793059 0.874048 0.561008 0.089070
H32   H     H_    0.782175 0.727987 0.659000 0.199422

loop_
_geom_bond_atom_site_label_1
_geom_bond_atom_site_label_2
_ccdc_geom_bond_type
C30   H6    S    
O17   C39   S    
C1    C8    S    
C25   N5    T    
C2    O16   S    
C14   O5    A    
C4    C8    A    
C36   H24   S    
C16   C21   S    
C31   H11   S    
O6    Zn2   S    
C13   O3    A    
C12   C26   S    
C11   N1    A    
C31   H10   S    
C17   C24   S    
C10   O18   S    
C2    O15   S    
C17   C19   S    
C15   C22   S    
C40   H30   S    
C32   H13   S    
C2    C22   S    
C1    O2    A    
C29   H4    S    
C33   H15   S    
C7    C14   S    
C9    C10   A    
C15   O8    A    
C16   C23   S    
C4    C38   S    
O11   C31   S    
O13   C33   S    
C35   H23   S    
C9    N2    A    
C36   H25   S    
C29   H5    S    
O14   C34   S    
C13   C21   S    
C13   O4    A    
C19   C22   S    
O16   C36   S    
C4    C6    A    
C3    C8    A    
C24   N4    T    
C5    C7    A    
C39   H29   S    
O1    Zn1   S    
C27   N7    T    
C2    C20   S    
C17   C21   S    
C12   N2    A    
C31   H9    S    
C34   H18   S    
C23   N3    T    
C28   N8    T    
C5    H1    S    
C19   O12   S    
C32   H14   S    
C6    H2    S    
C33   H17   S    
C29   H3    S    
C20   O14   S    
C39   H28   S    
C34   H19   S    
N1    Zn1   S    
C10   N1    A    
N2    Zn2   S    
C40   H31   S    
C32   H12   S    
C30   H7    S    
C26   N6    T    
O9    C29   S    
O5    Zn1   S    
C20   O13   S    
C9    O17   S    
C38   N10   T    
C19   O10   S    
C36   H26   S    
O10   C30   S    
C18   C22   S    
C17   C28   S    
C14   O6    A    
C35   H21   S    
C3    C5    A    
C16   C27   S    
C11   C12   A    
C6    C7    A    
O3    Zn1   S    
O4    Zn2   S    
C3    C37   S    
O12   C32   S    
O7    Zn1   S    
C35   H22   S    
C11   C25   S    
O8    Zn2   S    
C39   H27   S    
C34   H20   S    
O15   C35   S    
C18   O11   S    
C40   H32   S    
C20   C21   S    
O2    Zn2   S    
C16   C18   S    
O18   C40   S    
C30   H8    S    
C1    O1    A    
C33   H16   S    
C37   N9    T    
C15   O7    A    
C18   O9    S    
