data_mof_unit_60000.cif
_audit_creation_date              2012-10-26T19:18:50-0400
_audit_creation_method            fapswitch 2.2
_symmetry_space_group_name_H-M    P1
_symmetry_Int_Tables_number       1
_space_group_crystal_system       triclinic
_cell_length_a                    9.7535
_cell_length_b                    10.939809
_cell_length_c                    15.737847
_cell_angle_alpha                 89.174358
_cell_angle_beta                  72.653143
_cell_angle_gamma                 88.868968
_cell_volume                      1602.4976268

loop_
_atom_site_label
_atom_site_type_symbol
_atom_type_description
_atom_site_fract_x
_atom_site_fract_y
_atom_site_fract_z
_atom_type_partial_charge
C1    C     C_R   0.999600 0.265787 0.503452 0.551197
C2    C     C_R   0.222170 0.566549 0.046800 0.016218
C3    C     C_R   0.326732 0.556111 0.092233 0.057517
C4    C     C_R   0.915542 0.504725 0.672071 0.567568
C5    C     C_R   0.076614 0.554530 0.093020 -0.151608
C6    C     C_R   0.033263 0.532816 0.184235 -0.162930
C7    C     C_R   0.284026 0.518388 0.182375 0.115714
C8    C     C_2   0.884535 0.935996 0.526529 0.099821
C9    C     C_2   0.001772 0.866415 0.486659 0.125964
C10   C     C_2   0.884876 0.069124 0.514227 -0.127815
C11   C     C_2   0.998709 0.134577 0.515012 -0.105827
C12   C     C_R   0.663306 0.569612 0.902910 0.031103
C13   C     C_2   0.410608 0.409826 0.531484 0.196798
C14   C     C_2   0.558778 0.420505 0.543139 -0.021101
C15   C     C_R   0.999363 0.734431 0.498600 0.583714
C16   C     C_R   0.085135 0.501014 0.328082 0.543163
C17   C     C_R   0.866283 0.531219 0.769121 0.047238
C18   C     C_R   0.135173 0.514845 0.230241 0.007679
C19   C     C_R   0.904520 0.624327 0.899627 -0.111263
C20   C     C_R   0.960013 0.580775 0.813250 0.097953
C21   C     C_R   0.718854 0.518950 0.816407 0.066902
C22   C     C_3   0.395355 0.336396 0.225464 -0.269666
C23   C     C_R   0.759977 0.613872 0.945945 -0.002871
C24   C     C_3   0.180716 0.463062 0.779956 -0.294878
C25   C     C_R   0.515128 0.573522 0.950206 0.025767
C26   C     C_R   0.471947 0.579191 0.044214 0.051775
C27   C     C_R   0.571229 0.620969 0.085847 -0.106660
C28   C     C_R   0.711857 0.644192 0.036157 -0.144057
C29   C     C_R   0.409258 0.587447 0.906888 -0.147459
C30   C     C_R   0.265068 0.589287 0.955395 -0.151822
Cu1   Cu    Cu3+1 0.138640 0.500020 0.499980 0.932575
Cu2   Cu    Cu3+1 0.861360 0.499980 0.500020 0.950806
H1    H     H_    0.784369 0.681018 0.069370 0.101783
H2    H     H_    0.974587 0.666859 0.931564 0.111479
H3    H     H_    0.538879 0.645009 0.155438 0.122939
H4    H     H_    0.436548 0.607753 0.836642 0.124886
H5    H     H_    0.672030 0.903817 0.555541 0.223155
H6    H     H_    0.731222 0.920960 0.645111 0.222706
H7    H     H_    0.215635 0.898151 0.447983 0.229018
H8    H     H_    0.144953 0.876426 0.363616 0.226184
H9    H     H_    0.410219 0.229211 0.567464 0.182470
H10   H     H_    0.259575 0.308380 0.616934 0.228477
H11   H     H_    0.409213 0.514954 0.270685 0.269234
H12   H     H_    0.996012 0.562258 0.058734 0.111751
H13   H     H_    0.489823 0.307349 0.246799 0.144795
H14   H     H_    0.406106 0.295354 0.159567 0.149648
H15   H     H_    0.296578 0.302257 0.274973 0.167310
H16   H     H_    0.149781 0.627327 0.715988 0.279626
H17   H     H_    0.159841 0.432755 0.850173 0.148151
H18   H     H_    0.298459 0.469905 0.748523 0.128312
H19   H     H_    0.137519 0.392018 0.746117 0.153291
H20   H     H_    0.568797 0.383629 0.834735 0.231245
H21   H     H_    0.575763 0.482202 0.747760 0.235935
H22   H     H_    0.786894 0.113596 0.509296 0.134281
H23   H     H_    0.092118 0.091677 0.527687 0.140306
H24   H     H_    0.397580 0.581183 0.488424 0.180165
H25   H     H_    0.590859 0.353812 0.585561 0.139851
H26   H     H_    0.625709 0.554919 0.455351 0.199940
H27   H     H_    0.919271 0.528781 0.218574 0.138324
H28   H     H_    0.187708 0.606689 0.920712 0.145637
N1    N     N_2   0.346430 0.498660 0.500980 -0.318611
N2    N     N_2   0.652550 0.498630 0.501000 -0.360327
N3    N     N_3   0.755586 0.881359 0.582178 -0.615347
N4    N     N_3   0.127411 0.918674 0.425212 -0.666215
N5    N     N_3   0.338925 0.295823 0.556442 -0.560483
N6    N     N_2   0.390601 0.468310 0.218924 -0.527259
N7    N     N_2   0.111730 0.580557 0.775416 -0.528287
N8    N     N_3   0.635845 0.434996 0.782851 -0.633753
O1    O     O_R   0.117050 0.321960 0.499980 -0.458497
O2    O     O_R   0.882890 0.321920 0.500020 -0.499452
O3    O     O_R   0.052910 0.500040 0.629810 -0.512016
O4    O     O_R   0.818750 0.499990 0.629840 -0.468555
O5    O     O_R   0.117110 0.678080 0.499980 -0.526426
O6    O     O_R   0.882950 0.678040 0.500020 -0.465584
O7    O     O_R   0.181250 0.500010 0.370160 -0.495504
O8    O     O_R   0.947090 0.499960 0.370190 -0.506099

loop_
_geom_bond_atom_site_label_1
_geom_bond_atom_site_label_2
_ccdc_geom_bond_type
H26   N2    S    
C16   O7    A    
Cu1   N1    S    
C20   N7    S    
C19   C20   A    
C1    C11   S    
Cu2   O4    S    
C13   N5    S    
H7    N4    S    
C29   H4    S    
C26   C27   A    
C3    C7    A    
Cu2   O6    S    
C5    C6    A    
Cu1   O5    S    
C9    N4    S    
C17   C20   A    
H21   N8    S    
C22   N6    S    
C24   N7    S    
C8    C9    D    
C30   H28   S    
H10   N5    S    
H20   N8    S    
C24   H19   S    
Cu1   O3    S    
C22   H15   S    
C13   C14   S    
C24   H18   S    
H5    N3    S    
C25   C29   A    
C6    C18   A    
Cu2   O2    S    
C27   H3    S    
C25   C26   A    
C12   C21   A    
C1    O1    A    
C19   C23   A    
C29   C30   A    
Cu1   O7    S    
Cu1   Cu2   S    
C12   C23   A    
C7    C18   A    
C22   H13   S    
C23   C28   A    
C4    C17   S    
C8    C10   S    
C22   H14   S    
C5    H12   S    
C28   H1    S    
C21   N8    S    
C2    C5    A    
C4    O4    A    
C11   H23   S    
H6    N3    S    
C24   H17   S    
C14   H25   S    
C15   O5    A    
C16   O8    A    
C6    H27   S    
C3    C26   A    
C19   H2    S    
Cu2   O8    S    
H9    N5    S    
C1    O2    A    
H8    N4    S    
C12   C25   A    
C2    C30   A    
C2    C3    A    
C9    C15   S    
Cu2   N2    S    
C7    N6    S    
H11   N6    S    
H16   N7    S    
C10   H22   S    
C17   C21   A    
C10   C11   D    
C8    N3    S    
Cu1   O1    S    
C15   O6    A    
C13   N1    D    
C16   C18   S    
C27   C28   A    
H24   N1    S    
C4    O3    A    
C14   N2    D    
