data_mof_unit_32163.cif
_audit_creation_date              2013-03-05T16:36:12-0500
_audit_creation_method            fapswitch 2.2
_symmetry_space_group_name_H-M    P1
_symmetry_Int_Tables_number       1
_space_group_crystal_system       triclinic
_cell_length_a                    27.864397
_cell_length_b                    9.076347
_cell_length_c                    7.782082
_cell_angle_alpha                 89.956191
_cell_angle_beta                  89.929147
_cell_angle_gamma                 90.016023
_cell_volume                      1968.14035757

loop_
_atom_site_label
_atom_site_type_symbol
_atom_site_description
_atom_site_fract_x
_atom_site_fract_y
_atom_site_fract_z
_atom_type_partial_charge
O1    O     O_R   0.500000 0.288390 0.642760 -0.575424
O2    O     O_R   0.500000 0.711610 0.357240 -0.575356
O3    O     O_R   0.500000 0.711610 0.642760 -0.579686
O4    O     O_R   0.500000 0.288390 0.357240 -0.579665
C1    C     C_R   0.500004 0.220035 0.500045 0.836759
C2    C     C_R   0.499998 0.779964 0.499955 0.837337
O5    O     O_R   0.430260 0.500000 0.642770 -0.526568
O6    O     O_R   0.569740 0.500000 0.357230 -0.527308
O7    O     O_R   0.569740 0.500000 0.642770 -0.584666
O8    O     O_R   0.430260 0.500000 0.357230 -0.584533
C3    C     C_R   0.407272 0.502466 0.500130 0.835754
C4    C     C_R   0.592718 0.497576 0.499869 0.836266
Cu1   Cu    Cu3+1 0.500000 0.500000 0.669080 1.064706
Cu2   Cu    Cu3+1 0.500000 0.500000 0.330920 1.064512
C5    C     C_R   0.177817 0.371685 0.467535 0.556284
C6    C     C_R   0.822142 0.627809 0.534935 0.556416
C7    C     C_R   0.177760 0.629673 0.524731 0.551946
C8    C     C_R   0.822188 0.370698 0.472592 0.552020
O9    O     O_2   0.202548 0.246525 0.437013 -0.515264
O10   O     O_2   0.797413 0.752500 0.568029 -0.515739
O11   O     O_2   0.202431 0.755023 0.554907 -0.515347
O12   O     O_2   0.797507 0.245834 0.439851 -0.515874
N1    N     N_R   0.201915 0.500779 0.495708 -0.448648
N2    N     N_R   0.798041 0.499157 0.504192 -0.448555
C9    C     C_R   0.278636 0.582246 0.372759 -0.084744
C10   C     C_R   0.721331 0.416092 0.625756 -0.084067
C11   C     C_R   0.278513 0.422854 0.621950 -0.198737
C12   C     C_R   0.721436 0.578830 0.379487 -0.198603
C13   C     C_R   0.328621 0.589287 0.375888 0.315862
C14   C     C_R   0.671344 0.409202 0.622643 0.315860
C15   C     C_R   0.328913 0.423638 0.624857 0.362960
C16   C     C_R   0.671037 0.578068 0.376617 0.362602
C17   C     C_R   0.253462 0.501033 0.495990 0.213115
C18   C     C_R   0.746496 0.498926 0.503963 0.212969
C19   C     C_R   0.101783 0.500383 0.497481 -0.043424
C20   C     C_R   0.898169 0.499531 0.502419 -0.043194
C21   C     C_R   0.127427 0.368983 0.468855 -0.028424
C22   C     C_R   0.872531 0.630528 0.533574 -0.028485
C23   C     C_R   0.127386 0.631989 0.525054 -0.026320
C24   C     C_R   0.872561 0.368339 0.472305 -0.026369
C25   C     C_R   0.102412 0.237875 0.442088 -0.144308
C26   C     C_R   0.897551 0.761204 0.563091 -0.144852
C27   C     C_R   0.102356 0.762916 0.552801 -0.143387
C28   C     C_R   0.897586 0.237835 0.441808 -0.143924
C29   C     C_R   0.354355 0.506447 0.500662 -0.190429
C30   C     C_R   0.645617 0.493635 0.499330 -0.189898
H1    H     H_    0.121282 0.135184 0.420283 0.186914
H2    H     H_    0.878686 0.863497 0.587543 0.187697
H3    H     H_    0.121208 0.865782 0.573735 0.186929
H4    H     H_    0.878729 0.135374 0.418214 0.187724
C31   C     C_R   0.974454 0.365980 0.470716 0.044464
C32   C     C_R   0.025495 0.634096 0.528093 0.044564
C33   C     C_R   0.974436 0.633704 0.530506 0.044645
C34   C     C_R   0.025517 0.366029 0.470508 0.044746
C35   C     C_R   0.949251 0.499737 0.501232 0.069653
C36   C     C_R   0.050700 0.500169 0.498678 0.069460
C37   C     C_R   0.947383 0.236277 0.441075 -0.208016
C38   C     C_R   0.052560 0.764371 0.554068 -0.207238
C39   C     C_R   0.947353 0.763154 0.561591 -0.207408
C40   C     C_R   0.052609 0.236011 0.443072 -0.206645
C41   C     C_1   0.500004 0.065405 0.500062 -0.140897
C42   C     C_1   0.500000 0.934595 0.499938 -0.140793
N3    N     N_1   0.500000 0.500000 0.076820 -0.020706
N4    N     N_1   0.500000 0.500000 0.923180 -0.020632
O13   O     O_3   0.353904 0.342166 0.745300 -0.687138
H5    H     H_    0.330780 0.291009 0.821795 0.338306
O14   O     O_3   0.646018 0.661119 0.257710 -0.687827
H6    H     H_    0.669133 0.713506 0.182271 0.338392
O15   O     O_3   0.350495 0.680833 0.257675 -0.683119
H7    H     H_    0.381425 0.715361 0.305246 0.330047
O16   O     O_3   0.649470 0.316245 0.739393 -0.683349
H8    H     H_    0.618361 0.283144 0.691927 0.329699
H9    H     H_    0.258555 0.360972 0.717323 0.163178
H10   H     H_    0.741387 0.642010 0.285235 0.163378
H11   H     H_    0.259060 0.643915 0.276364 0.184570
H12   H     H_    0.740915 0.353120 0.721003 0.184733
H13   H     H_    0.963294 0.130547 0.415861 0.133484
H14   H     H_    0.036636 0.870626 0.575745 0.132052
H15   H     H_    0.963264 0.868991 0.586224 0.133500
H16   H     H_    0.036701 0.129642 0.421974 0.132066

loop_
_geom_bond_atom_site_label_1
_geom_bond_atom_site_label_2
_geom_bond_distance
_ccdc_geom_bond_type
O5    Cu1   1.954271 S    
C19   C23   1.407886 A    
O3    C2    1.272352 A    
C12   H10   1.083526 S    
C14   O16   1.380576 S    
C33   C39   1.417374 A    
C34   C40   1.417226 A    
C11   C17   1.397332 A    
O5    C3    1.282458 A    
C7    N1    1.368611 A    
O1    C1    1.272572 A    
C19   C21   1.408220 A    
C22   C26   1.394951 A    
C7    C23   1.403801 A    
C8    C24   1.403787 A    
C5    C21   1.404322 A    
O7    Cu1   1.953765 S    
C27   C38   1.387622 A    
C10   C18   1.397234 A    
N1    C17   1.436323 S    
C10   H12   1.083690 S    
C31   C37   1.417198 A    
O3    Cu1   1.931381 S    
C6    O10   1.349970 S    
C5    N1    1.368262 A    
C12   C18   1.397415 A    
C6    N2    1.368249 A    
Cu1   Cu2   2.631590 S    
O4    Cu2   1.931382 S    
O15   H7    0.989386 S    
C13   O15   1.380351 S    
C33   C35   1.422394 A    
C9    C13   1.394485 A    
C34   C36   1.422342 A    
C11   C15   1.404592 A    
O14   H6    0.991990 S    
C37   H13   1.075309 S    
C12   C16   1.404572 A    
C4    C30   1.474444 S    
O8    Cu2   1.953768 S    
C39   H15   1.075331 S    
C27   H3    1.083674 S    
C23   C27   1.394895 A    
N2    C18   1.436277 S    
O2    C2    1.272573 A    
C13   C29   1.422417 A    
C9    H11   1.083569 S    
C5    O9    1.349898 S    
C20   C24   1.407953 A    
C28   C37   1.387633 A    
O6    C4    1.282305 A    
C25   H1    1.083653 S    
C1    C41   1.403484 S    
C26   H2    1.083895 S    
C32   C38   1.417023 A    
C16   O14   1.382492 S    
C10   C14   1.394487 A    
C8    N2    1.368596 A    
C3    C29   1.474962 S    
O1    Cu1   1.931693 S    
C32   C33   1.422835 A    
C28   H4    1.083913 S    
C15   O13   1.382425 S    
C40   H16   1.075033 S    
O6    Cu2   1.954269 S    
C19   C36   1.423417 A    
C8    O12   1.350079 S    
C16   C30   1.413455 A    
C14   C30   1.422313 A    
C25   C40   1.387846 A    
O4    C1    1.272352 A    
C26   C39   1.387837 A    
C31   C34   1.422844 A    
C2    C42   1.403484 S    
C20   C22   1.408291 A    
O16   H8    0.989414 S    
C20   C35   1.423372 A    
Cu1   N4    1.977426 S    
Cu2   N3    1.977426 S    
C31   C35   1.422653 A    
C21   C25   1.394841 A    
C41   C42   1.187271 T    
O2    Cu2   1.931692 S    
O7    C4    1.282731 A    
C7    O11   1.350006 S    
O8    C3    1.282866 A    
C38   H14   1.075050 S    
N3    N4    1.195640 T    
C24   C28   1.395021 A    
O13   H5    0.991756 S    
C15   C29   1.413679 A    
C9    C17   1.397151 A    
C11   H9    1.083396 S    
C32   C36   1.422589 A    
C6    C22   1.404301 A    
