data_mof_unit_23737.cif
_audit_creation_date              2012-12-10T17:16:16-0500
_audit_creation_method            fapswitch 2.2
_symmetry_space_group_name_H-M    P1
_symmetry_Int_Tables_number       1
_space_group_crystal_system       triclinic
_cell_length_a                    19.35654
_cell_length_b                    12.974612
_cell_length_c                    11.656724
_cell_angle_alpha                 100.16743
_cell_angle_beta                  93.959417
_cell_angle_gamma                 90.096161
_cell_volume                      2874.37396988

loop_
_atom_site_label
_atom_site_type_symbol
_atom_type_description
_atom_site_fract_x
_atom_site_fract_y
_atom_site_fract_z
_atom_type_partial_charge
C1    C     C_R   0.502332 0.299077 0.478052 0.874863
C2    C     C_R   0.497668 0.700923 0.521948 0.874861
C3    C     C_R   0.492276 0.814495 0.534906 -0.152479
C4    C     C_R   0.507724 0.185505 0.465094 -0.152478
C5    C     C_R   0.546408 0.015887 0.370187 -0.214196
C6    C     C_R   0.453592 0.984113 0.629813 -0.214195
C7    C     C_R   0.543018 0.123999 0.374662 0.435807
C8    C     C_R   0.456982 0.876001 0.625338 0.435806
C9    C     C_R   0.478434 0.138066 0.549452 -0.259096
C10   C     C_R   0.521566 0.861934 0.450548 -0.259095
C11   C     C_R   0.483006 0.030712 0.545177 0.092519
C12   C     C_R   0.516994 0.969288 0.454823 0.092519
C13   C     C_R   0.435176 0.401419 0.020768 -0.275065
C14   C     C_R   0.564823 0.598581 0.979232 -0.275064
C15   C     C_R   0.441360 0.410960 0.143195 0.234606
C16   C     C_R   0.558640 0.589040 0.856805 0.234603
C17   C     C_R   0.527981 0.542707 0.157669 0.081610
C18   C     C_R   0.472018 0.457293 0.842331 0.081610
C19   C     C_R   0.523536 0.535841 0.034636 0.047664
C20   C     C_R   0.476464 0.464159 0.965364 0.047663
C21   C     C_R   0.367501 0.503564 0.500386 0.860882
C22   C     C_R   0.632499 0.496436 0.499613 0.860882
C23   C     C_R   0.258941 0.457136 0.578913 -0.225973
C24   C     C_R   0.741059 0.542865 0.421088 -0.225975
C25   C     C_R   0.187073 0.455521 0.579679 -0.122594
C26   C     C_R   0.812927 0.544482 0.420323 -0.122592
C27   C     C_R   0.146346 0.505641 0.502392 -0.028938
C28   C     C_R   0.853654 0.494361 0.497609 -0.028938
C29   C     C_R   0.178878 0.558973 0.425801 -0.193049
C30   C     C_R   0.821122 0.441027 0.574199 -0.193048
C31   C     C_R   0.251033 0.562188 0.424710 0.433280
C32   C     C_R   0.748967 0.437811 0.575290 0.433280
C33   C     C_R   0.291673 0.508514 0.500803 -0.132887
C34   C     C_R   0.708326 0.491486 0.499197 -0.132887
C35   C     C_R   0.929872 0.497197 0.498610 0.446639
C36   C     C_R   0.070128 0.502805 0.501392 0.446638
Cu1   Cu    Cu3+1 0.505120 0.507730 0.615930 1.051947
Cu2   Cu    Cu3+1 0.494880 0.492270 0.384070 1.051948
H1    H     H_    0.398405 0.345416 0.969978 0.146339
H2    H     H_    0.601595 0.654584 0.030022 0.146339
H3    H     H_    0.147883 0.598821 0.366758 0.212656
H4    H     H_    0.852117 0.401179 0.633242 0.212658
H5    H     H_    0.435913 0.402424 0.788213 0.107073
H6    H     H_    0.564087 0.597576 0.211787 0.107073
H7    H     H_    0.590678 0.637724 0.815009 0.129691
H8    H     H_    0.409322 0.362275 0.184991 0.129692
N1    N     N_R   0.030739 0.551109 0.426287 -0.217986
N2    N     N_R   0.969261 0.448893 0.573715 -0.217986
N3    N     N_R   0.962005 0.548409 0.424919 -0.221224
N4    N     N_R   0.037995 0.451593 0.575082 -0.221224
N5    N     N_R   0.512830 0.519350 0.790130 -0.180984
N6    N     N_R   0.487170 0.480650 0.209870 -0.180984
O1    O     O_R   0.503640 0.354460 0.582000 -0.578645
O2    O     O_R   0.496360 0.645540 0.418000 -0.578645
O3    O     O_R   0.494980 0.341410 0.386200 -0.551470
O4    O     O_R   0.505020 0.658590 0.613800 -0.551470
O5    O     O_R   0.404470 0.506520 0.597930 -0.574723
O6    O     O_R   0.595530 0.493480 0.402070 -0.574722
O7    O     O_R   0.395820 0.493460 0.402130 -0.552253
O8    O     O_R   0.604180 0.506540 0.597870 -0.552254
H9    H     H_    0.289092 0.416278 0.638235 0.160517
H10   H     H_    0.710908 0.583725 0.361767 0.160516
H11   H     H_    0.163499 0.414174 0.640272 0.174398
H12   H     H_    0.836501 0.585829 0.359731 0.174398
S1    S     S_3+6 0.287336 0.638462 0.331182 0.025525
O9    O     O_2   0.346436 0.704267 0.395856 -0.278042
O10   O     O_2   0.313209 0.567026 0.227570 -0.296134
O11   O     O_3   0.227297 0.717733 0.283757 -0.522688
H13   H     H_    0.251614 0.756436 0.232108 0.386207
S2    S     S_3+6 0.712664 0.361536 0.668815 0.025525
O12   O     O_2   0.686790 0.432969 0.772428 -0.296115
O13   O     O_2   0.653564 0.295731 0.604139 -0.278061
O14   O     O_3   0.772703 0.282264 0.716239 -0.522686
H14   H     H_    0.748379 0.243534 0.767855 0.386206
H15   H     H_    0.548372 0.814921 0.381278 0.158807
H16   H     H_    0.451628 0.185079 0.618722 0.158807
S3    S     S_3+6 0.413044 0.822162 0.730106 0.030227
O15   O     O_2   0.369234 0.729960 0.670292 -0.269311
O16   O     O_2   0.465265 0.787447 0.816425 -0.295803
O17   O     O_3   0.361681 0.912134 0.802193 -0.529295
H17   H     H_    0.340241 0.876219 0.859396 0.386701
S4    S     S_3+6 0.586955 0.177838 0.269893 0.030228
O18   O     O_2   0.534734 0.212551 0.183574 -0.295811
O19   O     O_2   0.630765 0.270041 0.329705 -0.269301
O20   O     O_3   0.638318 0.087866 0.197807 -0.529296
H18   H     H_    0.659750 0.123775 0.140590 0.386702
H19   H     H_    0.572772 0.967733 0.301450 0.194874
H20   H     H_    0.427228 0.032267 0.698550 0.194875

loop_
_geom_bond_atom_site_label_1
_geom_bond_atom_site_label_2
_ccdc_geom_bond_type
C27   C29   A    
O14   H14   S    
C19   C20   A    
C16   N5    A    
N1    N3    A    
S3    O15   D    
C24   C26   A    
C21   O7    A    
C22   O8    A    
Cu1   N5    S    
C21   C33   S    
C6    H20   S    
C36   N1    A    
C25   H11   S    
C26   H12   S    
C1    O1    A    
Cu2   O6    S    
Cu1   O4    S    
Cu2   O3    S    
C28   C35   S    
O11   H13   S    
S1    O10   D    
C35   N3    A    
C31   C33   A    
S2    O12   D    
C9    H16   S    
Cu1   O1    S    
N2    N4    A    
C4    C7    A    
C35   N2    A    
C17   N6    A    
C18   N5    A    
S3    O16   D    
C22   C34   S    
C5    C12   A    
C3    C8    A    
C2    O2    A    
C6    C11   A    
C5    C7    A    
C32   S2    S    
C23   C33   A    
O20   H18   S    
C24   C34   A    
C32   C34   A    
C21   O5    A    
Cu1   Cu2   S    
C10   H15   S    
Cu2   O2    S    
S1    O11   S    
S2    O14   S    
C15   N6    A    
C9    C11   A    
C10   C12   A    
S4    O18   D    
S4    O19   D    
C13   C15   A    
C8    S3    S    
C14   C16   A    
C36   N4    A    
S3    O17   S    
C31   S1    S    
C24   H10   S    
C13   C20   A    
C29   H3    S    
C14   C19   A    
O17   H17   S    
C16   H7    S    
C22   O6    A    
C6    C8    A    
C11   C12   A    
C27   C36   S    
C25   C27   A    
S4    O20   S    
C26   C28   A    
C1    C4    S    
C28   C30   A    
C2    C3    S    
C1    O3    A    
C17   H6    S    
C29   C31   A    
C3    C10   A    
C2    O4    A    
C18   H5    S    
C30   C32   A    
C17   C19   A    
C18   C20   A    
C23   C25   A    
C13   H1    S    
Cu1   O8    S    
C14   H2    S    
Cu2   O7    S    
C5    H19   S    
C23   H9    S    
C7    S4    S    
Cu2   N6    S    
S1    O9    D    
C30   H4    S    
S2    O13   D    
C15   H8    S    
C4    C9    A    
Cu1   O5    S    
