data_mof_unit_57878.cif
_audit_creation_date              2013-03-05T15:42:34-0500
_audit_creation_method            fapswitch 2.2
_symmetry_space_group_name_H-M    P1
_symmetry_Int_Tables_number       1
_space_group_crystal_system       triclinic
_cell_length_a                    29.573235
_cell_length_b                    17.439117
_cell_length_c                    18.959242
_cell_angle_alpha                 90.352487
_cell_angle_beta                  139.638934
_cell_angle_gamma                 89.620967
_cell_volume                      6332.02342631

loop_
_atom_site_label
_atom_site_type_symbol
_atom_site_description
_atom_site_fract_x
_atom_site_fract_y
_atom_site_fract_z
_atom_type_partial_charge
C1    C     C_R   0.667320 0.925264 0.813310 -0.072867
C2    C     C_R   0.686586 0.103100 0.796463 -0.141776
C3    C     C_R   0.186431 0.396847 0.796645 -0.143293
C4    C     C_R   0.166686 0.574278 0.813050 -0.070337
H1    H     H_    0.712235 0.961458 0.873234 0.105425
H2    H     H_    0.735787 0.073846 0.847836 0.112037
H3    H     H_    0.235521 0.425247 0.846041 0.109536
H4    H     H_    0.211383 0.537602 0.872788 0.105597
N1    N     N_R   0.625250 0.928170 0.708660 -0.041843
N2    N     N_R   0.625250 0.071830 0.708660 -0.051276
N3    N     N_R   0.125250 0.428170 0.708660 -0.051068
N4    N     N_R   0.125250 0.571830 0.708660 -0.042191
C5    C     C_R   0.362135 0.072131 0.489318 -0.174008
C6    C     C_R   0.329037 0.898017 0.411063 -0.202357
C7    C     C_R   0.829563 0.601038 0.413993 -0.177241
C8    C     C_R   0.831970 0.402155 0.421859 -0.185469
H5    H     H_    0.323929 0.032969 0.464707 0.132254
H6    H     H_    0.278551 0.925776 0.348614 0.121675
H7    H     H_    0.779710 0.572318 0.353350 0.116209
H8    H     H_    0.782751 0.431960 0.370006 0.127376
N5    N     N_R   0.386350 0.070500 0.452620 -0.058861
N6    N     N_R   0.386350 0.929500 0.452620 -0.059344
N7    N     N_R   0.886350 0.570500 0.452620 -0.060259
N8    N     N_R   0.886350 0.429500 0.452620 -0.058856
C9    C     C_R   0.409830 0.805693 0.500954 0.318968
C10   C     C_R   0.438277 0.170243 0.568845 0.326748
C11   C     C_R   0.912524 0.308136 0.509640 0.331587
C12   C     C_R   0.909403 0.694204 0.501263 0.317825
N9    N     N_R   0.437960 0.869720 0.507940 -0.091902
N10   N     N_R   0.437960 0.130280 0.507940 -0.085019
N11   N     N_R   0.937960 0.369720 0.507940 -0.092718
N12   N     N_R   0.937960 0.630280 0.507940 -0.092934
C13   C     C_R   0.605257 0.193650 0.709852 -0.101944
C14   C     C_R   0.586491 0.832538 0.727546 -0.094039
C15   C     C_R   0.085969 0.667530 0.727439 -0.094604
C16   C     C_R   0.104652 0.307243 0.712107 -0.103121
H9    H     H_    0.580478 0.249096 0.682144 0.185127
H10   H     H_    0.559451 0.781830 0.712221 0.161127
H11   H     H_    0.058891 0.718565 0.712172 0.162382
H12   H     H_    0.079003 0.252877 0.688215 0.174651
N13   N     N_R   0.573630 0.128950 0.653340 -0.059190
N14   N     N_R   0.573630 0.871050 0.653340 -0.029436
N15   N     N_R   0.073630 0.628950 0.653340 -0.029496
N16   N     N_R   0.073630 0.371050 0.653340 -0.048037
C17   C     C_R   0.646773 0.863347 0.828749 -0.005970
C18   C     C_R   0.675914 0.179581 0.798626 0.048601
C19   C     C_R   0.175408 0.321241 0.800784 0.050577
C20   C     C_R   0.145920 0.636348 0.828648 -0.005410
C21   C     C_R   0.392248 0.133858 0.560487 -0.092118
C22   C     C_R   0.341281 0.821216 0.439882 -0.060235
C23   C     C_R   0.841070 0.678443 0.441315 -0.067645
C24   C     C_R   0.846992 0.327370 0.457028 -0.087769
C25   C     C_R   0.663108 0.099797 0.574481 -0.147934
C26   C     C_R   0.641446 0.917907 0.522088 -0.090257
C27   C     C_R   0.143186 0.582551 0.525362 -0.089134
C28   C     C_R   0.164042 0.396892 0.577032 -0.131972
H13   H     H_    0.712755 0.071474 0.625186 0.109711
H14   H     H_    0.684445 0.951366 0.553556 0.096722
H15   H     H_    0.186684 0.548760 0.558031 0.102101
H16   H     H_    0.214467 0.423628 0.630428 0.100637
N17   N     N_R   0.609990 0.071870 0.547380 -0.044709
N18   N     N_R   0.609990 0.928130 0.547380 -0.044883
N19   N     N_R   0.109990 0.571870 0.547380 -0.046069
N20   N     N_R   0.109990 0.428130 0.547380 -0.045958
C29   C     C_R   0.312607 0.891902 0.197342 -0.134172
C30   C     C_R   0.326861 0.085467 0.185302 -0.129555
C31   C     C_R   0.826790 0.414302 0.185461 -0.132500
C32   C     C_R   0.812752 0.608029 0.196870 -0.135117
H17   H     H_    0.261674 0.918610 0.139749 0.097112
H18   H     H_    0.277918 0.055223 0.122227 0.100478
H19   H     H_    0.777802 0.444765 0.123092 0.101789
H20   H     H_    0.761777 0.581759 0.138996 0.097283
N21   N     N_R   0.371090 0.922150 0.291340 -0.041849
N22   N     N_R   0.371090 0.077850 0.291340 -0.044205
N23   N     N_R   0.871090 0.422150 0.291340 -0.046631
N24   N     N_R   0.871090 0.577850 0.291340 -0.042344
C33   C     C_R   0.558979 0.826528 0.435040 -0.075090
C34   C     C_R   0.581756 0.192556 0.487413 -0.094413
C35   C     C_R   0.081984 0.305939 0.490225 -0.098263
C36   C     C_R   0.060587 0.674598 0.438260 -0.074528
H21   H     H_    0.525418 0.778347 0.386102 0.125033
H22   H     H_    0.556955 0.248342 0.458050 0.139808
H23   H     H_    0.058212 0.250059 0.467258 0.151555
H24   H     H_    0.027673 0.723584 0.390641 0.126406
N25   N     N_R   0.558380 0.869490 0.492060 -0.039001
N26   N     N_R   0.558380 0.130510 0.492060 -0.049521
N27   N     N_R   0.058380 0.369490 0.492060 -0.046195
N28   N     N_R   0.058380 0.630510 0.492060 -0.039683
C37   C     C_R   0.414121 0.165915 0.278687 -0.055901
C38   C     C_R   0.399072 0.810228 0.292177 -0.079665
C39   C     C_R   0.899226 0.689273 0.291799 -0.073783
C40   C     C_R   0.914163 0.333402 0.278592 -0.047851
H25   H     H_    0.448459 0.210666 0.303769 0.145489
H26   H     H_    0.428163 0.757568 0.328510 0.172767
H27   H     H_    0.928311 0.741746 0.327901 0.171058
H28   H     H_    0.948590 0.288174 0.303833 0.145217
N29   N     N_R   0.422710 0.124520 0.346660 -0.046546
N30   N     N_R   0.422710 0.875480 0.346660 -0.049569
N31   N     N_R   0.922710 0.624520 0.346660 -0.049355
N32   N     N_R   0.922710 0.375480 0.346660 -0.045861
Ni1   Ni    Ni4+2 0.616550 0.000000 0.626870 0.232924
Ni2   Ni    Ni4+2 0.116550 0.500000 0.626870 0.233252
Ni3   Ni    Ni4+2 0.379790 0.000000 0.373130 0.203913
Ni4   Ni    Ni4+2 0.879790 0.500000 0.373130 0.200082
Ni5   Ni    Ni4+2 0.498170 0.870760 0.500000 0.302055
Ni6   Ni    Ni4+2 0.498170 0.129240 0.500000 0.275178
Ni7   Ni    Ni4+2 0.998170 0.370760 0.500000 0.285426
Ni8   Ni    Ni4+2 0.998170 0.629240 0.500000 0.302718
C41   C     C_R   0.645137 0.173200 0.534286 0.082620
C42   C     C_R   0.609355 0.855583 0.450303 0.044686
C43   C     C_R   0.112298 0.645962 0.455923 0.046916
C44   C     C_R   0.146619 0.321625 0.540122 0.071802
C45   C     C_R   0.329639 0.819110 0.196120 0.032074
C46   C     C_R   0.353160 0.143153 0.174447 0.046746
C47   C     C_R   0.853321 0.356570 0.174266 0.045491
C48   C     C_R   0.829933 0.680365 0.195421 0.031393
C49   C     C_3   0.718473 0.207493 0.965708 -0.425706
C50   C     C_3   0.662764 0.794470 0.960487 -0.439962
C51   C     C_3   0.161801 0.706942 0.960116 -0.438598
C52   C     C_3   0.213898 0.288487 0.963106 -0.430600
H29   H     H_    0.662799 0.209476 0.916573 0.185872
H30   H     H_    0.613478 0.762313 0.892662 0.181737
H31   H     H_    0.112939 0.739920 0.892374 0.182327
H32   H     H_    0.157731 0.282880 0.910685 0.176173
H33   H     H_    0.737329 0.147794 0.996556 0.206734
H34   H     H_    0.649394 0.846366 0.976347 0.194053
H35   H     H_    0.147653 0.655840 0.975089 0.195373
H36   H     H_    0.229573 0.348419 0.994519 0.209475
C53   C     C_3   0.213487 0.757320 0.063048 -0.403046
C54   C     C_3   0.256129 0.232715 0.057829 -0.402686
C55   C     C_3   0.760218 0.262652 0.061388 -0.410000
C56   C     C_3   0.714145 0.743736 0.062853 -0.402479
H37   H     H_    0.222999 0.732507 0.127337 0.195086
H38   H     H_    0.281313 0.264080 0.132195 0.209187
H39   H     H_    0.788586 0.230091 0.136510 0.207351
H40   H     H_    0.723967 0.768993 0.127533 0.194824
H41   H     H_    0.723398 0.301931 0.045637 0.179028
H42   H     H_    0.688905 0.687286 0.041696 0.172489
H43   H     H_    0.188619 0.814234 0.042376 0.172518
H44   H     H_    0.219848 0.190472 0.038777 0.176317
H45   H     H_    0.658215 0.329151 0.833089 0.149064
H46   H     H_    0.667775 0.709530 0.843508 0.131706
H47   H     H_    0.168059 0.789486 0.844224 0.130912
H48   H     H_    0.161861 0.168028 0.829370 0.133005
H49   H     H_    0.242722 0.861203 0.992438 0.164896
H50   H     H_    0.244433 0.089437 0.971143 0.164112
H51   H     H_    0.739410 0.409276 0.972238 0.164410
H52   H     H_    0.742588 0.637729 0.991453 0.165980
C57   C     C_3   0.709151 0.316292 0.867805 0.057263
C58   C     C_3   0.715667 0.744282 0.909318 0.109449
C59   C     C_3   0.215673 0.754235 0.910199 0.109569
C60   C     C_3   0.213433 0.184781 0.868695 0.072939
C61   C     C_3   0.262192 0.634474 0.026749 -0.431774
C62   C     C_3   0.303076 0.289794 0.969691 -0.442955
C63   C     C_3   0.802790 0.216386 0.962265 -0.436215
C64   C     C_3   0.763382 0.864382 0.026435 -0.432129
C65   C     C_3   0.725900 0.229244 0.895512 0.217410
C66   C     C_3   0.696222 0.817991 0.929455 0.208064
C67   C     C_3   0.195461 0.681620 0.929622 0.207520
C68   C     C_3   0.225804 0.271826 0.897630 0.212877
H53   H     H_    0.286702 0.612542 0.006945 0.202636
H54   H     H_    0.313860 0.268620 0.928250 0.206300
H55   H     H_    0.810141 0.242436 0.918260 0.211270
H56   H     H_    0.787763 0.884807 0.006131 0.203283
H57   H     H_    0.815549 0.155093 0.969862 0.181521
H58   H     H_    0.748947 0.916624 0.039956 0.182852
H59   H     H_    0.247194 0.583187 0.039959 0.184537
H60   H     H_    0.313547 0.351931 0.980449 0.181624
C69   C     C_3   0.283298 0.765612 0.104269 0.193704
C70   C     C_3   0.310688 0.190660 0.075793 0.192077
C71   C     C_3   0.810856 0.309500 0.074956 0.196654
C72   C     C_3   0.783759 0.733842 0.103662 0.193301
C73   C     C_3   0.266677 0.803511 0.012734 -0.457310
C74   C     C_3   0.270274 0.138012 0.974787 -0.454443
C75   C     C_3   0.766027 0.363085 0.973585 -0.449037
C76   C     C_3   0.766695 0.695042 0.011737 -0.456525
C77   C     C_3   0.316124 0.683515 0.130301 0.334837
C78   C     C_3   0.353284 0.252415 0.083076 0.329037
C79   C     C_3   0.853846 0.252174 0.077230 0.325619
C80   C     C_3   0.817017 0.815336 0.129872 0.334137
H61   H     H_    0.315410 0.813317 0.040309 0.223035
H62   H     H_    0.307463 0.112267 0.980614 0.225402
H63   H     H_    0.800514 0.392085 0.976030 0.226883
H64   H     H_    0.815266 0.684281 0.038926 0.223650
C81   C     C_R   0.628153 0.820815 0.405084 0.116304
C82   C     C_R   0.678740 0.214483 0.520320 0.110731
C83   C     C_R   0.186859 0.266883 0.548273 0.120541
C84   C     C_R   0.133371 0.682286 0.415395 0.113925
C85   C     C_R   0.362814 0.162826 0.590982 0.151426
C86   C     C_R   0.287846 0.770329 0.405679 0.118571
C87   C     C_R   0.786508 0.730430 0.403558 0.119734
C88   C     C_R   0.804501 0.285515 0.453803 0.140271
C89   C     C_R   0.368978 0.232893 0.708462 -0.201745
C90   C     C_R   0.250304 0.645699 0.402213 -0.201581
C91   C     C_R   0.748822 0.855966 0.399763 -0.210695
C92   C     C_R   0.753039 0.169786 0.434977 -0.207960
C93   C     C_R   0.402607 0.198917 0.690846 -0.090831
C94   C     C_R   0.291656 0.689889 0.406649 -0.082012
C95   C     C_R   0.791189 0.810859 0.406449 -0.082235
C96   C     C_R   0.789891 0.207788 0.426899 -0.074418
C97   C     C_R   0.291260 0.152710 0.515133 -0.256623
C98   C     C_R   0.234291 0.804973 0.380932 -0.251951
C99   C     C_R   0.730355 0.697189 0.372322 -0.253296
C100  C     C_R   0.779781 0.326779 0.482249 -0.262389
C101  C     C_R   0.258165 0.182866 0.533590 0.162671
C102  C     C_R   0.193152 0.761960 0.376180 0.165313
C103  C     C_R   0.687990 0.741183 0.364874 0.164819
C104  C     C_R   0.742682 0.290306 0.489057 0.165117
C105  C     C_R   0.700456 0.820551 0.386769 0.171814
C106  C     C_R   0.730962 0.210659 0.468505 0.179047
C107  C     C_R   0.296186 0.227569 0.627759 0.175410
C108  C     C_R   0.204095 0.682106 0.394085 0.166319
C109  C     C_R   0.669219 0.860719 0.405167 -0.244140
C110  C     C_R   0.698998 0.173163 0.484736 -0.236684
C111  C     C_R   0.259771 0.269868 0.634765 -0.222636
C112  C     C_R   0.173067 0.642050 0.412345 -0.239993
C113  C     C_R   0.610085 0.743922 0.370572 -0.114779
C114  C     C_R   0.686013 0.293797 0.533891 -0.119079
C115  C     C_R   0.150580 0.215780 0.461271 -0.111794
C116  C     C_R   0.117757 0.760296 0.386868 -0.111647
C117  C     C_R   0.639199 0.704623 0.349226 -0.186532
C118  C     C_R   0.719110 0.332024 0.519502 -0.179891
C119  C     C_R   0.186269 0.173742 0.453959 -0.181010
C120  C     C_R   0.146847 0.799651 0.366092 -0.183447
H65   H     H_    0.681263 0.920780 0.427763 0.120151
H66   H     H_    0.689721 0.111894 0.469553 0.125139
H67   H     H_    0.287334 0.307940 0.703283 0.129956
H68   H     H_    0.183497 0.581369 0.431070 0.130131
H69   H     H_    0.578145 0.711299 0.368354 0.156021
H70   H     H_    0.667061 0.325456 0.556683 0.170505
H71   H     H_    0.094089 0.212667 0.394280 0.158641
H72   H     H_    0.087260 0.793198 0.388009 0.154531
H73   H     H_    0.756736 0.917445 0.411199 0.145337
H74   H     H_    0.743037 0.108916 0.417336 0.136106
H75   H     H_    0.399251 0.264626 0.783011 0.146947
H76   H     H_    0.257220 0.584021 0.411179 0.155443
H77   H     H_    0.157223 0.138123 0.382735 0.143505
H78   H     H_    0.137475 0.860819 0.350783 0.143841
H79   H     H_    0.628364 0.643936 0.330257 0.144820
H80   H     H_    0.726968 0.393414 0.533211 0.145328
H81   H     H_    0.458852 0.201359 0.754195 0.164565
H82   H     H_    0.327580 0.660986 0.414313 0.196255
H83   H     H_    0.828489 0.839187 0.417413 0.195973
H84   H     H_    0.807505 0.176907 0.401394 0.164580
H85   H     H_    0.259570 0.125179 0.437339 0.128587
H86   H     H_    0.228923 0.866707 0.377249 0.125286
H87   H     H_    0.723598 0.635710 0.365847 0.125014
H88   H     H_    0.791851 0.387192 0.503484 0.137367
I1    I     I_    0.342388 0.624787 0.258799 -0.331773
I2    I     I_    0.395717 0.347594 0.196237 -0.368488
I3    I     I_    0.902135 0.154982 0.188866 -0.385812
I4    I     I_    0.843376 0.875618 0.258315 -0.338875
I5    I     I_    0.410697 0.682085 0.177678 -0.404055
I6    I     I_    0.440868 0.202744 0.130665 -0.409128
I7    I     I_    0.937627 0.308739 0.121250 -0.408028
I8    I     I_    0.911634 0.814318 0.177296 -0.399604
I9    I     I_    0.698613 0.354483 0.747858 -0.408594
I10   I     I_    0.756170 0.764934 0.852471 -0.349588
I11   I     I_    0.256800 0.731267 0.854438 -0.356662
I12   I     I_    0.209730 0.154260 0.753701 -0.377128
N33   N     N_R   0.441678 0.731784 0.532192 0.210372
O1    O     O_R   0.447415 0.688499 0.594365 -0.414100
O2    O     O_R   0.478996 0.715779 0.521033 -0.396106
N34   N     N_R   0.460094 0.248560 0.598715 0.221589
O3    O     O_R   0.453255 0.292187 0.535588 -0.378187
O4    O     O_R   0.492503 0.274883 0.692491 -0.443973
N35   N     N_R   0.939767 0.232408 0.532758 0.211461
O5    O     O_R   0.943306 0.185704 0.590060 -0.402216
O6    O     O_R   0.963689 0.210878 0.499961 -0.405645
N36   N     N_R   0.940726 0.768128 0.532339 0.209595
O7    O     O_R   0.977189 0.784161 0.519833 -0.396753
O8    O     O_R   0.947466 0.811016 0.596316 -0.416589

loop_
_geom_bond_atom_site_label_1
_geom_bond_atom_site_label_2
_geom_bond_distance
_ccdc_geom_bond_type
N24   Ni4   1.930605 S    
C58   C76   1.524117 S    
C60   C68   1.558937 S    
C42   C81   1.458460 S    
C59   C73   1.523390 S    
N6    N9    1.438482 A    
C27   H15   1.079759 S    
N19   N28   1.424191 A    
C63   C65   1.560008 S    
C80   I4    2.174707 S    
N4    Ni2   1.847235 S    
C6    H6    1.081124 S    
C1    C17   1.380022 A    
C107  C111  1.388423 A    
C14   N14   1.329603 A    
C3    N3    1.324104 A    
N1    N14   1.410662 A    
C36   H24   1.073122 S    
C62   H60   1.103259 S    
C74   H62   1.110069 S    
C44   C83   1.434552 S    
C35   N27   1.320243 A    
C80   I8    2.191744 S    
C59   I11   2.169168 S    
C54   H38   1.112382 S    
C2    C18   1.376107 A    
N24   N31   1.287936 A    
N20   Ni2   1.847756 S    
N31   Ni8   1.884449 S    
C82   C114  1.393134 A    
C93   H81   1.080217 S    
C43   C84   1.456373 S    
H52   C76   1.114444 S    
N30   Ni5   1.884722 S    
C81   C113  1.406296 A    
C35   C44   1.368042 A    
C70   C78   1.586436 S    
C1    H1    1.075165 S    
C99   H87   1.080877 S    
C53   C69   1.561321 S    
C8    H8    1.082077 S    
C38   N30   1.321445 A    
C87   C95   1.406951 A    
C91   C105  1.400303 A    
N4    N15   1.405503 A    
C3    H3    1.077854 S    
N2    Ni1   1.847235 S    
C50   H30   1.112708 S    
N33   O1    1.300961 A    
N28   Ni8   1.898096 S    
C12   C23   1.397981 A    
H51   C75   1.109223 S    
C89   C107  1.401840 A    
C21   C85   1.450776 S    
C101  C107  1.412358 A    
C85   C93   1.401913 A    
C30   N22   1.328089 A    
C82   C110  1.391964 A    
C40   H28   1.067335 S    
C29   N21   1.322423 A    
C39   C48   1.362584 A    
C48   C72   1.464142 S    
C16   C19   1.380266 A    
C46   C70   1.479016 S    
N14   Ni5   1.882784 S    
C24   C88   1.417764 S    
C38   C45   1.362842 A    
C3    C19   1.377236 A    
C97   C101  1.367398 A    
C78   I6    2.166042 S    
C61   C77   1.534645 S    
C49   H29   1.114476 S    
C9    C22   1.393916 A    
C114  H70   1.080614 S    
C16   H12   1.077065 S    
C31   C47   1.383846 A    
C113  H69   1.078839 S    
C25   N17   1.321297 A    
C22   C86   1.468003 S    
C11   N35   1.428341 S    
C100  C104  1.360514 A    
C102  C120  1.390812 A    
N34   O3    1.300950 A    
C92   H74   1.084062 S    
C27   N19   1.341890 A    
C28   N20   1.338195 A    
C114  C118  1.376473 A    
N11   Ni7   1.898022 S    
C7    C23   1.391101 A    
C4    N4    1.313073 A    
C15   N15   1.330352 A    
C96   H84   1.082650 S    
N20   N27   1.429415 A    
C31   H19   1.079892 S    
N36   O7    1.300634 A    
C86   C94   1.405695 A    
C4    H4    1.074848 S    
N18   Ni1   1.847756 S    
C92   C106  1.399699 A    
C72   C80   1.580826 S    
C7    N7    1.326257 A    
C33   N25   1.322622 A    
C8    N8    1.315746 A    
N10   Ni6   1.897779 S    
N2    N13   1.405503 A    
C113  C117  1.376441 A    
C13   C18   1.377656 A    
C71   C79   1.586762 S    
C2    H2    1.078232 S    
C87   C99   1.397943 A    
N19   Ni2   1.858561 S    
N25   Ni5   1.897799 S    
C15   C20   1.391613 A    
C69   C77   1.579828 S    
C54   H44   1.113992 S    
C50   H34   1.113066 S    
C63   C79   1.549357 S    
C38   H26   1.073413 S    
N22   N29   1.287936 A    
C91   C95   1.396725 A    
C19   C68   1.472202 S    
C84   C116  1.405923 A    
C9    N9    1.341234 A    
N21   N30   1.283319 A    
C98   H86   1.082074 S    
C20   C67   1.468700 S    
C83   C111  1.397525 A    
C12   N36   1.428943 S    
N13   Ni6   1.882801 S    
C116  H72   1.079754 S    
H45   C57   1.113093 S    
C108  C112  1.394768 A    
C12   N12   1.341021 A    
C1    N1    1.313617 A    
N9    Ni5   1.898022 S    
C47   C71   1.478912 S    
C119  H77   1.084531 S    
C10   C21   1.400763 A    
C90   H76   1.083526 S    
C92   C96   1.384048 A    
N33   O2    1.300621 A    
C25   H13   1.081236 S    
C86   C98   1.397109 A    
C45   C69   1.463237 S    
C26   N18   1.342983 A    
C63   H55   1.109988 S    
C106  C110  1.367398 A    
C18   C65   1.472656 S    
C115  C119  1.371916 A    
C101  C119  1.391028 A    
C94   H82   1.078153 S    
N6    Ni3   1.842428 S    
C28   H16   1.081074 S    
C61   H53   1.105417 S    
C32   H20   1.081007 S    
N8    Ni4   1.842428 S    
C26   C42   1.400483 A    
C59   C67   1.564506 S    
C61   C67   1.555795 S    
C7    H7    1.079718 S    
C6    C22   1.387293 A    
C62   C68   1.559838 S    
C55   H41   1.114083 S    
C63   H57   1.104264 S    
N22   Ni3   1.930605 S    
C9    N33   1.429113 S    
C60   I12   2.161302 S    
C49   C55   1.523619 S    
N7    Ni4   1.831736 S    
C53   H43   1.111504 S    
C50   C66   1.545633 S    
C64   H58   1.112066 S    
C56   H42   1.111640 S    
C56   H40   1.111033 S    
C77   I1    2.173459 S    
N17   Ni1   1.858561 S    
C88   C100  1.390038 A    
C5    N5    1.325355 A    
N3    N16   1.410662 A    
C50   C56   1.538649 S    
C112  H68   1.083717 S    
C6    N6    1.329248 A    
C57   I9    2.155944 S    
N3    Ni2   1.857836 S    
C100  H88   1.086372 S    
C14   C17   1.391229 A    
C32   C48   1.371277 A    
C5    C21   1.391434 A    
N29   Ni6   1.884449 S    
C104  C106  1.412480 A    
C61   H59   1.112062 S    
C117  H79   1.084550 S    
C53   H37   1.111024 S    
C84   C112  1.402089 A    
C11   N11   1.329797 A    
C98   C102  1.376646 A    
N23   Ni4   1.919552 S    
C83   C115  1.401316 A    
N36   O8    1.301072 A    
C16   N16   1.328616 A    
C31   N23   1.325083 A    
C2    N2    1.326275 A    
N34   O4    1.299699 A    
C116  C120  1.376166 A    
C23   C87   1.471850 S    
C11   C24   1.383069 A    
C40   N32   1.327217 A    
C4    C20   1.378499 A    
C26   H14   1.078350 S    
N16   Ni7   1.882784 S    
C25   C41   1.373905 A    
C76   H64   1.110591 S    
C37   C46   1.372440 A    
N32   Ni7   1.884722 S    
C89   H75   1.083510 S    
H47   C59   1.113154 S    
C30   C46   1.384235 A    
C51   C67   1.545399 S    
C27   C43   1.400839 A    
C14   H10   1.076094 S    
C75   H63   1.110215 S    
C29   C45   1.369166 A    
C62   H54   1.110004 S    
C49   C65   1.554380 S    
C17   C66   1.468951 S    
C8    C24   1.376390 A    
C115  H71   1.083418 S    
C34   H22   1.081340 S    
N27   Ni7   1.897799 S    
C57   C75   1.540905 S    
N35   O5    1.300426 A    
C52   H36   1.113534 S    
C10   N10   1.338956 A    
C36   N28   1.321954 A    
C55   C71   1.550082 S    
C70   C74   1.563190 S    
C51   H31   1.112716 S    
C41   C82   1.410217 S    
C32   N24   1.323592 A    
C97   H85   1.083940 S    
C77   I5    2.190996 S    
N5    N10   1.443754 A    
C58   C66   1.564439 S    
C55   H39   1.112435 S    
C5    H5    1.078696 S    
C105  C109  1.394723 A    
C89   C93   1.395595 A    
C13   N13   1.329572 A    
N7    N12   1.443754 A    
H46   C58   1.113100 S    
C64   C66   1.554884 S    
N26   Ni6   1.898096 S    
H49   C73   1.114470 S    
N8    N11   1.438482 A    
C79   I7    2.163172 S    
H48   C60   1.112494 S    
C39   N31   1.320069 A    
C52   C68   1.552331 S    
C52   C54   1.522585 S    
C35   H23   1.082028 S    
C64   C80   1.534803 S    
C34   N26   1.326774 A    
C90   C94   1.396934 A    
C85   C97   1.393296 A    
C71   C75   1.564387 S    
C54   C70   1.551511 S    
C29   H17   1.080997 S    
C15   H11   1.075934 S    
H50   C74   1.110733 S    
C36   C43   1.382653 A    
C118  H80   1.084218 S    
N23   N32   1.283319 A    
C51   C53   1.538656 S    
C52   H32   1.114217 S    
C81   C109  1.402652 A    
C34   C41   1.368893 A    
C111  H67   1.084275 S    
N15   Ni8   1.882801 S    
C88   C96   1.395554 A    
C37   H25   1.066008 S    
C33   C42   1.382435 A    
C110  H66   1.086050 S    
C40   C47   1.374617 A    
C13   H9    1.076162 S    
C95   H83   1.077294 S    
C90   C108  1.401102 A    
C109  H65   1.083666 S    
N17   N26   1.424191 A    
C104  C118  1.396344 A    
C73   H61   1.110650 S    
N5    Ni3   1.831736 S    
C62   C78   1.546247 S    
C102  C108  1.411261 A    
N21   Ni3   1.919552 S    
C10   N34   1.430960 S    
C30   H18   1.080635 S    
C64   H56   1.105892 S    
C39   H27   1.072949 S    
N1    Ni1   1.857836 S    
C33   H21   1.072381 S    
N12   Ni8   1.897779 S    
C37   N29   1.325378 A    
C60   C74   1.544678 S    
C103  C105  1.410819 A    
C69   C73   1.549188 S    
N18   N25   1.429415 A    
C91   H73   1.083687 S    
C99   C103  1.377395 A    
C56   C72   1.560850 S    
C57   C65   1.558555 S    
C79   I3    2.190381 S    
C49   H33   1.113409 S    
C120  H78   1.084552 S    
C28   C44   1.387895 A    
C58   I10   2.168847 S    
N35   O6    1.300782 A    
C51   H35   1.113054 S    
C72   C76   1.549079 S    
C103  C117  1.390687 A    
C78   I2    2.193983 S    
