data_mof_unit_39784.cif
_audit_creation_date              2013-03-05T16:12:45-0500
_audit_creation_method            fapswitch 2.2
_symmetry_space_group_name_H-M    P1
_symmetry_Int_Tables_number       1
_space_group_crystal_system       triclinic
_cell_length_a                    10.677114
_cell_length_b                    9.823243
_cell_length_c                    27.61931
_cell_angle_alpha                 90.235476
_cell_angle_beta                  91.270972
_cell_angle_gamma                 90.060847
_cell_volume                      2896.08146895

loop_
_atom_site_label
_atom_site_type_symbol
_atom_site_description
_atom_site_fract_x
_atom_site_fract_y
_atom_site_fract_z
_atom_type_partial_charge
O1    O     O_R   0.316770 0.614620 0.500000 -0.632225
O2    O     O_R   0.683230 0.385380 0.500000 -0.640515
O3    O     O_R   0.683230 0.614620 0.500000 -0.624938
O4    O     O_R   0.316770 0.385380 0.500000 -0.625825
C1    C     C_R   0.259883 0.499923 0.500146 0.864683
C2    C     C_R   0.740119 0.500028 0.500163 0.853568
O5    O     O_R   0.500030 0.614650 0.428760 -0.569276
O6    O     O_R   0.499970 0.385350 0.571240 -0.566163
O7    O     O_R   0.499970 0.614650 0.571240 -0.635064
O8    O     O_R   0.500030 0.385350 0.428760 -0.632888
C3    C     C_R   0.496064 0.499804 0.406066 0.909802
C4    C     C_R   0.502842 0.500440 0.594139 0.898282
Zn1   Zn    Zn3+2 0.500000 0.653120 0.500000 0.960353
Zn2   Zn    Zn3+2 0.500000 0.346880 0.500000 0.959433
C5    C     C_R   0.361269 0.490840 0.174094 0.511591
C6    C     C_R   0.622808 0.529728 0.826657 0.512190
O9    O     O_2   0.256450 0.446103 0.195380 -0.573531
O10   O     O_2   0.734349 0.522528 0.804742 -0.566933
N1    N     N_R   0.465484 0.520993 0.201660 -0.343965
N2    N     N_R   0.514113 0.526046 0.799572 -0.343733
C7    C     C_R   0.572795 0.568194 0.181564 0.544171
C8    C     C_R   0.399429 0.533516 0.820401 0.543577
C9    C     C_R   0.535157 0.406376 0.275852 -0.096285
C10   C     C_R   0.476971 0.631145 0.720895 -0.104859
C11   C     C_R   0.544304 0.402831 0.326099 -0.291472
C12   C     C_R   0.471346 0.622771 0.670853 -0.291058
C13   C     C_R   0.401433 0.595568 0.330672 0.439933
C14   C     C_R   0.560268 0.394376 0.674262 0.472195
C15   C     C_R   0.394925 0.600065 0.280202 -0.207933
C16   C     C_R   0.560090 0.401890 0.724972 -0.215213
C17   C     C_R   0.462417 0.506605 0.252945 0.253584
C18   C     C_R   0.519302 0.520201 0.748040 0.255233
C19   C     C_R   0.474614 0.550490 0.102118 -0.057022
C20   C     C_R   0.501181 0.552225 0.899256 -0.058545
C21   C     C_R   0.363568 0.505715 0.123723 0.007081
C22   C     C_R   0.618429 0.542610 0.877141 -0.001952
C23   C     C_R   0.258696 0.474440 0.094636 -0.206157
C24   C     C_R   0.727949 0.544222 0.905829 -0.172510
C25   C     C_R   0.579588 0.582775 0.131355 -0.089033
C26   C     C_R   0.390823 0.547980 0.870520 -0.095018
C27   C     C_R   0.480988 0.499890 0.353600 -0.143106
C28   C     C_R   0.510199 0.503968 0.647111 -0.147491
H1    H     H_    0.339181 0.677642 0.262183 0.155809
H2    H     H_    0.590684 0.315614 0.746456 0.150876
H3    H     H_    0.173372 0.436200 0.110201 0.190638
H4    H     H_    0.819102 0.532658 0.889840 0.193200
C29   C     C_R   0.375309 0.561370 0.971970 -0.073303
C30   C     C_R   0.597124 0.592120 0.029677 -0.054558
C31   C     C_R   0.605709 0.574225 0.978801 0.093327
C32   C     C_R   0.370719 0.541482 0.022535 0.090681
C33   C     C_R   0.494092 0.563479 0.950130 -0.000418
C34   C     C_R   0.480760 0.562245 0.051340 0.002985
C35   C     C_R   0.266338 0.578171 0.942137 0.466827
C36   C     C_R   0.700051 0.636011 0.059680 0.462601
C37   C     C_R   0.274618 0.562977 0.892048 -0.243658
C38   C     C_R   0.688005 0.632054 0.110311 -0.261356
O11   O     O_2   0.294053 0.526863 0.792521 -0.555604
O12   O     O_2   0.672543 0.600872 0.210239 -0.561850
C39   C     C_R   0.261990 0.492349 0.044861 -0.187468
C40   C     C_R   0.721729 0.558339 0.955815 -0.156949
H5    H     H_    0.434928 0.709068 0.650729 0.187997
H6    H     H_    0.603696 0.327227 0.343455 0.177519
H7    H     H_    0.445418 0.722818 0.738794 0.154607
H8    H     H_    0.587534 0.334131 0.254607 0.153219
H9    H     H_    0.189309 0.566597 0.870097 0.202007
H10   H     H_    0.763212 0.668496 0.133732 0.197441
H11   H     H_    0.180361 0.459548 0.024213 0.195505
H12   H     H_    0.808901 0.548752 0.975958 0.183105
C41   C     C_R   0.063111 0.382827 0.485481 -0.205760
C42   C     C_R   0.936905 0.616048 0.516455 -0.193945
C43   C     C_R   0.934946 0.382864 0.485502 -0.206324
C44   C     C_R   0.065172 0.615930 0.516506 -0.199078
H13   H     H_    0.111437 0.292752 0.472985 0.155168
H14   H     H_    0.888440 0.706180 0.528813 0.152951
H15   H     H_    0.884993 0.292729 0.473081 0.161347
H16   H     H_    0.115250 0.706058 0.528851 0.157831
C45   C     C_R   0.872505 0.499750 0.500702 -0.011692
C46   C     C_R   0.127544 0.499581 0.500748 -0.013640
C47   C     C_R   0.574507 0.072405 0.531972 -0.047186
C48   C     C_R   0.425657 0.927577 0.467976 -0.061386
C49   C     C_R   0.425518 0.071579 0.468013 -0.075132
C50   C     C_R   0.574499 0.928408 0.531982 -0.078573
H17   H     H_    0.633989 0.127296 0.557512 0.145442
H18   H     H_    0.366585 0.872618 0.442317 0.155883
H19   H     H_    0.366001 0.125918 0.442469 0.127914
H20   H     H_    0.634037 0.874058 0.557517 0.125820
N3    N     N_R   0.500000 0.857200 0.500000 -0.083799
N4    N     N_R   0.500000 0.142800 0.500000 -0.083392
O13   O     O_3   0.333488 0.687644 0.357523 -0.641560
C51   C     C_3   0.208308 0.641427 0.359241 0.075614
H21   H     H_    0.204191 0.538482 0.376068 0.127361
H22   H     H_    0.165056 0.637040 0.322154 0.159856
C52   C     C_3   0.132420 0.739974 0.389859 -0.342332
H23   H     H_    0.171032 0.741227 0.427512 0.227750
H24   H     H_    0.139865 0.844421 0.374850 0.226259
C53   C     C_3   0.994613 0.698667 0.390624 -0.911446
H25   H     H_    0.952231 0.703970 0.353589 0.272351
H26   H     H_    0.942981 0.768941 0.414622 0.266706
H27   H     H_    0.984949 0.593391 0.404538 0.274240
O14   O     O_3   0.601667 0.277626 0.651230 -0.637498
C54   C     C_3   0.732877 0.262531 0.658234 0.056510
H28   H     H_    0.755548 0.153416 0.652397 0.164493
H29   H     H_    0.766068 0.287544 0.695759 0.153713
C55   C     C_3   0.804445 0.347076 0.621335 -0.377818
H30   H     H_    0.774778 0.315467 0.584261 0.237846
H31   H     H_    0.782590 0.456851 0.625995 0.210180
C56   C     C_3   0.945684 0.327240 0.627068 -0.896689
H32   H     H_    0.978183 0.358944 0.663899 0.278641
H33   H     H_    0.994452 0.390366 0.600045 0.277581
H34   H     H_    0.970546 0.218818 0.621022 0.258323
O15   O     O_3   0.152258 0.612998 0.961726 -0.685651
C57   C     C_3   0.119964 0.748751 0.949393 0.057935
H35   H     H_    0.019279 0.762714 0.957382 0.186539
H36   H     H_    0.128671 0.769810 0.910031 0.144779
C58   C     C_3   0.196972 0.852174 0.979466 -0.370087
H37   H     H_    0.191742 0.826577 0.018425 0.236874
H38   H     H_    0.296784 0.847766 0.969012 0.221535
C59   C     C_3   0.149059 0.996888 0.971666 -0.921895
H39   H     H_    0.155849 0.025456 0.932939 0.271064
H40   H     H_    0.206626 0.069045 0.993825 0.268309
H41   H     H_    0.050018 0.005326 0.982779 0.263135
O16   O     O_3   0.800740 0.703154 0.038900 -0.655144
C60   C     C_3   0.917758 0.675445 0.062223 0.035569
H42   H     H_    0.985823 0.649689 0.033911 0.191681
H43   H     H_    0.917084 0.584749 0.086372 0.132603
C61   C     C_3   0.965180 0.803088 0.089056 -0.335917
H44   H     H_    0.987024 0.883226 0.062253 0.228621
H45   H     H_    0.891414 0.843881 0.112787 0.232052
C62   C     C_3   0.082088 0.773496 0.119992 -0.920795
H46   H     H_    0.062006 0.694241 0.147335 0.282702
H47   H     H_    0.112698 0.867747 0.139183 0.269024
H48   H     H_    0.159440 0.738422 0.096944 0.268393

loop_
_geom_bond_atom_site_label_1
_geom_bond_atom_site_label_2
_geom_bond_distance
_ccdc_geom_bond_type
C16   C18   1.397719 A    
C52   H23   1.110154 S    
C13   C15   1.395012 A    
O15   C57   1.418704 S    
C44   H16   1.083703 S    
O3    C2    1.279637 A    
N1    C17   1.425153 S    
C8    O11   1.350575 S    
C57   H36   1.113391 S    
C60   H42   1.107965 S    
C19   C34   1.410628 A    
C30   C36   1.426863 A    
C20   C33   1.412700 A    
C54   H28   1.111014 S    
C31   C40   1.412944 A    
O1    C1    1.279477 A    
C32   C39   1.412055 A    
N1    C7    1.365655 A    
C12   H5    1.083395 S    
C10   C12   1.384195 A    
C48   N3    1.365777 A    
C60   H43   1.115229 S    
C50   N3    1.365585 A    
C53   H27   1.110230 S    
C5    C21   1.400210 A    
C41   C43   1.368448 A    
O7    Zn1   2.005090 S    
C59   H39   1.110821 S    
C55   H30   1.108170 S    
C44   C46   1.396278 A    
C39   H11   1.079133 S    
C5    N1    1.365802 A    
C31   C33   1.419736 A    
C53   H26   1.110419 S    
C42   H14   1.083740 S    
C32   C34   1.418340 A    
C56   H32   1.110729 S    
C41   H13   1.083810 S    
C20   C22   1.408144 A    
O3    Zn1   1.992982 S    
O6    C4    1.293175 A    
C29   C35   1.420871 A    
C62   H48   1.108220 S    
C14   O14   1.386689 S    
C36   O16   1.396114 S    
C52   H24   1.111601 S    
C15   H1    1.083333 S    
C42   C45   1.395782 A    
C56   H33   1.110430 S    
C16   H2    1.083145 S    
C41   C46   1.395688 A    
O2    C2    1.278950 A    
C55   H31   1.111111 S    
C47   N4    1.365945 A    
C37   H9    1.083622 S    
C29   C32   1.412882 A    
C35   C37   1.395602 A    
C36   C38   1.407850 A    
C43   H15   1.083742 S    
C4    C28   1.463677 S    
C48   H18   1.080664 S    
O8    Zn2   2.005095 S    
C11   C27   1.400411 A    
O4    C1    1.279257 A    
C60   C61   1.533675 S    
C29   C33   1.416600 A    
O6    Zn2   2.002040 S    
C61   C62   1.525827 S    
C58   H38   1.111129 S    
C50   H20   1.081874 S    
C59   H41   1.110726 S    
C9    C17   1.399222 A    
O5    C3    1.288531 A    
C10   C18   1.395297 A    
C13   C27   1.410174 A    
C51   H22   1.114873 S    
C25   C38   1.393954 A    
C7    C25   1.398190 A    
C30   C34   1.421770 A    
C6    N2    1.367092 A    
C58   C59   1.525820 S    
C8    C26   1.396016 A    
C53   H25   1.110735 S    
Zn1   N3    2.004727 S    
C19   C25   1.402088 A    
C55   C56   1.525597 S    
C23   C39   1.387902 A    
C24   C40   1.390040 A    
C6    O10   1.349629 S    
C9    H8    1.082905 S    
N2    C8    1.366308 A    
C10   H7    1.083151 S    
C56   H34   1.110765 S    
C20   C26   1.406477 A    
O1    Zn1   1.992193 S    
C23   H3    1.083435 S    
O13   C51   1.412963 S    
C43   C45   1.396126 A    
C12   C28   1.403869 A    
C51   C52   1.527787 S    
C62   H46   1.110888 S    
N2    C18   1.426512 S    
C5    O9    1.349652 S    
C30   C31   1.420374 A    
C61   H45   1.109908 S    
C14   C28   1.413200 A    
C21   C23   1.396743 A    
C48   C49   1.414569 A    
C2    C45   1.413247 S    
C26   C37   1.395368 A    
C47   C50   1.414523 A    
C52   C53   1.526510 S    
C14   C16   1.402262 A    
C1    C46   1.413468 S    
Zn2   N4    2.004727 S    
C7    O12   1.350660 S    
C15   C17   1.395969 A    
C6    C22   1.401366 A    
C47   H17   1.080715 S    
C35   O15   1.386363 S    
C51   H21   1.115910 S    
C61   H44   1.110952 S    
C38   H10   1.079732 S    
C22   C24   1.397925 A    
O14   C54   1.417991 S    
C19   C21   1.409870 A    
C13   O13   1.383500 S    
C57   H35   1.110751 S    
C11   H6    1.083482 S    
C9    C11   1.389633 A    
O4    Zn2   1.992982 S    
O2    Zn2   1.992193 S    
O7    C4    1.290221 A    
C59   H40   1.110682 S    
C24   H4    1.083522 S    
C49   N4    1.365635 A    
O8    C3    1.289754 A    
O5    Zn1   2.002045 S    
C40   H12   1.078095 S    
C54   H29   1.114246 S    
C3    C27   1.454444 S    
C42   C44   1.369494 A    
C54   C55   1.533754 S    
O16   C60   1.420056 S    
C57   C58   1.535936 S    
C49   H19   1.081854 S    
C58   H37   1.108619 S    
C62   H47   1.110219 S    
