data_mof_unit_37039.cif
_audit_creation_date              2012-10-26T20:16:50-0400
_audit_creation_method            fapswitch 2.2
_symmetry_space_group_name_H-M    P1
_symmetry_Int_Tables_number       1
_space_group_crystal_system       triclinic
_cell_length_a                    10.925745
_cell_length_b                    10.868516
_cell_length_c                    10.535834
_cell_angle_alpha                 91.091136
_cell_angle_beta                  89.777897
_cell_angle_gamma                 90.675405
_cell_volume                      1250.77271377

loop_
_atom_site_label
_atom_site_type_symbol
_atom_type_description
_atom_site_fract_x
_atom_site_fract_y
_atom_site_fract_z
_atom_type_partial_charge
C1    C     C_R   0.497216 0.261746 0.498583 0.542905
C2    C     C_R   0.694263 0.862531 0.754342 -0.082256
C3    C     C_R   0.429497 0.110193 0.264506 0.056915
C4    C     C_R   0.570525 0.889802 0.735496 0.056910
C5    C     C_R   0.512091 0.118194 0.162423 -0.077331
C6    C     C_R   0.487920 0.881779 0.837569 -0.077315
C7    C     C_R   0.471217 0.154060 0.043166 -0.115126
C8    C     C_R   0.528789 0.845906 0.956827 -0.115114
C9    C     C_R   0.347942 0.181117 0.024965 -0.110702
C10   C     C_R   0.652066 0.818863 0.975039 -0.110713
C11   C     C_R   0.473306 0.930526 0.391005 -0.158458
C12   C     C_R   0.502796 0.738254 0.501419 0.542903
C13   C     C_R   0.526722 0.069474 0.609000 -0.158453
C14   C     C_R   0.503569 0.871925 0.503591 -0.001511
C15   C     C_R   0.496455 0.128077 0.496413 -0.001510
C16   C     C_R   0.261971 0.510380 0.500267 0.544832
C17   C     C_R   0.738030 0.489625 0.499727 0.544828
C18   C     C_R   0.531109 0.942378 0.614155 -0.035398
C19   C     C_R   0.468917 0.057623 0.385847 -0.035397
C20   C     C_1   0.500297 0.499902 0.072277 0.077610
C21   C     C_1   0.499696 0.500100 0.927723 0.077586
C22   C     C_R   0.223722 0.732682 0.166855 -0.113182
C23   C     C_R   0.872904 0.481899 0.499911 -0.038367
C24   C     C_R   0.776285 0.267317 0.833120 -0.113184
C25   C     C_R   0.156174 0.686917 0.268415 -0.076605
C26   C     C_R   0.843855 0.313077 0.731574 -0.076631
C27   C     C_R   0.118687 0.562647 0.268525 0.059545
C28   C     C_R   0.881322 0.437353 0.731452 0.059531
C29   C     C_R   0.146248 0.485799 0.164599 -0.060336
C30   C     C_R   0.853731 0.514209 0.835363 -0.060323
C31   C     C_R   0.213990 0.531690 0.063413 -0.072771
C32   C     C_R   0.785959 0.468328 0.936530 -0.072722
C33   C     C_R   0.254027 0.654653 0.065353 -0.071408
C34   C     C_R   0.127098 0.518108 0.500075 -0.038365
C35   C     C_R   0.745939 0.345357 0.934598 -0.071381
C36   C     C_R   0.938359 0.482025 0.385211 -0.040034
C37   C     C_R   0.061638 0.517999 0.614775 -0.040020
C38   C     C_1   0.886572 0.422597 0.274651 0.210676
C39   C     C_1   0.113404 0.577493 0.725309 0.210649
C40   C     C_R   0.937435 0.487458 0.615321 -0.054240
C41   C     C_R   0.062571 0.512547 0.384661 -0.054245
C42   C     C_R   0.265186 0.171912 0.125885 -0.120192
C43   C     C_R   0.734831 0.828089 0.874130 -0.120203
C44   C     C_R   0.305761 0.137480 0.245671 -0.082240
Cu1   Cu    Cu3+1 0.500000 0.500000 0.625300 1.002015
Cu2   Cu    Cu3+1 0.500000 0.500000 0.374700 1.002026
H1    H     H_    0.308874 0.689391 0.988060 0.135216
H2    H     H_    0.745773 0.172172 0.832162 0.099183
H3    H     H_    0.136116 0.747103 0.348789 0.096513
H4    H     H_    0.863935 0.252884 0.651212 0.096515
H5    H     H_    0.118946 0.390028 0.164214 0.108901
H6    H     H_    0.881016 0.609983 0.835742 0.108910
H7    H     H_    0.237599 0.471063 0.984639 0.127257
H8    H     H_    0.762315 0.528968 0.015283 0.127258
H9    H     H_    0.316251 0.207384 0.932225 0.114430
H10   H     H_    0.683753 0.792582 0.067780 0.114428
H11   H     H_    0.169112 0.188891 0.110553 0.106218
H12   H     H_    0.691076 0.310623 0.011883 0.135194
H13   H     H_    0.830906 0.811108 0.889476 0.106233
H14   H     H_    0.240389 0.128392 0.322565 0.100293
H15   H     H_    0.759642 0.871639 0.677451 0.100294
H16   H     H_    0.607211 0.094222 0.174613 0.113022
H17   H     H_    0.392796 0.905742 0.825365 0.113029
H18   H     H_    0.534354 0.158105 0.964000 0.102980
H19   H     H_    0.465646 0.841838 0.035989 0.102977
H20   H     H_    0.450444 0.877104 0.306151 0.131278
H21   H     H_    0.549585 0.122894 0.693858 0.131271
H22   H     H_    0.254247 0.827822 0.167820 0.099187
N1    N     N_1   0.500010 0.499990 0.186410 -0.185499
N2    N     N_1   0.499990 0.500010 0.813590 -0.185512
N3    N     N_1   0.845807 0.370165 0.188351 -0.342159
N4    N     N_1   0.154143 0.629983 0.811585 -0.342179
O1    O     O_R   0.499990 0.319650 0.605810 -0.512773
O2    O     O_R   0.500010 0.680350 0.394190 -0.512780
O3    O     O_R   0.499990 0.319640 0.394190 -0.484484
O4    O     O_R   0.500010 0.680360 0.605810 -0.484484
O5    O     O_R   0.319640 0.500010 0.605810 -0.488465
O6    O     O_R   0.680360 0.499990 0.394190 -0.488465
O7    O     O_R   0.319650 0.500010 0.394190 -0.488496
O8    O     O_R   0.680350 0.499990 0.605810 -0.488492

loop_
_geom_bond_atom_site_label_1
_geom_bond_atom_site_label_2
_ccdc_geom_bond_type
C12   O2    A    
C27   C29   A    
C34   C37   A    
C14   C18   A    
Cu1   Cu2   S    
C15   C19   A    
C11   C19   A    
C9    C42   A    
C17   C23   S    
C13   C18   A    
Cu1   O4    S    
C24   C26   A    
C37   C40   A    
C26   H4    S    
C29   H5    S    
Cu2   O7    S    
C11   C14   A    
C28   C40   S    
C23   C40   A    
Cu1   O1    S    
C16   O5    A    
Cu2   N1    S    
C35   H12   S    
C16   C34   S    
C22   C25   A    
C39   N4    T    
C31   C33   A    
C3    C19   S    
C1    C15   S    
C10   H10   S    
C2    H15   S    
C43   H13   S    
C4    C18   S    
Cu1   N2    S    
C8    H19   S    
C36   C41   A    
C34   C41   A    
C42   C44   A    
C42   H11   S    
C32   H8    S    
Cu2   O3    S    
C37   C39   S    
C3    C44   A    
C24   C35   A    
C1    O3    A    
C32   C35   A    
C4    C6    A    
C5    C7    A    
C6    C8    A    
C17   O8    A    
C24   H2    S    
C6    H17   S    
C2    C4    A    
C27   C41   S    
C13   C15   A    
C2    C43   A    
C31   H7    S    
C22   H22   S    
C9    H9    S    
C12   C14   S    
C12   O4    A    
C33   H1    S    
C20   N1    T    
Cu2   O2    S    
Cu2   O6    S    
C13   H21   S    
C7    C9    A    
C22   C33   A    
C30   H6    S    
C38   N3    T    
C10   C43   A    
C3    C5    A    
C11   H20   S    
C25   C27   A    
C26   C28   A    
C21   N2    T    
C16   O7    A    
C1    O1    A    
C28   C30   A    
C29   C31   A    
C30   C32   A    
C44   H14   S    
C36   C38   S    
C17   O6    A    
C5    H16   S    
Cu1   O8    S    
C25   H3    S    
C7    H18   S    
C20   C21   S    
C8    C10   A    
C23   C36   A    
Cu1   O5    S    
