data_mof_unit_63230.cif
_audit_creation_date              2013-03-05T15:47:25-0500
_audit_creation_method            fapswitch 2.2
_symmetry_space_group_name_H-M    P1
_symmetry_Int_Tables_number       1
_space_group_crystal_system       triclinic
_cell_length_a                    10.215474
_cell_length_b                    10.583702
_cell_length_c                    14.166198
_cell_angle_alpha                 89.746844
_cell_angle_beta                  81.521427
_cell_angle_gamma                 93.272101
_cell_volume                      1512.27806642

loop_
_atom_site_label
_atom_site_type_symbol
_atom_site_description
_atom_site_fract_x
_atom_site_fract_y
_atom_site_fract_z
_atom_type_partial_charge
O1    O     O_R   0.431050 0.692470 0.507130 -0.580276
O2    O     O_R   0.568950 0.307530 0.492870 -0.580507
O3    O     O_R   0.651120 0.659650 0.484400 -0.598584
O4    O     O_R   0.348880 0.340350 0.515600 -0.608691
C1    C     C_R   0.553418 0.733937 0.489662 0.956103
C2    C     C_R   0.446578 0.266107 0.500809 0.958947
O5    O     O_R   0.389940 0.516410 0.637650 -0.598727
O6    O     O_R   0.610060 0.483590 0.362350 -0.579318
O7    O     O_R   0.610010 0.483590 0.614920 -0.604855
O8    O     O_R   0.389990 0.516410 0.385080 -0.576856
C3    C     C_R   0.499786 0.500018 0.670830 0.872684
C4    C     C_R   0.500250 0.500168 0.329158 0.975133
Zn1   Zn    Zn3+2 0.353060 0.521920 0.515180 1.003832
Zn2   Zn    Zn3+2 0.646940 0.478080 0.484820 1.001187
C5    C     C_1   0.499490 0.500151 0.772344 -0.180950
C6    C     C_1   0.500571 0.500190 0.227636 -0.074165
C7    C     C_1   0.499571 0.500213 0.857561 0.009822
C8    C     C_1   0.500508 0.500207 0.142429 0.045254
C9    C     C_1   0.499885 0.500234 0.957406 0.037895
C10   C     C_1   0.500204 0.500228 0.042592 0.044472
C11   C     C_2   0.578018 0.868351 0.468811 -0.445339
C12   C     C_2   0.421753 0.131853 0.485591 -0.453451
C13   C     C_2   0.493146 0.931652 0.424361 0.268587
C14   C     C_2   0.505606 0.068794 0.422646 0.266916
H1    H     H_    0.339498 0.081765 0.530614 0.161731
H2    H     H_    0.660907 0.918222 0.495377 0.160845
H3    H     H_    0.106216 0.400102 0.458112 0.166349
H4    H     H_    0.885672 0.564760 0.570931 0.166069
N1    N     N_2   0.842710 0.448890 0.464580 -0.146827
N2    N     N_2   0.157290 0.551110 0.535420 -0.134272
C15   C     C_2   0.925243 0.501834 0.514972 -0.131284
C16   C     C_2   0.070530 0.479902 0.500132 -0.113871
C17   C     C_1   0.118373 0.659203 0.585233 0.348824
N3    N     N_1   0.086431 0.749133 0.626586 -0.223183
C18   C     C_1   0.889092 0.372220 0.388654 0.368232
N4    N     N_1   0.927442 0.308612 0.325489 -0.143635
N5    N     N_R   0.604832 0.131069 0.352307 0.231580
O9    O     O_R   0.573730 0.225102 0.302277 -0.395940
O10   O     O_R   0.714332 0.076537 0.323348 -0.359322
N6    N     N_R   0.392884 0.869456 0.376444 0.236363
O11   O     O_R   0.281100 0.921732 0.374333 -0.363069
O12   O     O_R   0.423756 0.777375 0.318424 -0.387705

loop_
_geom_bond_atom_site_label_1
_geom_bond_atom_site_label_2
_geom_bond_distance
_ccdc_geom_bond_type
N2    C16   1.288845 D    
O7    Zn2   1.827810 S    
N5    O9    1.299983 A    
N1    C18   1.393250 S    
C18   N4    1.157343 T    
O6    C4    1.299038 A    
C11   H2    1.087167 S    
N6    O12   1.300205 A    
C14   N5    1.440439 S    
N5    O10   1.301197 A    
C15   C16   1.499541 S    
O5    C3    1.298939 A    
O7    C3    1.298457 A    
O2    C2    1.289615 A    
O3    Zn2   1.919683 S    
O8    C4    1.298461 A    
O1    C1    1.289054 A    
O4    C2    1.298737 A    
N6    O11   1.301172 A    
C7    C9    1.414896 S    
C17   N3    1.157398 T    
C8    C10   1.414770 S    
C11   C13   1.349298 D    
O2    Zn2   1.926960 S    
C12   C14   1.348914 D    
O1    Zn1   1.926960 S    
C13   C14   1.449565 S    
C13   N6    1.440522 S    
C2    C12   1.451711 S    
C4    C6    1.437705 S    
Zn1   N2    2.019757 S    
O5    Zn1   1.830216 S    
C1    C11   1.451813 S    
C6    C8    1.207152 T    
O4    Zn1   1.919681 S    
C5    C7    1.207329 T    
O6    Zn2   1.830215 S    
Zn2   N1    2.019755 S    
N2    C17   1.393244 S    
H3    C16   1.084503 S    
N1    C15   1.288994 D    
C3    C5    1.437631 S    
C12   H1    1.087204 S    
H4    C15   1.084562 S    
C9    C10   1.207244 T    
O3    C1    1.299242 A    
O8    Zn1   1.827811 S    
