data_mof_unit_34231.cif
_audit_creation_date              2012-12-10T20:28:00-0500
_audit_creation_method            fapswitch 2.2
_symmetry_space_group_name_H-M    P1
_symmetry_Int_Tables_number       1
_space_group_crystal_system       triclinic
_cell_length_a                    12.89821
_cell_length_b                    10.680711
_cell_length_c                    9.86872
_cell_angle_alpha                 90.56569
_cell_angle_beta                  96.952983
_cell_angle_gamma                 90.235337
_cell_volume                      1349.45183955

loop_
_atom_site_label
_atom_site_type_symbol
_atom_type_description
_atom_site_fract_x
_atom_site_fract_y
_atom_site_fract_z
_atom_type_partial_charge
C1    C     C_R   0.509291 0.260080 0.499743 0.883455
C2    C     C_R   0.526639 0.931397 0.376010 -0.260400
C3    C     C_R   0.525008 0.871070 0.501017 -0.127731
C4    C     C_R   0.298182 0.501931 0.473540 0.887159
C5    C     C_R   0.556233 0.937334 0.620621 0.138037
C6    C     C_3   0.523534 0.934853 0.760575 -0.518046
C7    C     C_3   0.532915 0.077689 0.759416 -0.252587
C8    C     C_R   0.409133 0.482982 0.056808 0.202255
C9    C     C_R   0.587447 0.530804 0.085973 -0.081367
C10   C     C_R   0.587301 0.531439 0.942088 -0.087771
C11   C     C_R   0.409278 0.482126 0.914401 0.220824
C12   C     C_R   0.028972 0.514114 0.565028 0.185006
C13   C     C_3   0.339692 0.369858 0.897657 -0.479413
C14   C     C_3   0.338501 0.372042 0.051200 -0.482525
C15   C     C_R   0.503886 0.740174 0.500866 0.894101
C16   C     C_R   0.701813 0.500181 0.526523 0.887473
C17   C     C_R   0.813887 0.502766 0.542123 -0.050580
C18   C     C_R   0.186061 0.505970 0.458020 -0.050717
C19   C     C_R   0.020616 0.493314 0.317038 -0.207124
C20   C     C_R   0.128483 0.496051 0.328658 -0.193932
C21   C     C_R   0.136190 0.518181 0.575337 -0.277491
C22   C     C_2   0.622250 0.131838 0.855229 0.979605
C23   C     C_R   0.970880 0.500762 0.434910 0.182682
C24   C     C_2   0.535703 0.115449 0.234665 0.950336
C25   C     C_R   0.863814 0.494862 0.424527 -0.259970
C26   C     C_R   0.871193 0.515808 0.671488 -0.184822
C27   C     C_R   0.979104 0.521678 0.682906 -0.210337
C28   C     C_R   0.562528 0.064927 0.618401 0.085940
C29   C     C_R   0.536705 0.129365 0.496675 -0.210662
C30   C     C_R   0.535206 0.060660 0.371785 -0.035806
H1    H     H_    0.819689 0.484147 0.324271 0.161226
H2    H     H_    0.832857 0.522259 0.763071 0.157541
H3    H     H_    0.976360 0.484234 0.216763 0.139793
H4    H     H_    0.023334 0.531728 0.783090 0.138062
H5    H     H_    0.166473 0.489410 0.237172 0.153309
H6    H     H_    0.180476 0.529708 0.675226 0.153666
H7    H     H_    0.516761 0.878956 0.280599 0.204771
H8    H     H_    0.441730 0.901443 0.760249 0.204115
H9    H     H_    0.674723 0.274713 0.979840 0.356343
H10   H     H_    0.473103 0.112157 0.036891 0.344075
H11   H     H_    0.581650 0.887092 0.834802 0.228815
H12   H     H_    0.457129 0.125635 0.762210 0.146601
H13   H     H_    0.658655 0.553534 0.151049 0.138877
H14   H     H_    0.658347 0.554265 0.899544 0.135807
H15   H     H_    0.262269 0.390503 0.840543 0.190071
H16   H     H_    0.379112 0.286555 0.860648 0.222900
H17   H     H_    0.260664 0.395571 0.080860 0.186378
H18   H     H_    0.376112 0.289943 0.104024 0.243965
N1    N     N_R   0.499290 0.499140 0.142710 -0.093102
N2    N     N_R   0.499290 0.499180 0.857070 -0.086756
O1    O     O_R   0.500010 0.316790 0.614690 -0.605272
O2    O     O_R   0.608931 0.245791 0.920990 -0.798462
O3    O     O_2   0.600406 0.195081 0.214910 -0.595989
O4    O     O_R   0.465822 0.069198 0.126110 -0.835473
O5    O     O_R   0.500000 0.316760 0.385350 -0.590889
O6    O     O_R   0.346360 0.499990 0.595720 -0.627865
O7    O     O_R   0.346350 0.499960 0.366370 -0.626363
O8    O     O_R   0.500000 0.683240 0.614650 -0.621023
O9    O     O_R   0.499990 0.683210 0.385310 -0.627588
O10   O     O_R   0.653650 0.500040 0.633630 -0.629709
O11   O     O_R   0.653640 0.500010 0.404280 -0.622530
O12   O     O_2   0.706584 0.078567 0.872620 -0.616923
Zn1   Zn    Zn3+2 0.500010 0.500020 0.653130 0.965767
Zn2   Zn    Zn3+2 0.499990 0.499980 0.346870 0.980269

loop_
_geom_bond_atom_site_label_1
_geom_bond_atom_site_label_2
_ccdc_geom_bond_type
C4    O7    A    
C25   H1    S    
O11   Zn2   S    
C19   C23   A    
C6    H8    S    
C5    C28   A    
C26   H2    S    
C6    C7    S    
C22   O12   D    
C7    C22   S    
C11   C13   S    
C9    C10   A    
H10   O4    S    
C19   C20   A    
C2    H7    S    
O1    Zn1   S    
C2    C30   A    
C4    C18   S    
O5    Zn2   S    
C1    C29   S    
C2    C3    A    
C1    O5    A    
O6    Zn1   S    
C17   C25   A    
C21   H6    S    
C13   C14   S    
C4    O6    A    
C13   H15   S    
N2    Zn1   S    
C1    O1    A    
C12   C23   A    
C26   C27   A    
C29   C30   A    
C15   O9    A    
C8    C11   A    
C17   C26   A    
C8    N1    A    
C28   C29   A    
H9    O2    S    
C18   C20   A    
C23   C25   A    
C27   H4    S    
C16   O10   A    
C5    C6    S    
C15   O8    A    
O10   Zn1   S    
C9    H13   S    
C24   C30   S    
C16   O11   A    
C12   C27   A    
C10   H14   S    
C18   C21   A    
O9    Zn2   S    
C9    N1    A    
O7    Zn2   S    
C22   O2    S    
C19   H3    S    
C7    H12   S    
O8    Zn1   S    
N1    Zn2   S    
C11   N2    A    
C13   H16   S    
C3    C15   S    
C14   H18   S    
C8    C14   S    
C24   O3    D    
C14   H17   S    
C24   O4    S    
C12   C21   A    
C20   H5    S    
C7    C28   S    
C16   C17   S    
C3    C5    A    
C6    H11   S    
C10   N2    A    
