data_mof_unit_23731.cif
_audit_creation_date              2012-12-10T19:11:29-0500
_audit_creation_method            fapswitch 2.2
_symmetry_space_group_name_H-M    P1
_symmetry_Int_Tables_number       1
_space_group_crystal_system       triclinic
_cell_length_a                    10.739244
_cell_length_b                    9.857767
_cell_length_c                    10.564828
_cell_angle_alpha                 90.64498
_cell_angle_beta                  93.667026
_cell_angle_gamma                 91.09281
_cell_volume                      1115.86497046

loop_
_atom_site_label
_atom_site_type_symbol
_atom_type_description
_atom_site_fract_x
_atom_site_fract_y
_atom_site_fract_z
_atom_type_partial_charge
C1    C     C_R   0.256596 0.497442 0.495380 0.947407
C2    C     C_3   0.516623 0.500538 0.122678 -0.175728
C3    C     C_3   0.077757 0.617534 0.582502 0.136490
C4    C     C_3   0.070910 0.359085 0.564941 0.120308
C5    C     C_3   0.937886 0.610236 0.605713 -0.419496
C6    C     C_3   0.927314 0.361996 0.561654 -0.355724
C7    C     C_3   0.044460 0.488129 0.361708 0.353182
C8    C     C_3   0.118019 0.490722 0.500573 -0.145789
C9    C     C_3   0.877125 0.502909 0.513812 -0.029513
C10   C     C_3   0.914116 0.541484 0.378392 -0.401662
C11   C     C_3   0.378951 0.078485 0.446318 0.312954
C12   C     C_3   0.372208 0.918194 0.467067 0.391457
C13   C     C_3   0.597011 0.080972 0.417713 -0.218699
C14   C     C_3   0.585249 0.920763 0.405619 -0.262073
C15   C     C_3   0.528446 0.082007 0.627268 0.098168
C16   C     C_3   0.538256 0.920332 0.625115 0.092614
C17   C     C_R   0.505101 0.499711 0.257593 0.918485
C18   C     C_R   0.741586 0.501343 0.511602 0.893365
C19   C     C_R   0.511244 0.501348 0.741968 0.976048
C20   C     C_3   0.438149 0.593171 0.034863 0.339491
C21   C     C_3   0.487199 0.378787 0.033437 0.296998
C22   C     C_3   0.405951 0.470610 0.946610 -0.204333
C23   C     C_3   0.521805 0.504885 0.877074 -0.117621
C24   C     C_3   0.554191 0.627881 0.963106 -0.143244
C25   C     C_3   0.603685 0.414343 0.962324 -0.121429
C26   C     C_3   0.633852 0.536518 0.053089 -0.255933
H1    H     H_    0.311237 0.445148 0.905837 0.248504
H2    H     H_    0.914546 0.653655 0.366872 0.167769
H3    H     H_    0.843967 0.503388 0.303407 0.203889
H4    H     H_    0.304680 0.124391 0.501242 0.045022
H5    H     H_    0.315033 0.898687 0.550222 0.028425
H6    H     H_    0.591423 0.126639 0.321941 0.240546
H7    H     H_    0.550674 0.892467 0.307176 0.237683
H8    H     H_    0.451385 0.109080 0.687945 0.138414
H9    H     H_    0.473946 0.880541 0.695109 0.144088
H10   H     H_    0.692173 0.109521 0.457674 0.196546
H11   H     H_    0.679180 0.876018 0.419455 0.189823
H12   H     H_    0.581730 0.730274 0.930807 0.218686
H13   H     H_    0.674189 0.342490 0.931695 0.224395
H14   H     H_    0.727113 0.563586 0.098661 0.195713
H15   H     H_    0.093143 0.710040 0.528085 0.127238
H16   H     H_    0.098384 0.268649 0.510993 0.153984
H17   H     H_    0.922342 0.583084 0.705529 0.246109
H18   H     H_    0.895353 0.342755 0.657954 0.238840
H19   H     H_    0.897708 0.711720 0.588116 0.220227
H20   H     H_    0.888068 0.277286 0.500248 0.218208
N1    N     N_3   0.499750 0.138610 0.497240 -0.142480
N2    N     N_3   0.499750 0.861390 0.497240 -0.135908
O1    O     O_R   0.314910 0.616040 0.499970 -0.557767
O2    O     O_R   0.314910 0.383960 0.499970 -0.643021
O3    O     O_R   0.500080 0.616020 0.313900 -0.571593
O4    O     O_R   0.500080 0.383980 0.313900 -0.603480
O5    O     O_R   0.685320 0.616040 0.499930 -0.616887
O6    O     O_R   0.685320 0.383960 0.499930 -0.610475
O7    O     O_R   0.500150 0.616060 0.686000 -0.600278
O8    O     O_R   0.500150 0.383940 0.686000 -0.583413
Zn1   Zn    Zn3+2 0.500150 0.654960 0.499940 1.031911
Zn2   Zn    Zn3+2 0.500150 0.345040 0.499940 0.996623
O9    O     O_3   0.365999 0.103064 0.313663 -0.562223
C27   C     C_3   0.262369 0.181810 0.279492 -0.045234
H21   H     H_    0.287470 0.290942 0.282267 0.211571
H22   H     H_    0.184472 0.160209 0.339075 0.113151
H23   H     H_    0.228758 0.155390 0.180745 0.230638
O10   O     O_3   0.310986 0.850143 0.360997 -0.502448
C28   C     C_3   0.183489 0.887746 0.346010 -0.064874
H24   H     H_    0.151815 0.959554 0.418747 0.056562
H25   H     H_    0.121727 0.800163 0.353418 0.162994
H26   H     H_    0.163779 0.928170 0.249521 0.219122
Br1   Br    Br    0.677076 0.169418 0.712840 -0.441087
Br2   Br    Br    0.698607 0.849521 0.690697 -0.455228
Br3   Br    Br    0.335562 0.746619 0.069107 -0.302565
Br4   Br    Br    0.456968 0.187250 0.055184 -0.409208
Br5   Br    Br    0.174553 0.657046 0.742345 -0.413038
Br6   Br    Br    0.141622 0.319357 0.734416 -0.444486
Br7   Br    Br    0.126401 0.577804 0.228356 -0.445495
Br8   Br    Br    0.004095 0.314439 0.274068 -0.581218

loop_
_geom_bond_atom_site_label_1
_geom_bond_atom_site_label_2
_ccdc_geom_bond_type
C19   O8    A    
C7    C10   S    
C1    C8    S    
C13   H6    S    
C11   N1    S    
C15   N1    S    
C12   N2    S    
C17   O3    A    
C14   H7    S    
N2    Zn1   S    
C27   H23   S    
C24   C26   S    
C16   H9    S    
O6    Zn2   S    
C12   O10   S    
C10   H2    S    
C15   C16   S    
O1    Zn1   S    
C27   H22   S    
C18   O5    A    
C20   C24   S    
C11   H4    S    
C28   H25   S    
C24   H12   S    
C23   C24   S    
C20   Br3   S    
O3    Zn1   S    
C1    O2    A    
C15   H8    S    
C4    Br6   S    
C4    C8    S    
C5    H17   S    
O9    C27   S    
C6    H18   S    
C21   C22   S    
C2    C17   S    
C16   N2    S    
C6    C9    S    
C11   O9    S    
C17   O4    A    
C15   Br1   S    
C21   Br4   S    
C2    C20   S    
O2    Zn2   S    
C7    C8    S    
C16   Br2   S    
C13   H10   S    
C4    C6    S    
C3    C8    S    
C13   N1    S    
O5    Zn1   S    
C7    Br7   S    
C25   C26   S    
C5    H19   S    
C27   H21   S    
C19   C23   S    
C5    C9    S    
C28   H26   S    
C2    C21   S    
C2    C26   S    
O4    Zn2   S    
C20   C22   S    
C22   H1    S    
O7    Zn1   S    
C12   H5    S    
C9    C10   S    
C19   O7    A    
C21   C25   S    
C3    H15   S    
C6    H20   S    
C3    C5    S    
C14   N2    S    
C11   C12   S    
C7    Br8   S    
O10   C28   S    
C25   H13   S    
N1    Zn2   S    
C10   H3    S    
C26   H14   S    
C4    H16   S    
O8    Zn2   S    
C23   C25   S    
C3    Br5   S    
C18   O6    A    
C9    C18   S    
C28   H24   S    
C22   C23   S    
C13   C14   S    
C1    O1    A    
C14   H11   S    
