data_mof_unit_67706.cif
_audit_creation_date              2012-10-26T19:56:13-0400
_audit_creation_method            fapswitch 2.2
_symmetry_space_group_name_H-M    P1
_symmetry_Int_Tables_number       1
_space_group_crystal_system       triclinic
_cell_length_a                    10.999921
_cell_length_b                    10.745683
_cell_length_c                    9.583941
_cell_angle_alpha                 86.565065
_cell_angle_beta                  91.105719
_cell_angle_gamma                 86.909867
_cell_volume                      1128.86997467

loop_
_atom_site_label
_atom_site_type_symbol
_atom_type_description
_atom_site_fract_x
_atom_site_fract_y
_atom_site_fract_z
_atom_type_partial_charge
C1    C     C_R   0.512228 0.260873 0.504125 0.596718
C2    C     C_3   0.401960 0.062571 0.485577 0.332643
C3    C     C_3   0.497433 0.880277 0.493428 -0.080302
C4    C     C_3   0.520797 0.124533 0.511708 -0.066064
C5    C     C_3   0.435491 0.962223 0.603444 -0.038869
C6    C     C_3   0.584211 0.045150 0.404077 -0.016599
C7    C     C_3   0.490877 0.611201 0.040924 0.426858
C8    C     C_3   0.509249 0.387891 0.958221 0.409011
C9    C     C_3   0.401062 0.553214 0.944192 0.399873
C10   C     C_3   0.599160 0.446874 0.055235 0.415416
C11   C     C_3   0.588835 0.558085 0.946888 0.440607
C12   C     C_R   0.496517 0.741237 0.496778 0.594130
C13   C     C_3   0.410287 0.441177 0.051732 0.424610
C14   C     C_R   0.262504 0.499713 0.498792 0.572562
C15   C     C_R   0.737459 0.504316 0.500751 0.566562
C16   C     C_R   0.130914 0.921862 0.365943 0.488702
C17   C     C_R   0.893406 0.617566 0.974386 0.442982
C18   C     C_R   0.143713 0.798783 0.421304 0.400395
C19   C     C_R   0.915040 0.529049 0.874695 0.509547
C20   C     C_R   0.120450 0.700618 0.336256 0.008099
C21   C     C_R   0.928086 0.569235 0.734547 -0.003123
C22   C     C_R   0.114843 0.723983 0.191094 -0.106639
C23   C     C_R   0.872026 0.515729 0.500463 -0.017046
C24   C     C_R   0.932867 0.698368 0.700384 -0.077679
C25   C     C_R   0.114677 0.846770 0.133476 -0.165712
C26   C     C_R   0.913345 0.785408 0.798263 -0.077614
C27   C     C_R   0.115856 0.948050 0.220746 0.035871
C28   C     C_R   0.885034 0.746652 0.933445 0.029991
C29   C     C_R   0.928619 0.596105 0.401249 0.053470
C30   C     C_R   0.063050 0.442135 0.602380 -0.043656
C31   C     C_2   0.102416 0.079257 0.160638 0.688240
C32   C     C_2   0.829967 0.843230 0.017813 0.622778
C33   C     C_2   0.853843 0.709113 0.341113 0.635926
C34   C     C_R   0.127212 0.506124 0.496087 0.015223
C35   C     C_2   0.121477 0.346934 0.703958 0.696313
C36   C     C_2   0.616742 0.049779 0.764889 0.710219
C37   C     C_2   0.406153 0.984522 0.233844 0.680491
C38   C     C_2   0.349215 0.931668 0.717587 0.715225
C39   C     C_2   0.669761 0.099732 0.300258 0.620359
C40   C     C_R   0.941481 0.479970 0.622201 -0.021841
C41   C     C_R   0.059699 0.592622 0.401703 -0.011710
C42   C     C_3   0.555557 0.025201 0.629478 -0.024721
C43   C     C_3   0.463711 0.983488 0.375719 -0.031859
C44   C     C_3   0.618069 0.943906 0.521529 0.321869
Cu1   Cu    Cu3+1 0.500030 0.499990 0.643150 1.267183
Cu2   Cu    Cu3+1 0.499970 0.500010 0.356850 1.267928
F1    F     F_    0.293820 0.607224 0.885538 -0.542590
F2    F     F_    0.913967 0.405429 0.912942 -0.528321
F3    F     F_    0.730343 0.882055 0.545059 -0.606332
F4    F     F_    0.294242 0.134283 0.468577 -0.515106
F5    F     F_    0.704977 0.391177 0.115680 -0.514053
F6    F     F_    0.503598 0.728989 0.082483 -0.505285
F7    F     F_    0.516906 0.268670 0.912343 -0.525535
F8    F     F_    0.668557 0.633510 0.880123 -0.585190
F9    F     F_    0.314826 0.378262 0.108573 -0.514257
F10   F     F_    0.115076 0.012800 0.456539 -0.502895
F11   F     F_    0.868964 0.575858 0.105615 -0.559670
F12   F     F_    0.155301 0.777190 0.561644 -0.602248
H1    H     H_    0.102239 0.648380 0.123669 0.196789
H2    H     H_    0.339793 0.887353 0.082170 0.370331
H3    H     H_    0.240087 0.996211 0.865726 0.364525
H4    H     H_    0.694827 0.161372 0.100818 0.382161
H5    H     H_    0.946986 0.735253 0.596578 0.228614
H6    H     H_    0.108578 0.862694 0.020938 0.189281
H7    H     H_    0.910267 0.883773 0.764757 0.240844
H8    H     H_    0.089132 0.263202 0.194547 0.399937
H9    H     H_    0.843378 0.014454 0.089269 0.350839
H10   H     H_    0.835855 0.896410 0.308795 0.382720
H11   H     H_    0.051136 0.205086 0.606865 0.376801
H12   H     H_    0.754598 0.130476 0.860137 0.380954
N1    N     N_3   0.500090 0.499970 0.858290 -0.337083
N2    N     N_3   0.499910 0.500030 0.141710 -0.349782
O1    O     O_R   0.500060 0.316850 0.620870 -0.448565
O2    O     O_R   0.098711 0.178889 0.248226 -0.527794
O3    O     O_2   0.729632 0.830738 0.066840 -0.312088
O4    O     O_R   0.884876 0.956695 0.023702 -0.711169
O5    O     O_2   0.750956 0.699906 0.295551 -0.354034
O6    O     O_R   0.896359 0.828337 0.347543 -0.690317
O7    O     O_2   0.180119 0.378731 0.803849 -0.320647
O8    O     O_R   0.104270 0.220354 0.690998 -0.513908
O9    O     O_2   0.575111 0.011121 0.875475 -0.355603
O10   O     O_R   0.722142 0.116744 0.763023 -0.618400
O11   O     O_2   0.390793 0.082911 0.163200 -0.338429
O12   O     O_R   0.499940 0.683150 0.379130 -0.429432
O13   O     O_R   0.366558 0.875272 0.184174 -0.645868
O14   O     O_2   0.326719 0.823714 0.747658 -0.374568
O15   O     O_R   0.296755 0.028072 0.791434 -0.533548
O16   O     O_2   0.765536 0.139201 0.340952 -0.441081
O17   O     O_R   0.636615 0.111256 0.158696 -0.577485
O18   O     O_R   0.500000 0.316860 0.379090 -0.449697
O19   O     O_R   0.500000 0.683140 0.620910 -0.434999
O20   O     O_R   0.319670 0.500010 0.620890 -0.426148
O21   O     O_R   0.680330 0.499990 0.379110 -0.404074
O22   O     O_R   0.319620 0.500010 0.379110 -0.478943
O23   O     O_R   0.680380 0.499990 0.620890 -0.481485
O24   O     O_2   0.094572 0.100900 0.033992 -0.413533

loop_
_geom_bond_atom_site_label_1
_geom_bond_atom_site_label_2
_ccdc_geom_bond_type
C44   F3    S    
C5    C42   S    
C1    O18   A    
Cu1   N1    S    
C12   O19   A    
C36   C42   S    
C32   O3    D    
C20   C41   S    
Cu1   Cu2   S    
C7    C11   S    
C21   C40   S    
C3    C43   S    
C8    C13   S    
C30   C35   S    
C38   O14   D    
C23   C29   A    
C37   O13   S    
C19   C21   A    
C24   C26   A    
C7    F6    S    
C15   O23   A    
C11   N1    S    
C33   O6    S    
C23   C40   A    
H8    O2    S    
H4    O17   S    
C29   C33   S    
C35   O8    S    
C12   O12   A    
Cu1   O1    S    
Cu1   O20   S    
C9    C13   S    
C3    C12   S    
H3    O15   S    
C18   F12   S    
C36   O10   S    
C22   C25   A    
C32   O4    S    
C2    F4    S    
C36   O9    D    
Cu2   N2    S    
C16   C27   A    
C15   C23   S    
C6    C44   S    
C5    C38   S    
C17   C28   A    
C34   C41   A    
C42   C44   S    
C39   O16   D    
Cu1   O19   S    
C10   F5    S    
H10   O6    S    
C3    C44   S    
C30   C34   A    
C27   C31   S    
C28   C32   S    
C4    C6    S    
C7    N2    S    
C19   F2    S    
C31   O2    S    
C25   H6    S    
C37   C43   S    
C2    C4    S    
C16   F10   S    
C15   O21   A    
Cu2   O22   S    
C2    C43   S    
C30   C40   A    
C14   O20   A    
C11   F8    S    
Cu2   O12   S    
C16   C18   A    
C20   C22   A    
C9    F1    S    
C24   H5    S    
C6    C43   S    
C2    C5    S    
Cu1   O23   S    
C22   H1    S    
C7    C9    S    
C8    N1    S    
C29   C41   A    
C26   H7    S    
C9    N1    S    
C3    C5    S    
C8    F7    S    
C14   C34   S    
H2    O13   S    
Cu2   O18   S    
C13   N2    S    
C25   C27   A    
C26   C28   A    
C38   O15   S    
C1    C4    S    
C1    O1    A    
C33   O5    D    
Cu2   O21   S    
C4    C42   S    
C35   O7    D    
C17   C19   A    
C14   O22   A    
C18   C20   A    
H12   O10   S    
C10   C11   S    
C8    C10   S    
C21   C24   A    
C6    C39   S    
C37   O11   D    
H11   O8    S    
H9    O4    S    
C39   O17   S    
C31   O24   D    
C17   F11   S    
C13   F9    S    
C10   N2    S    
