data_mof_unit_26869.cif
_audit_creation_date              2012-12-10T17:43:18-0500
_audit_creation_method            fapswitch 2.2
_symmetry_space_group_name_H-M    P1
_symmetry_Int_Tables_number       1
_space_group_crystal_system       triclinic
_cell_length_a                    15.051979
_cell_length_b                    13.921612
_cell_length_c                    10.807442
_cell_angle_alpha                 90.635451
_cell_angle_beta                  91.637976
_cell_angle_gamma                 89.901161
_cell_volume                      2263.60897719

loop_
_atom_site_label
_atom_site_type_symbol
_atom_type_description
_atom_site_fract_x
_atom_site_fract_y
_atom_site_fract_z
_atom_type_partial_charge
C1    C     C_R   0.329300 0.499862 0.495432 0.790825
C2    C     C_R   0.670564 0.499999 0.493528 0.853710
C3    C     C_R   0.953102 0.508039 0.487337 -0.080467
C4    C     C_R   0.046803 0.506302 0.485805 -0.082344
C5    C     C_R   0.903558 0.461605 0.390401 0.031586
C6    C     C_R   0.096498 0.545090 0.587510 0.032238
C7    C     C_R   0.960542 0.599393 0.683256 0.201501
C8    C     C_R   0.039300 0.432405 0.279100 0.200351
C9    C     C_R   0.053494 0.591140 0.685583 0.295081
C10   C     C_R   0.947087 0.422033 0.288368 0.293185
C11   C     C_R   0.435983 0.795290 0.561996 0.336744
C12   C     C_R   0.568677 0.204847 0.448185 0.329677
C13   C     C_R   0.564815 0.793590 0.438548 0.339105
C14   C     C_R   0.431967 0.205007 0.553153 0.312585
C15   C     C_R   0.564936 0.896394 0.435885 -0.050266
C16   C     C_R   0.436484 0.103106 0.564696 -0.056412
C17   C     C_R   0.439360 0.897781 0.570428 -0.052499
C18   C     C_R   0.567990 0.102248 0.442700 -0.061325
C19   C     C_R   0.502947 0.948321 0.504611 0.047793
C20   C     C_R   0.502960 0.051337 0.504887 0.050401
C21   C     C_R   0.625738 0.949022 0.366489 -0.191442
C22   C     C_R   0.374738 0.051362 0.633061 -0.189333
C23   C     C_R   0.378303 0.951400 0.639719 -0.199356
C24   C     C_R   0.629775 0.049207 0.374146 -0.191595
C25   C     C_R   0.498534 0.499309 0.259850 0.787529
C26   C     C_R   0.504057 0.500608 0.740778 0.830880
C27   C     C_3   0.443924 0.563108 0.038854 0.192340
C28   C     C_3   0.566352 0.435868 0.964136 0.200447
C29   C     C_3   0.527280 0.588776 0.967440 0.212341
C30   C     C_3   0.482946 0.410295 0.036024 0.227942
C31   C     C_3   0.424958 0.476077 0.953569 0.162017
C32   C     C_3   0.585489 0.523386 0.051105 0.179213
C33   C     C_3   0.507649 0.501811 0.878709 -0.293408
C34   C     C_3   0.501206 0.497692 0.123526 -0.274591
C35   C     C_R   0.810987 0.458190 0.395333 -0.242021
C36   C     C_R   0.188934 0.539200 0.588111 -0.254207
C37   C     C_R   0.767487 0.501729 0.492084 -0.130332
C38   C     C_R   0.232761 0.499799 0.488760 -0.142190
C39   C     C_R   0.814636 0.550470 0.586600 0.227326
C40   C     C_R   0.185226 0.461508 0.385734 0.236328
C41   C     C_R   0.908944 0.554248 0.586652 -0.005615
C42   C     C_R   0.090911 0.466198 0.382389 0.008774
Cu1   Cu    Cu3+1 0.500000 0.597420 0.500000 0.980356
Cu2   Cu    Cu3+1 0.500000 0.402580 0.500000 0.963636
H1    H     H_    0.771233 0.424050 0.322732 0.212457
H2    H     H_    0.228845 0.565963 0.665758 0.196835
H3    H     H_    0.670719 0.914076 0.304286 0.144187
H4    H     H_    0.323305 0.087028 0.683523 0.151379
H5    H     H_    0.330677 0.916868 0.697527 0.153491
H6    H     H_    0.680373 0.084202 0.322165 0.158740
N1    N     N_R   0.500000 0.743810 0.500000 -0.211373
N2    N     N_R   0.500000 0.256190 0.500000 -0.206305
O1    O     O_R   0.370260 0.582280 0.500030 -0.554304
O2    O     O_R   0.629740 0.417720 0.499970 -0.561104
O3    O     O_R   0.629740 0.582280 0.499970 -0.542243
O4    O     O_R   0.370260 0.417720 0.500030 -0.541118
O5    O     O_R   0.499980 0.582260 0.316850 -0.568666
O6    O     O_R   0.500020 0.417740 0.683150 -0.587371
O7    O     O_R   0.500020 0.582260 0.683150 -0.562699
O8    O     O_R   0.499980 0.417740 0.316850 -0.576585
N3    N     N_2   0.340722 0.452751 0.893619 -0.440032
H7    H     H_    0.321741 0.501091 0.826440 0.250974
C43   C     C_3   0.269741 0.427074 0.973514 -0.659501
H8    H     H_    0.212805 0.399814 0.916000 0.231137
H9    H     H_    0.248509 0.490491 0.027923 0.253763
H10   H     H_    0.290710 0.369364 0.037210 0.240913
N4    N     N_2   0.663296 0.548914 0.127662 -0.437411
H11   H     H_    0.649435 0.598359 0.195887 0.270656
C44   C     C_3   0.746219 0.568786 0.070102 -0.692971
H12   H     H_    0.795605 0.593791 0.141693 0.232477
H13   H     H_    0.737992 0.626183 0.000370 0.228074
H14   H     H_    0.773026 0.502140 0.029702 0.283743
N5    N     N_2   0.379305 0.630125 0.086851 -0.422086
H15   H     H_    0.337851 0.600180 0.150092 0.239255
C45   C     C_3   0.333276 0.689184 0.996362 -0.625581
H16   H     H_    0.291396 0.742623 0.044671 0.229223
H17   H     H_    0.289808 0.644547 0.934769 0.262435
H18   H     H_    0.381078 0.728699 0.939797 0.248485
N6    N     N_2   0.628976 0.370778 0.907348 -0.452230
H19   H     H_    0.603661 0.333228 0.831732 0.263433
C46   C     C_3   0.684282 0.312752 0.987255 -0.639063
H20   H     H_    0.741523 0.285415 0.934712 0.245610
H21   H     H_    0.646022 0.250316 0.019290 0.227293
H22   H     H_    0.710604 0.355953 0.066226 0.285730
N7    N     N_2   0.551129 0.682904 0.923297 -0.409052
H23   H     H_    0.599135 0.680944 0.857193 0.259453
C47   C     C_3   0.567399 0.756038 0.017162 -0.704414
H24   H     H_    0.565382 0.827755 0.973338 0.226268
H25   H     H_    0.634033 0.746029 0.061397 0.215170
H26   H     H_    0.516149 0.754395 0.088912 0.264008
N8    N     N_2   0.461023 0.317037 0.085295 -0.415082
H27   H     H_    0.414829 0.319420 0.153722 0.260794
C48   C     C_3   0.446363 0.238785 0.998477 -0.715292
H28   H     H_    0.453671 0.169739 0.048126 0.225512
H29   H     H_    0.495339 0.239561 0.924053 0.238855
H30   H     H_    0.377965 0.242315 0.958306 0.231443
N9    N     N_2   0.764625 0.581192 0.688678 -0.445663
H31   H     H_    0.766826 0.651571 0.718211 0.274931
C49   C     C_3   0.752411 0.508204 0.779278 -0.647201
H32   H     H_    0.696823 0.530275 0.837093 0.241680
H33   H     H_    0.814853 0.498280 0.834594 0.244286
H34   H     H_    0.734181 0.438579 0.734218 0.240897
N10   N     N_2   0.232143 0.415478 0.288683 -0.408716
H35   H     H_    0.290859 0.447422 0.264640 0.221280
C50   C     C_3   0.236773 0.311583 0.294313 -0.651344
H36   H     H_    0.222361 0.280703 0.200885 0.221232
H37   H     H_    0.187767 0.281853 0.358789 0.224347
H38   H     H_    0.304562 0.288799 0.324852 0.225045
N11   N     N_2   0.919909 0.655205 0.777218 -0.421426
H39   H     H_    0.941930 0.640525 0.866251 0.292942
C51   C     C_3   0.915111 0.757015 0.751759 -0.673118
H40   H     H_    0.982692 0.788923 0.752425 0.270048
H41   H     H_    0.875780 0.793561 0.823831 0.219302
H42   H     H_    0.881823 0.769392 0.660164 0.216439
N12   N     N_2   0.077990 0.418429 0.161579 -0.394598
H43   H     H_    0.062281 0.353617 0.119441 0.293008
C52   C     C_3   0.064828 0.499405 0.079912 -0.599689
H44   H     H_    0.088580 0.481247 0.986513 0.245068
H45   H     H_    0.102196 0.562733 0.116894 0.237620
H46   H     H_    0.993201 0.518125 0.069614 0.241036
Cl1   Cl    Cl    0.115497 0.644066 0.810797 -0.769712
Cl2   Cl    Cl    0.887175 0.362046 0.167023 -0.752160
N13   N     N_2   0.362745 0.746386 0.612276 -0.370932
H47   H     H_    0.357585 0.755966 0.706505 0.235561
C53   C     C_3   0.278995 0.760382 0.544066 -0.637756
H48   H     H_    0.224321 0.726131 0.593520 0.250105
H49   H     H_    0.282381 0.729036 0.449417 0.241759
H50   H     H_    0.261523 0.837300 0.534705 0.202896
N14   N     N_2   0.642554 0.254402 0.402110 -0.383833
H51   H     H_    0.703035 0.232967 0.439885 0.239117
C54   C     C_3   0.642746 0.267135 0.269908 -0.629484
H52   H     H_    0.704488 0.236022 0.232165 0.214599
H53   H     H_    0.641453 0.344816 0.249866 0.261865
H54   H     H_    0.584636 0.232068 0.222692 0.239589
N15   N     N_2   0.631547 0.741751 0.375419 -0.378975
H55   H     H_    0.630821 0.754204 0.281726 0.217763
C55   C     C_3   0.720401 0.747090 0.431452 -0.664355
H56   H     H_    0.752514 0.817108 0.415616 0.196815
H57   H     H_    0.762711 0.690699 0.389818 0.224489
H58   H     H_    0.718371 0.736166 0.532861 0.239288
N16   N     N_2   0.350386 0.251160 0.579902 -0.395797
H59   H     H_    0.294660 0.218731 0.540641 0.226860
C56   C     C_3   0.338083 0.283871 0.705363 -0.583547
H60   H     H_    0.296015 0.233133 0.755953 0.173074
H61   H     H_    0.302304 0.353310 0.702266 0.249986
H62   H     H_    0.402462 0.292825 0.755859 0.251559

loop_
_geom_bond_atom_site_label_1
_geom_bond_atom_site_label_2
_ccdc_geom_bond_type
C56   H62   S    
C22   H4    S    
C47   H24   S    
C43   H9    S    
C48   H28   S    
C56   H61   S    
C27   C29   S    
N5    C45   S    
N5    H15   S    
C31   N3    S    
C19   C20   A    
C45   H16   S    
C54   H54   S    
C6    C9    A    
N9    H31   S    
N15   H55   S    
C39   C41   A    
C54   H53   S    
N7    H23   S    
C15   C19   A    
C50   H37   S    
C17   C23   A    
C18   C24   A    
C35   C37   A    
C1    O4    A    
C8    C42   A    
C29   C32   S    
C2    O3    A    
C52   H45   S    
C3    C41   A    
C30   C31   S    
N13   C53   S    
C56   H60   S    
C29   C33   S    
C45   H17   S    
N15   C55   S    
C44   H13   S    
C28   N6    S    
C1    O1    A    
C8    N12   S    
C12   N2    A    
C13   N1    A    
Cu1   O1    S    
C14   N2    A    
C51   H40   S    
Cu2   O6    S    
N12   C52   S    
C53   H50   S    
C9    Cl1   S    
C31   C33   S    
C36   H2    S    
C25   O8    A    
C26   O7    A    
N11   H39   S    
C29   N7    S    
Cu1   O7    S    
C25   C34   S    
Cu2   N2    S    
C40   C42   A    
C43   H10   S    
C48   H29   S    
C13   N15   S    
N3    H7    S    
C25   O5    A    
C46   H21   S    
C46   H20   S    
N7    C47   S    
C27   C34   S    
C24   H6    S    
C50   H38   S    
C12   N14   S    
C30   C34   S    
C27   C31   S    
N4    H11   S    
N13   H47   S    
C11   N1    A    
C4    C6    A    
C2    O2    A    
C52   H46   S    
N8    H27   S    
N6    C46   S    
C10   Cl2   S    
C3    C4    A    
C43   H8    S    
C16   C22   A    
N4    C44   S    
N16   C56   S    
C32   C34   S    
C44   H14   S    
Cu1   Cu2   S    
N8    C48   S    
C55   H57   S    
Cu2   O4    S    
C26   C33   S    
C49   H32   S    
C28   C32   S    
C16   C20   A    
N3    C43   S    
C51   H41   S    
C26   O6    A    
C1    C38   S    
C32   N4    S    
Cu1   O3    S    
C49   H33   S    
C28   C33   S    
C48   H30   S    
C13   C15   A    
C53   H48   S    
N10   C50   S    
C14   C16   A    
C21   C24   A    
C54   H52   S    
C35   H1    S    
C46   H22   S    
C36   C38   A    
N14   H51   S    
C50   H36   S    
C7    C9    A    
C11   C17   A    
N9    C49   S    
C11   N13   S    
C30   N8    S    
C3    C5    A    
C23   H5    S    
C55   H56   S    
C52   H44   S    
N11   C51   S    
C5    C10   A    
C37   C39   A    
N16   H59   S    
C40   N10   S    
C38   C40   A    
C2    C37   S    
Cu1   N1    S    
C4    C42   A    
Cu2   O8    S    
C55   H58   S    
C5    C35   A    
C28   C30   S    
C17   C19   A    
C6    C36   A    
C51   H42   S    
C18   C20   A    
C7    C41   A    
C44   H12   S    
C45   H18   S    
C14   N16   S    
C39   N9    S    
Cu1   O5    S    
N6    H19   S    
Cu2   O2    S    
C15   C21   A    
C49   H34   S    
C8    C10   A    
C47   H26   S    
C12   C18   A    
N10   H35   S    
C53   H49   S    
C47   H25   S    
C22   C23   A    
C7    N11   S    
N14   C54   S    
C27   N5    S    
N12   H43   S    
C21   H3    S    
