data_mof_unit_30842.cif
_audit_creation_date              2012-12-10T16:47:16-0500
_audit_creation_method            fapswitch 2.2
_symmetry_space_group_name_H-M    P1
_symmetry_Int_Tables_number       1
_space_group_crystal_system       triclinic
_cell_length_a                    12.100399
_cell_length_b                    12.154612
_cell_length_c                    7.825916
_cell_angle_alpha                 90.538381
_cell_angle_beta                  94.799172
_cell_angle_gamma                 90.041616
_cell_volume                      1146.91443122

loop_
_atom_site_label
_atom_site_type_symbol
_atom_type_description
_atom_site_fract_x
_atom_site_fract_y
_atom_site_fract_z
_atom_type_partial_charge
C1    C     C_R   0.354650 0.850767 0.454923 0.941135
C2    C     C_2   0.727274 0.769767 0.568467 -0.381277
C3    C     C_2   0.726014 0.232278 0.568565 -0.381694
C4    C     C_2   0.273986 0.767722 0.431435 -0.381694
C5    C     C_2   0.772725 0.730232 0.431533 -0.381277
C6    C     C_2   0.227275 0.269768 0.568467 -0.381277
C7    C     C_2   0.226014 0.732278 0.568565 -0.381695
C8    C     C_2   0.773986 0.267722 0.431435 -0.381694
C9    C     C_3   0.723216 0.971705 0.079268 -0.156754
C10   C     C_3   0.276784 0.028295 0.920730 -0.156748
C11   C     C_3   0.223216 0.471705 0.079267 -0.156754
C12   C     C_R   0.645350 0.149232 0.545077 0.941134
C13   C     C_3   0.776784 0.528295 0.920734 -0.156752
C14   C     C_R   0.645497 0.851139 0.544545 0.940909
C15   C     C_R   0.354502 0.148861 0.455455 0.940910
C16   C     C_R   0.854650 0.350767 0.454923 0.941135
C17   C     C_R   0.145350 0.649232 0.545077 0.941134
C18   C     C_R   0.145498 0.351139 0.544545 0.940909
C19   C     C_R   0.854502 0.648861 0.455455 0.940909
C20   C     C_2   0.272725 0.230232 0.431533 -0.381276
H1    H     H_    0.749559 0.756641 0.301347 0.163848
H2    H     H_    0.741306 0.005289 0.210553 0.179354
H3    H     H_    0.799171 0.982704 0.011101 0.134460
H4    H     H_    0.258690 0.994705 0.789450 0.179351
H5    H     H_    0.294508 0.118043 0.919689 0.132443
H6    H     H_    0.200830 0.017302 0.988903 0.134458
H7    H     H_    0.205494 0.381957 0.080294 0.132442
H8    H     H_    0.241306 0.505287 0.210554 0.179354
H9    H     H_    0.299171 0.482706 0.011100 0.134460
H10   H     H_    0.758693 0.494712 0.789449 0.179353
H11   H     H_    0.794507 0.618043 0.919706 0.132441
H12   H     H_    0.250443 0.243361 0.698653 0.163847
H13   H     H_    0.700829 0.517296 0.988903 0.134459
H14   H     H_    0.245622 0.763991 0.698012 0.197722
H15   H     H_    0.754378 0.236009 0.301988 0.197723
H16   H     H_    0.249557 0.256640 0.301347 0.163849
H17   H     H_    0.750441 0.743358 0.698653 0.163848
H18   H     H_    0.745622 0.263991 0.698012 0.197723
H19   H     H_    0.254379 0.736009 0.301988 0.197723
H20   H     H_    0.705494 0.881957 0.080298 0.132442
N1    N     N_2   0.541470 1.000000 0.055820 0.192182
N2    N     N_2   0.458530 0.000000 0.944180 0.192181
N3    N     N_2   0.041470 0.500000 0.055820 0.192181
N4    N     N_2   0.958530 0.500000 0.944180 0.192181
O1    O     O_R   0.375700 0.885870 0.609240 -0.630881
O2    O     O_R   0.597720 0.114130 0.675960 -0.573318
O3    O     O_R   0.597720 0.885870 0.675960 -0.603702
O4    O     O_R   0.402280 0.114130 0.324040 -0.603701
O5    O     O_R   0.902280 0.385870 0.324040 -0.573318
O6    O     O_R   0.097720 0.614130 0.675960 -0.573318
O7    O     O_R   0.097720 0.385870 0.675960 -0.603702
O8    O     O_R   0.902280 0.614130 0.324040 -0.603703
O9    O     O_3   0.636418 0.029002 0.990081 -0.521852
O10   O     O_3   0.363582 0.970999 0.009920 -0.521853
O11   O     O_3   0.136418 0.529003 0.990081 -0.521852
O12   O     O_R   0.624300 0.114130 0.390760 -0.630880
O13   O     O_3   0.863582 0.470996 0.009918 -0.521852
O14   O     O_R   0.624300 0.885870 0.390760 -0.650353
O15   O     O_R   0.375700 0.114130 0.609240 -0.650353
O16   O     O_R   0.875700 0.385870 0.609240 -0.630879
O17   O     O_R   0.124300 0.614130 0.390760 -0.630880
O18   O     O_R   0.124300 0.385870 0.390760 -0.650353
O19   O     O_R   0.875700 0.614130 0.609240 -0.650353
O20   O     O_R   0.402280 0.885870 0.324040 -0.573318
Zn1   Zn    Zn3+2 0.482250 0.000000 0.690430 1.017777
Zn2   Zn    Zn3+2 0.517750 0.000000 0.309570 1.017778
Zn3   Zn    Zn3+2 0.982250 0.500000 0.690430 1.017778
Zn4   Zn    Zn3+2 0.017750 0.500000 0.309570 1.017777

loop_
_geom_bond_atom_site_label_1
_geom_bond_atom_site_label_2
_ccdc_geom_bond_type
C17   O6    A    
N2    Zn1   S    
C6    H12   S    
N3    N4    D    
O12   Zn2   S    
C13   H13   S    
C14   O3    A    
C5    C19   S    
O5    Zn4   S    
O18   Zn4   S    
C6    C20   D    
O6    Zn3   S    
C2    H17   S    
C4    H19   S    
C11   H7    S    
N4    O13   S    
C1    C4    S    
C1    O1    A    
C10   H6    S    
C11   O11   S    
C8    C16   S    
O7    Zn3   S    
N2    O10   S    
C11   H9    S    
C13   H11   S    
O17   Zn4   S    
N1    O9    S    
C12   O12   A    
C11   H8    S    
C4    C7    D    
C10   O10   S    
C15   O4    A    
C10   H5    S    
N3    O11   S    
O3    Zn1   S    
C18   O7    A    
C3    C8    D    
C10   H4    S    
C14   O14   A    
O1    Zn1   S    
C15   C20   S    
C2    C14   S    
C7    H14   S    
O19   Zn3   S    
C6    C18   S    
C2    C5    D    
C9    O9    S    
N1    Zn2   S    
C20   H16   S    
C1    O20   A    
C13   H10   S    
C13   O13   S    
C5    H1    S    
C16   O5    A    
O16   Zn3   S    
O2    Zn1   S    
C12   O2    A    
C9    H2    S    
N1    N2    D    
O4    Zn2   S    
C9    H3    S    
N4    Zn3   S    
C3    C12   S    
C17   O17   A    
O8    Zn4   S    
O15   Zn1   S    
C16   O16   A    
C15   O15   A    
C19   O8    A    
O14   Zn2   S    
C9    H20   S    
C18   O18   A    
C3    H18   S    
C19   O19   A    
N3    Zn4   S    
C7    C17   S    
C8    H15   S    
O20   Zn2   S    
