data_mof_unit_23092.cif
_audit_creation_date              2012-12-10T20:53:00-0500
_audit_creation_method            fapswitch 2.2
_symmetry_space_group_name_H-M    P1
_symmetry_Int_Tables_number       1
_space_group_crystal_system       triclinic
_cell_length_a                    18.306887
_cell_length_b                    18.314258
_cell_length_c                    18.332146
_cell_angle_alpha                 59.8843
_cell_angle_beta                  59.903504
_cell_angle_gamma                 59.923854
_cell_volume                      4336.64667172

loop_
_atom_site_label
_atom_site_type_symbol
_atom_type_description
_atom_site_fract_x
_atom_site_fract_y
_atom_site_fract_z
_atom_type_partial_charge
C1    C     C_R   0.389865 0.109853 0.110411 0.787804
C2    C     C_R   0.341297 0.840907 0.893682 -0.285081
C3    C     C_R   0.912893 0.558987 0.032271 0.072145
C4    C     C_R   0.451580 0.963155 0.090980 0.067281
C5    C     C_R   0.547883 0.037132 0.908594 0.075958
C6    C     C_R   0.945854 0.945951 0.553756 -0.149644
C7    C     C_R   0.054164 0.053924 0.445729 -0.138940
C8    C     C_R   0.945885 0.554262 0.945960 -0.166778
C9    C     C_R   0.054028 0.446476 0.053981 -0.158421
C10   C     C_R   0.554022 0.946248 0.945611 -0.165841
C11   C     C_R   0.445702 0.053971 0.054069 -0.165669
C12   C     C_3   0.110264 0.836331 0.025463 0.061102
C13   C     C_R   0.172491 0.028842 0.703446 -0.219363
C14   C     C_3   0.012596 0.898944 0.041876 -0.432842
C15   C     C_3   0.004625 0.992875 0.024618 -0.821620
C16   C     C_3   0.840118 0.305869 0.018809 0.066292
C17   C     C_3   0.880115 0.342673 0.043939 -0.329151
C18   C     C_3   0.807712 0.394179 0.108129 -0.940825
C19   C     C_3   0.745145 0.980591 0.121569 0.056940
C20   C     C_3   0.774924 0.886823 0.120174 -0.297660
C21   C     C_3   0.781074 0.815300 0.210367 -1.014775
C22   C     C_3   0.334285 0.012461 0.867499 0.065534
C23   C     C_3   0.329223 0.092273 0.878696 -0.293978
C24   C     C_R   0.832762 0.942732 0.308658 -0.283866
C25   C     C_3   0.380332 0.149121 0.791134 -0.979598
C26   C     C_3   0.063967 0.891890 0.786666 0.041034
C27   C     C_3   0.968928 0.887648 0.839102 -0.298414
C28   C     C_3   0.969131 0.793766 0.905343 -0.911781
C29   C     C_3   0.014608 0.896120 0.292744 0.052749
C30   C     C_3   0.105992 0.895178 0.275043 -0.272556
C31   C     C_3   0.175710 0.801757 0.281839 -0.987979
C32   C     C_R   0.130105 0.616604 0.266406 -0.209693
C33   C     C_R   0.880604 0.380614 0.740747 -0.186297
C34   C     C_R   0.635853 0.255988 0.085688 -0.205108
C35   C     C_R   0.382634 0.749879 0.903633 -0.127792
C36   C     C_R   0.257957 0.036492 0.656132 -0.251835
C37   C     C_R   0.743314 0.946531 0.351593 -0.226820
C38   C     C_R   0.052647 0.593130 0.309350 0.168379
C39   C     C_R   0.610105 0.890264 0.889435 0.787315
C40   C     C_R   0.956540 0.407459 0.690624 0.165659
C41   C     C_R   0.590554 0.311382 0.023379 0.165974
C42   C     C_R   0.410083 0.688108 0.978217 0.161603
C43   C     C_R   0.316588 0.001920 0.585568 0.167754
C44   C     C_R   0.685181 0.991782 0.413816 0.165557
C45   C     C_R   0.998262 0.621390 0.260627 -0.220927
C46   C     C_R   0.015657 0.383533 0.732381 -0.225509
C47   C     C_R   0.596703 0.276496 0.967034 -0.242819
C48   C     C_R   0.391096 0.717465 0.045212 -0.281247
C49   C     C_R   0.288613 0.959215 0.563287 -0.194101
C50   C     C_R   0.110342 0.109985 0.389835 0.787154
C51   C     C_R   0.716805 0.035768 0.430467 -0.220365
C52   C     C_R   0.020806 0.673350 0.169960 -0.206637
C53   C     C_R   0.998743 0.333687 0.823519 -0.206949
C54   C     C_R   0.647193 0.186953 0.973346 -0.160798
C55   C     C_R   0.348431 0.808278 0.035921 -0.193962
C56   C     C_R   0.203262 0.951253 0.611010 -0.225995
C57   C     C_R   0.806155 0.032492 0.386997 -0.165694
C58   C     C_R   0.096321 0.699727 0.127702 0.586634
C59   C     C_R   0.922009 0.308380 0.874105 0.575908
C60   C     C_R   0.691140 0.130219 0.036679 0.574168
C61   C     C_R   0.889722 0.889911 0.610107 0.789621
C62   C     C_R   0.326459 0.871060 0.958806 0.555152
C63   C     C_R   0.145262 0.984727 0.682343 0.561005
C64   C     C_R   0.865571 0.984006 0.327853 0.575869
C65   C     C_R   0.972386 0.593287 0.462824 -0.266913
C66   C     C_R   0.029261 0.406858 0.537137 -0.256979
C67   C     C_R   0.592163 0.463873 0.960642 -0.275147
C68   C     C_R   0.407530 0.536171 0.038781 -0.256352
C69   C     C_R   0.464925 0.955784 0.591141 -0.273127
C70   C     C_R   0.535149 0.043853 0.408773 -0.269895
C71   C     C_R   0.946952 0.551927 0.555670 -0.061564
C72   C     C_R   0.109992 0.389986 0.110264 0.784578
C73   C     C_R   0.054448 0.448197 0.444261 -0.064312
C74   C     C_R   0.551827 0.555624 0.946932 -0.057526
C75   C     C_R   0.447939 0.444374 0.052513 -0.061227
C76   C     C_R   0.555048 0.949276 0.552459 -0.055646
C77   C     C_R   0.444955 0.050325 0.447473 -0.057721
C78   C     C_R   0.976551 0.457256 0.593461 0.004292
C79   C     C_R   0.026288 0.542921 0.406471 0.008301
C80   C     C_R   0.458061 0.592407 0.986751 0.005599
C81   C     C_R   0.541728 0.407483 0.013113 0.012441
C82   C     C_R   0.590810 0.994219 0.459962 0.013857
C83   C     C_R   0.889748 0.610133 0.889948 0.791104
C84   C     C_R   0.409362 0.004620 0.539847 0.017668
C85   C     C_R   0.110099 0.390636 0.389594 0.789695
C86   C     C_R   0.890385 0.609400 0.610392 0.793684
C87   C     C_R   0.390558 0.389609 0.109181 0.793852
C88   C     C_R   0.609390 0.610365 0.890733 0.795880
C89   C     C_R   0.389750 0.108135 0.390430 0.788111
C90   C     C_R   0.610241 0.891672 0.609559 0.792565
C91   C     C_R   0.919102 0.188684 0.450720 -0.137918
C92   C     C_R   0.080700 0.811296 0.546296 -0.159454
C93   C     C_R   0.175705 0.387937 0.932101 -0.145378
C94   C     C_R   0.152482 0.668603 0.175851 -0.271806
C95   C     C_R   0.825312 0.615311 0.066633 -0.158198
C96   C     C_R   0.404682 0.924751 0.182023 -0.137471
C97   C     C_R   0.594572 0.075558 0.817478 -0.149156
C98   C     C_R   0.826175 0.227647 0.479139 -0.134512
C99   C     C_R   0.173531 0.772351 0.516260 -0.142309
C100  C     C_R   0.208116 0.386102 0.845995 -0.142865
C101  C     C_R   0.793554 0.618644 0.152006 -0.150852
C102  C     C_R   0.412078 0.834870 0.217503 -0.157465
C103  C     C_R   0.585717 0.165889 0.781465 -0.135007
C104  C     C_R   0.772375 0.173985 0.532688 -0.157851
C105  C     C_R   0.863611 0.330973 0.831990 -0.239256
C106  C     C_R   0.227353 0.825961 0.462705 -0.158410
C107  C     C_R   0.154262 0.439054 0.792642 -0.163724
C108  C     C_R   0.847149 0.565066 0.205645 -0.173575
C109  C     C_R   0.466570 0.781246 0.163913 -0.174889
C110  C     C_R   0.530064 0.219856 0.834716 -0.179645
C111  C     C_R   0.811187 0.081070 0.558569 -0.173354
C112  C     C_R   0.188662 0.918847 0.438177 -0.182126
C113  C     C_R   0.067818 0.494461 0.824998 -0.169267
C114  C     C_R   0.932772 0.507964 0.174144 -0.151564
C115  C     C_R   0.513559 0.817354 0.074301 -0.152005
C116  C     C_R   0.685998 0.166232 0.092409 -0.273767
C117  C     C_R   0.483717 0.183563 0.924570 -0.168704
C118  C     C_R   0.905454 0.039948 0.529860 0.074328
C119  C     C_R   0.094488 0.959956 0.468523 0.061277
C120  C     C_R   0.032890 0.497060 0.912719 0.059349
C121  C     C_R   0.967378 0.504510 0.086820 0.071883
C122  C     C_R   0.506386 0.908804 0.036297 0.072647
C123  C     C_R   0.492500 0.091670 0.963089 0.075726
C124  C     C_R   0.960110 0.094444 0.475254 0.083280
C125  C     C_R   0.039822 0.905472 0.523212 0.069517
C126  C     C_R   0.087500 0.442845 0.967128 0.073540
H1    H     H_    0.299428 0.795385 0.440613 0.123860
H2    H     H_    0.335937 0.564707 0.069417 0.184321
H3    H     H_    0.437915 0.919882 0.661571 0.164665
H4    H     H_    0.562527 0.079183 0.338224 0.170337
H5    H     H_    0.958231 0.233149 0.408924 0.112912
H6    H     H_    0.041544 0.766862 0.587974 0.116046
H7    H     H_    0.221217 0.346844 0.969941 0.131614
H8    H     H_    0.779874 0.656699 0.028732 0.136636
H9    H     H_    0.362238 0.963376 0.226812 0.120295
H10   H     H_    0.637493 0.036731 0.772885 0.120175
H11   H     H_    0.795804 0.299806 0.459279 0.128806
H12   H     H_    0.700243 0.204494 0.553928 0.122781
H13   H     H_    0.203823 0.700233 0.534921 0.129044
H14   H     H_    0.275732 0.344274 0.820183 0.134927
H15   H     H_    0.726706 0.662396 0.176939 0.142179
H16   H     H_    0.375682 0.806521 0.286958 0.129987
H17   H     H_    0.621660 0.194329 0.711783 0.132748
H18   H     H_    0.766605 0.042063 0.600158 0.113270
H19   H     H_    0.233276 0.957813 0.396411 0.115899
H20   H     H_    0.029600 0.535795 0.779856 0.137815
H21   H     H_    0.970745 0.466310 0.219508 0.134453
H22   H     H_    0.555499 0.772706 0.035513 0.128378
H23   H     H_    0.822010 0.567142 0.272313 0.129471
H24   H     H_    0.440942 0.228392 0.963160 0.125865
H25   H     H_    0.213130 0.685106 0.143294 0.142931
H26   H     H_    0.805606 0.309330 0.869920 0.147757
H27   H     H_    0.721681 0.126236 0.139813 0.131611
H28   H     H_    0.321385 0.887792 0.835275 0.125829
H29   H     H_    0.127707 0.056261 0.757315 0.156369
H30   H     H_    0.875823 0.908389 0.260153 0.127551
H31   H     H_    0.172814 0.594968 0.303194 0.143425
H32   H     H_    0.835151 0.397562 0.709001 0.141131
H33   H     H_    0.633156 0.282701 0.128322 0.136214
H34   H     H_    0.179907 0.437997 0.725480 0.127827
H35   H     H_    0.395084 0.727720 0.852421 0.135829
H36   H     H_    0.278610 0.069208 0.674515 0.142704
H37   H     H_    0.719310 0.913844 0.336779 0.151512
H38   H     H_    0.938352 0.603593 0.292964 0.141709
H39   H     H_    0.075127 0.402809 0.694120 0.136934
H40   H     H_    0.563456 0.318963 0.917435 0.137085
H41   H     H_    0.410104 0.670179 0.104104 0.147010
H42   H     H_    0.333140 0.931480 0.509597 0.124357
H43   H     H_    0.672364 0.072319 0.477157 0.127828
H44   H     H_    0.978646 0.694614 0.132769 0.162234
H45   H     H_    0.522853 0.290142 0.806367 0.131777
H46   H     H_    0.045317 0.314565 0.854947 0.159848
H47   H     H_    0.652634 0.161247 0.928384 0.172334
H48   H     H_    0.334487 0.830434 0.087714 0.176343
H49   H     H_    0.182236 0.918540 0.593188 0.157663
H50   H     H_    0.829759 0.067021 0.399939 0.160917
H51   H     H_    0.149766 0.864764 0.954780 0.176234
H52   H     H_    0.139507 0.834370 0.067327 0.139362
H53   H     H_    0.985985 0.902967 0.996781 0.240832
H54   H     H_    0.971344 0.872016 0.112167 0.208158
H55   H     H_    0.029186 0.990664 0.070402 0.272252
H56   H     H_    0.472373 0.711374 0.191816 0.131592
H57   H     H_    0.933365 0.036602 0.036632 0.275182
H58   H     H_    0.044137 0.022129 0.954208 0.264532
H59   H     H_    0.806152 0.260418 0.080951 0.170969
H60   H     H_    0.787225 0.361337 0.989542 0.130034
H61   H     H_    0.930101 0.286287 0.076165 0.241060
H62   H     H_    0.914750 0.388115 0.982658 0.231386
H63   H     H_    0.760387 0.454363 0.074925 0.263433
H64   H     H_    0.839153 0.415924 0.128716 0.275091
H65   H     H_    0.770240 0.350927 0.169053 0.258527
H66   H     H_    0.677689 0.993944 0.173669 0.143353
H67   H     H_    0.950931 0.665730 0.433294 0.171361
H68   H     H_    0.794409 0.982479 0.138591 0.149121
H69   H     H_    0.726239 0.883725 0.103361 0.232483
H70   H     H_    0.841527 0.872559 0.067834 0.225778
H71   H     H_    0.830805 0.815846 0.227729 0.262489
H72   H     H_    0.802714 0.748341 0.206886 0.272337
H73   H     H_    0.714730 0.827049 0.263579 0.267296
H74   H     H_    0.302093 0.037369 0.817830 0.136939
H75   H     H_    0.406659 0.973841 0.841300 0.166932
H76   H     H_    0.258066 0.134413 0.901261 0.231656
H77   H     H_    0.358579 0.067428 0.930617 0.235482
H78   H     H_    0.051290 0.334440 0.566690 0.183959
H79   H     H_    0.450692 0.107383 0.765132 0.267349
H80   H     H_    0.381105 0.202528 0.802817 0.269815
H81   H     H_    0.347583 0.180573 0.740340 0.259595
H82   H     H_    0.096249 0.871411 0.834997 0.153492
H83   H     H_    0.102329 0.844160 0.748871 0.142424
H84   H     H_    0.929130 0.935793 0.876354 0.234126
H85   H     H_    0.936341 0.907113 0.791630 0.249388
H86   H     H_    0.006895 0.744664 0.869438 0.273358
H87   H     H_    0.899221 0.793206 0.942248 0.272968
H88   H     H_    0.000068 0.773375 0.954481 0.273900
H89   H     H_    0.663659 0.435500 0.929571 0.163161
H90   H     H_    0.021637 0.874629 0.241883 0.141366
H91   H     H_    0.993354 0.847676 0.361009 0.150393
H92   H     H_    0.128859 0.942395 0.206966 0.238075
H93   H     H_    0.099912 0.917648 0.324610 0.240050
H94   H     H_    0.154686 0.753427 0.349652 0.267777
H95   H     H_    0.240833 0.803324 0.269579 0.270158
H96   H     H_    0.184785 0.779061 0.231009 0.260935
O1    O     O_3   0.250000 0.250000 0.250000 -0.485480
O2    O     O_R   0.865800 0.694910 0.573470 -0.650800
O3    O     O_R   0.305090 0.426530 0.134200 -0.640297
O4    O     O_R   0.694910 0.573470 0.865800 -0.650927
O5    O     O_R   0.426530 0.134200 0.305090 -0.649964
O6    O     O_R   0.573470 0.865800 0.694910 -0.657772
O7    O     O_R   0.134190 0.426530 0.134200 -0.635357
O8    O     O_R   0.865810 0.573470 0.865800 -0.648320
O9    O     O_R   0.426530 0.134200 0.134190 -0.638199
O10   O     O_R   0.573470 0.865800 0.865810 -0.652173
O11   O     O_R   0.134200 0.134190 0.426530 -0.628303
O12   O     O_3   0.750000 0.750000 0.750000 -0.475301
O13   O     O_R   0.865800 0.865810 0.573470 -0.644672
O14   O     O_R   0.426530 0.305080 0.134210 -0.634964
O15   O     O_R   0.573470 0.694920 0.865790 -0.635933
O16   O     O_R   0.305080 0.134210 0.426530 -0.629952
O17   O     O_R   0.694920 0.865790 0.573470 -0.629835
O18   O     O_R   0.134210 0.426530 0.305080 -0.634691
O19   O     O_R   0.865790 0.573470 0.694920 -0.636821
O20   O     O_3   0.117561 0.750439 0.037678 -0.665188
O21   O     O_3   0.908887 0.254703 0.962838 -0.655435
O22   O     O_3   0.743335 0.043201 0.035680 -0.657491
O23   O     O_R   0.305080 0.134200 0.134200 -0.641647
O24   O     O_3   0.287874 0.960813 0.950843 -0.659211
O25   O     O_3   0.059544 0.980309 0.727750 -0.639751
O26   O     O_3   0.953092 0.984184 0.285370 -0.653087
O27   O     O_R   0.694920 0.865800 0.865800 -0.638947
O28   O     O_R   0.134200 0.134200 0.305080 -0.637313
O29   O     O_R   0.865800 0.865800 0.694920 -0.639991
O30   O     O_R   0.134200 0.305080 0.134200 -0.639448
O31   O     O_R   0.865800 0.694920 0.865800 -0.642606
O32   O     O_R   0.134200 0.305090 0.426530 -0.643872
Zn1   Zn    Zn3+2 0.206620 0.206630 0.380140 0.971638
Zn2   Zn    Zn3+2 0.793380 0.793370 0.619860 0.954924
Zn3   Zn    Zn3+2 0.206630 0.380140 0.206620 0.969067
Zn4   Zn    Zn3+2 0.793370 0.619860 0.793380 0.950181
Zn5   Zn    Zn3+2 0.380140 0.206620 0.206630 0.956723
Zn6   Zn    Zn3+2 0.619860 0.793380 0.793370 0.944811
Zn7   Zn    Zn3+2 0.206620 0.206620 0.206620 0.957229
Zn8   Zn    Zn3+2 0.793380 0.793380 0.793380 0.946306

loop_
_geom_bond_atom_site_label_1
_geom_bond_atom_site_label_2
_ccdc_geom_bond_type
O31   Zn8   S    
C109  H56   S    
C48   C55   A    
C12   H52   S    
C18   H63   S    
C42   C80   S    
C65   C79   A    
C46   H39   S    
C96   C102  A    
C8    C83   S    
C32   C94   A    
C19   C20   S    
C1    C11   S    
C9    C72   S    
O30   Zn7   S    
C7    C124  A    
O23   Zn7   S    
C92   C125  A    
O4    Zn4   S    
C107  H34   S    
C53   C59   A    
C55   H48   S    
C106  C112  A    
C26   O25   S    
C68   C75   A    
O12   Zn6   S    
C8    C120  A    
C85   O32   A    
C59   C105  A    
C86   O2    A    
C90   O17   A    
C83   O31   A    
C103  C110  A    
C6    C61   S    
C90   O6    A    
C92   H6    S    
C45   H38   S    
C21   H73   S    
C114  H21   S    
C31   H94   S    
C44   C82   S    
C16   H59   S    
C113  C120  A    
C30   C31   S    
C120  C126  A    
C62   O24   S    
C91   H5    S    
C38   C79   S    
C17   H62   S    
C34   C116  A    
C71   C86   S    
C55   C62   A    
C15   H55   S    
C70   H4    S    
C112  H19   S    
C69   C76   A    
C59   O21   S    
C108  C114  A    
C58   O20   S    
C35   C42   A    
C93   C126  A    
C13   H29   S    
C38   C45   A    
C100  H14   S    
C53   H46   S    
C31   H95   S    
C114  C121  A    
C67   H89   S    
C88   O4    A    
O8    Zn4   S    
C16   C17   S    
C87   O3    A    
C39   O27   A    
C9    C121  A    
C117  H24   S    
C51   C57   A    
C32   C38   A    
O18   Zn3   S    
C21   H72   S    
C20   H69   S    
C14   H53   S    
C50   O28   A    
C102  H16   S    
O5    Zn5   S    
C19   H66   S    
C37   H37   S    
C66   H78   S    
C110  H45   S    
C101  C108  A    
C29   H91   S    
C12   H51   S    
C118  C124  A    
C24   C64   A    
C115  C122  A    
C74   C80   A    
C17   H61   S    
C70   C77   A    
C36   H36   S    
C43   C84   S    
C99   H13   S    
C34   C41   A    
C101  H15   S    
C89   O5    A    
C25   H79   S    
C24   H30   S    
C110  C117  A    
C17   C18   S    
C96   H9    S    
C65   H67   S    
C28   H88   S    
C66   C78   A    
C26   H82   S    
C18   H65   S    
C60   O22   S    
C33   C40   A    
O19   Zn4   S    
C56   H49   S    
C107  C113  A    
C51   H43   S    
C33   C105  A    
C102  C109  A    
C6    C125  A    
C13   C36   A    
C20   H70   S    
C3    C8    A    
C72   O7    A    
C52   H44   S    
C22   O24   S    
C47   H40   S    
O11   Zn1   S    
C43   C49   A    
C29   H90   S    
C54   C60   A    
C35   H35   S    
C23   H76   S    
C45   C52   A    
O2    Zn2   S    
C94   H25   S    
C65   C71   A    
C66   C73   A    
O9    Zn5   S    
C115  H22   S    
C95   H8    S    
C87   O14   A    
C15   H57   S    
C10   C39   S    
C113  H20   S    
C50   O11   A    
C40   C46   A    
O28   Zn7   S    
C29   C30   S    
C7    C119  A    
C104  C111  A    
C31   H96   S    
C1    O9    A    
C64   O26   S    
O12   Zn8   S    
C61   O29   A    
C41   C81   S    
C15   H58   S    
O15   Zn6   S    
C27   H85   S    
C24   C37   A    
C41   C47   A    
C56   C63   A    
C4    C122  A    
C67   C74   A    
C42   C48   A    
C72   O30   A    
C4    C11   A    
C100  C107  A    
C93   C100  A    
C73   C85   S    
C116  H27   S    
C97   C103  A    
C52   C58   A    
C111  H18   S    
C49   H42   S    
C47   C54   A    
C16   H60   S    
C119  C125  A    
C44   C51   A    
C75   C87   S    
C5    C97   A    
C67   C81   A    
C12   O20   S    
C91   C124  A    
C111  C118  A    
C26   C27   S    
O27   Zn8   S    
C29   O26   S    
C40   C78   S    
C60   C116  A    
C76   C82   A    
C25   H80   S    
C49   C56   A    
O12   Zn2   S    
O1    Zn7   S    
C33   H32   S    
C54   H47   S    
C57   C64   A    
O1    Zn3   S    
C32   H31   S    
C22   H74   S    
C28   H87   S    
O12   Zn4   S    
C99   C106  A    
C68   H2    S    
C18   H64   S    
O14   Zn5   S    
C22   H75   S    
C22   C23   S    
C89   O16   A    
C11   C123  A    
C7    C50   S    
C12   C14   S    
C10   C122  A    
C103  H17   S    
O13   Zn2   S    
C112  C119  A    
O6    Zn6   S    
C19   O22   S    
C98   H11   S    
C77   C89   S    
C83   O8    A    
C75   C81   A    
C28   H86   S    
C73   C79   A    
C63   O25   S    
C5    C123  A    
C93   H7    S    
C9    C126  A    
C77   C84   A    
C30   H92   S    
O16   Zn1   S    
C85   O18   A    
O32   Zn1   S    
C58   C94   A    
C2    C35   A    
O3    Zn3   S    
C5    C10   A    
C69   C84   A    
C1    O23   A    
C34   H33   S    
C68   C80   A    
O1    Zn5   S    
C2    H28   S    
C48   H41   S    
C37   C44   A    
C86   O19   A    
C61   O13   A    
C88   O15   A    
C106  H1    S    
C46   C53   A    
C21   H71   S    
C104  H12   S    
C4    C96   A    
C26   H83   S    
C3    C121  A    
C13   C63   A    
C27   H84   S    
C91   C98   A    
C117  C123  A    
C70   C82   A    
C76   C90   S    
C109  C115  A    
O29   Zn8   S    
C108  H23   S    
C16   O21   S    
O1    Zn1   S    
C39   O10   A    
C23   C25   S    
C20   C21   S    
C19   H68   S    
C69   H3    S    
O10   Zn6   S    
C57   H50   S    
C23   H77   S    
O17   Zn2   S    
C14   C15   S    
C36   C43   A    
C3    C95   A    
C105  H26   S    
C97   H10   S    
C74   C88   S    
C25   H81   S    
C2    C62   A    
C98   C104  A    
C71   C78   A    
C14   H54   S    
C95   C101  A    
C92   C99   A    
C6    C118  A    
C30   H93   S    
C27   C28   S    
O7    Zn3   S    
