data_mof_unit_51076.cif
_audit_creation_date              2012-12-10T16:52:39-0500
_audit_creation_method            fapswitch 2.2
_symmetry_space_group_name_H-M    P1
_symmetry_Int_Tables_number       1
_space_group_crystal_system       triclinic
_cell_length_a                    13.003591
_cell_length_b                    10.913119
_cell_length_c                    9.788736
_cell_angle_alpha                 88.632971
_cell_angle_beta                  96.468222
_cell_angle_gamma                 91.409552
_cell_volume                      1379.54591973

loop_
_atom_site_label
_atom_site_type_symbol
_atom_type_description
_atom_site_fract_x
_atom_site_fract_y
_atom_site_fract_z
_atom_type_partial_charge
C1    C     C_R   0.503497 0.265749 0.501808 0.866614
C2    C     C_R   0.029995 0.505716 0.567584 -0.031774
C3    C     C_R   0.972085 0.500059 0.437332 0.109875
C4    C     C_R   0.864771 0.497335 0.427799 -0.319689
C5    C     C_R   0.872689 0.484132 0.678865 0.356764
C6    C     C_R   0.980120 0.505165 0.687446 0.352528
C7    C     C_2   0.513546 0.935795 0.400755 -0.305376
C8    C     C_2   0.470098 0.862607 0.491831 0.301895
C9    C     C_2   0.502897 0.068405 0.392908 -0.116269
C10   C     C_2   0.514352 0.134095 0.507261 -0.181325
C11   C     C_2   0.457334 0.413479 0.922121 0.482251
C12   C     C_R   0.300841 0.501046 0.473727 0.865603
C13   C     C_2   0.477117 0.406387 0.075356 0.029483
C14   C     C_R   0.494253 0.733786 0.497870 0.737626
C15   C     C_R   0.699537 0.495473 0.527307 0.834169
C16   C     C_R   0.813474 0.490748 0.546651 -0.239109
C17   C     C_R   0.188021 0.503104 0.458560 -0.052588
C18   C     C_R   0.022542 0.497863 0.318268 -0.142163
C19   C     C_R   0.130257 0.498139 0.328888 -0.163789
C20   C     C_R   0.137517 0.508688 0.576744 -0.119486
Cu1   Cu    Cu3+1 0.500020 0.500020 0.638640 1.108393
Cu2   Cu    Cu3+1 0.499980 0.499980 0.361360 1.000722
H1    H     H_    0.821268 0.498743 0.326526 0.186317
H2    H     H_    0.532858 0.090067 0.607227 0.213205
H3    H     H_    0.557310 0.552067 0.893323 0.233345
H4    H     H_    0.467169 0.317821 0.125133 0.149334
H5    H     H_    0.978753 0.494084 0.217578 0.163256
H6    H     H_    0.168189 0.493497 0.236267 0.182845
H7    H     H_    0.182251 0.512456 0.676885 0.216456
H8    H     H_    0.562677 0.897161 0.330776 0.142046
H9    H     H_    0.492046 0.112247 0.291685 0.183147
N1    N     N_2   0.498860 0.498660 0.846770 -0.305999
N2    N     N_2   0.498840 0.498630 0.152900 -0.038413
O1    O     O_R   0.500020 0.321960 0.617050 -0.496917
O2    O     O_R   0.499980 0.321920 0.382890 -0.620950
O3    O     O_R   0.349010 0.500000 0.598060 -0.534030
O4    O     O_R   0.348980 0.499950 0.363910 -0.572419
O5    O     O_R   0.500020 0.678080 0.617110 -0.545133
O6    O     O_R   0.499980 0.678040 0.382950 -0.592118
O7    O     O_R   0.651020 0.500050 0.636090 -0.512326
O8    O     O_R   0.650990 0.500000 0.401940 -0.625932
S1    S     S_3+6 0.383577 0.283550 0.856967 0.046589
O9    O     O_2   0.316204 0.306275 0.724952 -0.251058
O10   O     O_2   0.457419 0.183135 0.838390 -0.267663
O11   O     O_3   0.306304 0.235042 0.975099 -0.549752
H10   H     H_    0.279857 0.153169 0.944372 0.393520
O12   O     O_3   0.496927 0.610907 0.092142 -0.494305
C21   C     C_3   0.597688 0.663559 0.118519 0.136867
H11   H     H_    0.657058 0.602238 0.085815 0.149225
H12   H     H_    0.619917 0.681002 0.228444 0.181015
C22   C     C_3   0.602499 0.785226 0.039866 -0.746915
H13   H     H_    0.585622 0.770824 0.927587 0.270469
H14   H     H_    0.544857 0.848597 0.072651 0.263122
H15   H     H_    0.681005 0.827690 0.060852 0.205672
S2    S     S_3+6 0.818922 0.443489 0.834242 0.013422
O13   O     O_2   0.767440 0.553430 0.883213 -0.358882
O14   O     O_2   0.740863 0.340170 0.809211 -0.285324
O15   O     O_3   0.910734 0.397110 0.958294 -0.474826
H16   H     H_    0.872496 0.370569 0.036251 0.354886
O16   O     O_3   0.037441 0.520937 0.813954 -0.513637
C23   C     C_3   0.045612 0.647936 0.839424 0.071073
H17   H     H_    0.967970 0.686117 0.848051 0.172843
H18   H     H_    0.081821 0.698838 0.756414 0.123452
C24   C     C_3   0.113436 0.668732 0.974020 -0.685698
H19   H     H_    0.190298 0.627304 0.970786 0.260317
H20   H     H_    0.124444 0.768584 0.991538 0.207211
H21   H     H_    0.075603 0.626654 0.060148 0.243990
S3    S     S_3+6 0.372038 0.907436 0.592583 0.031955
O17   O     O_2   0.421039 0.938750 0.734207 -0.266465
O18   O     O_2   0.313609 0.015384 0.528479 -0.244040
O19   O     O_3   0.288366 0.788851 0.605912 -0.554729
H22   H     H_    0.243298 0.813835 0.674991 0.367593

loop_
_geom_bond_atom_site_label_1
_geom_bond_atom_site_label_2
_ccdc_geom_bond_type
C12   C17   S    
C4    C16   A    
C23   C24   S    
S2    O13   D    
C15   O7    A    
C13   N2    D    
C19   H6    S    
C12   O3    A    
C9    C10   D    
O12   C21   S    
C4    H1    S    
C22   H15   S    
C24   H19   S    
H3    N1    S    
C21   H12   S    
C2    C3    A    
C14   O6    A    
C7    C8    D    
Cu1   O3    S    
Cu1   Cu2   S    
Cu2   O2    S    
C11   C13   S    
C15   O8    A    
C2    C6    A    
Cu1   O7    S    
S1    O10   D    
C3    C18   A    
S3    O19   S    
C5    C6    A    
Cu2   O6    S    
C21   H11   S    
C17   C19   A    
C11   N1    D    
C8    S3    S    
C7    C9    S    
C20   H7    S    
S2    O14   D    
C23   H17   S    
N2    O12   S    
Cu1   N1    S    
C13   H4    S    
C21   C22   S    
Cu2   O8    S    
C14   O5    A    
S1    O9    D    
C1    C10   S    
C2    C20   A    
C3    C4    A    
C24   H21   S    
C6    O16   S    
O19   H22   S    
C17   C20   A    
C22   H13   S    
C1    O1    A    
C1    O2    A    
C11   S1    S    
S3    O18   D    
C18   C19   A    
S2    O15   S    
C12   O4    A    
C7    H8    S    
Cu2   N2    S    
C9    H9    S    
Cu1   O5    S    
C5    C16   A    
C8    C14   S    
Cu1   O1    S    
O16   C23   S    
C10   H2    S    
O15   H16   S    
O11   H10   S    
Cu2   O4    S    
C5    S2    S    
C23   H18   S    
C18   H5    S    
C15   C16   S    
S3    O17   D    
C22   H14   S    
S1    O11   S    
C24   H20   S    
