data_mof_unit_68416.cif
_audit_creation_date              2012-12-11T17:41:20-0500
_audit_creation_method            fapswitch 2.2
_symmetry_space_group_name_H-M    P1
_symmetry_Int_Tables_number       1
_space_group_crystal_system       triclinic
_cell_length_a                    8.177411
_cell_length_b                    12.67136
_cell_length_c                    14.199917
_cell_angle_alpha                 92.754474
_cell_angle_beta                  90.739715
_cell_angle_gamma                 98.242643
_cell_volume                      1454.20619492

loop_
_atom_site_label
_atom_site_type_symbol
_atom_type_description
_atom_site_fract_x
_atom_site_fract_y
_atom_site_fract_z
_atom_type_partial_charge
Ba1   Ba    Ba6+2 0.855630 0.555280 0.454520 1.632404
Ba2   Ba    Ba6+2 0.334200 0.444810 0.545490 1.630583
C1    C     C_3   0.630571 0.955263 0.182057 0.279510
C2    C     C_R   0.182357 0.499366 0.196099 0.046183
C3    C     C_R   0.336552 0.552455 0.226459 -0.303556
C4    C     C_3   0.140619 0.803554 0.193236 0.330524
C5    C     C_R   0.449376 0.599071 0.162737 0.019460
C6    C     C_R   0.404746 0.601682 0.067801 -0.130464
C7    C     C_R   0.248072 0.552673 0.034858 -0.010259
C8    C     C_R   0.136946 0.497429 0.098148 -0.024186
C9    C     C_R   0.052545 0.502360 0.901891 -0.023003
C10   C     C_R   0.941421 0.447056 0.965170 -0.002080
C11   C     C_R   0.007317 0.500306 0.803924 0.042820
C12   C     C_3   0.653967 0.856606 0.234791 0.423523
C13   C     C_R   0.853645 0.446200 0.773448 -0.293797
C14   C     C_R   0.740381 0.399885 0.837194 0.016149
C15   C     C_R   0.784847 0.397787 0.932211 -0.148846
C16   C     C_3   0.108141 0.834877 0.093247 -0.323802
C17   C     C_R   0.204082 0.556555 0.938889 -0.036335
C18   C     C_R   0.765200 0.176111 0.533479 -0.277344
C19   C     C_R   0.429818 0.813056 0.459545 -0.281474
C20   C     C_R   0.407180 0.994477 0.424533 -0.105363
C21   C     C_R   0.341919 0.887073 0.420125 -0.010882
C22   C     C_R   0.576576 0.846132 0.511107 0.066804
C23   C     C_3   0.479407 0.316808 0.258536 0.305328
C24   C     C_R   0.641956 0.956679 0.519695 -0.056928
C25   C     C_R   0.556517 0.031124 0.474096 -0.063315
C26   C     C_R   0.620385 0.140867 0.481567 0.039377
C27   C     C_R   0.854083 0.104244 0.574592 -0.009506
C28   C     C_3   0.225474 0.762296 0.655220 0.281096
C29   C     C_R   0.790456 0.995500 0.570839 -0.092454
C30   C     C_3   0.236060 0.881858 0.674883 -0.347791
C31   C     C_3   0.972585 0.236117 0.343636 0.281548
C32   C     C_3   0.983213 0.118505 0.325270 -0.334961
C33   C     C_3   0.714108 0.673623 0.738410 0.304840
C34   C     C_3   0.456359 0.298763 0.152209 -0.409088
C35   C     C_3   0.730121 0.697506 0.844494 -0.389075
C36   C     C_3   0.477555 0.019822 0.066919 0.156580
C37   C     C_3   0.048483 0.195209 0.805032 0.364347
C38   C     C_3   0.065839 0.158983 0.904852 -0.369899
C39   C     C_3   0.546998 0.142642 0.759616 0.337545
C40   C     C_3   0.596520 0.050070 0.812210 -0.408629
C41   C     C_R   0.985454 0.443174 0.061136 -0.035611
H1    H     H_    0.742487 0.880183 0.294707 0.005912
H2    H     H_    0.831544 0.651177 0.712167 0.011813
H3    H     H_    0.612512 0.606480 0.724212 0.065347
H4    H     H_    0.590235 0.015166 0.233510 -0.026635
H5    H     H_    0.837168 0.760452 0.861014 0.128467
H6    H     H_    0.748793 0.624751 0.881083 0.061561
H7    H     H_    0.615816 0.725510 0.871114 0.127350
H8    H     H_    0.532835 0.823600 0.263731 -0.105798
H9    H     H_    0.365831 0.342666 0.287929 0.017491
H10   H     H_    0.585685 0.380734 0.272776 0.068261
H11   H     H_    0.339685 0.244338 0.135379 0.115985
H12   H     H_    0.318897 0.906932 0.736519 0.114996
H13   H     H_    0.449891 0.375568 0.119174 0.070481
H14   H     H_    0.562375 0.263670 0.122167 0.110183
H15   H     H_    0.751002 0.987888 0.151730 0.032311
H16   H     H_    0.174699 0.788066 0.042279 0.082512
H17   H     H_    0.130361 0.272338 0.799341 0.095284
H18   H     H_    0.918352 0.207180 0.792862 -0.069135
H19   H     H_    0.196444 0.150243 0.920539 0.145492
H20   H     H_    0.026760 0.218890 0.956224 0.067550
H21   H     H_    0.987261 0.080991 0.912817 0.110024
H22   H     H_    0.659289 0.181720 0.724978 -0.049564
H23   H     H_    0.285474 0.925249 0.613217 0.081788
H24   H     H_    0.454082 0.111115 0.703750 0.084428
H25   H     H_    0.692462 0.080360 0.866664 0.111548
H26   H     H_    0.646484 0.993160 0.762267 0.096984
H27   H     H_    0.071100 0.722749 0.201886 0.076719
H28   H     H_    0.487988 0.007771 0.847482 0.123169
H29   H     H_    0.372708 0.552701 0.300054 0.072791
H30   H     H_    0.493002 0.640636 0.019723 0.080952
H31   H     H_    0.696670 0.358809 0.980320 0.067622
H32   H     H_    0.818090 0.445095 0.699704 0.070209
H33   H     H_    0.899395 0.397756 0.106228 0.096798
H34   H     H_    0.111448 0.902533 0.690306 0.140933
H35   H     H_    0.290290 0.601798 0.893770 0.096915
H36   H     H_    0.336771 0.048430 0.391210 0.097080
H37   H     H_    0.859857 0.943049 0.606930 0.103685
H38   H     H_    0.813865 0.260293 0.537792 0.063478
H39   H     H_    0.274669 0.800728 0.202028 0.004463
H40   H     H_    0.378245 0.729393 0.455066 0.069860
H41   H     H_    0.974359 0.818607 0.075332 0.143677
H42   H     H_    0.150510 0.921198 0.086435 0.120989
H43   H     H_    0.348917 0.742791 0.637664 0.005592
H44   H     H_    0.138692 0.739364 0.594583 0.079473
H45   H     H_    0.844190 0.246548 0.358863 -0.007816
H46   H     H_    0.591496 0.068690 0.042116 0.033099
H47   H     H_    0.410747 0.067632 0.116898 0.059500
H48   H     H_    0.395020 0.996293 0.004672 0.064271
H49   H     H_    0.053832 0.264582 0.405505 0.082641
H50   H     H_    0.905819 0.087552 0.263041 0.093534
H51   H     H_    0.939145 0.073147 0.386875 0.088045
H52   H     H_    0.112883 0.107293 0.311207 0.132980
O1    O     O_2   0.887370 0.460630 0.272300 -0.469199
O2    O     O_2   0.195700 0.111278 0.567711 -0.482310
O3    O     O_3   0.094073 0.117462 0.740563 -0.602227
O4    O     O_3   0.129410 0.451380 0.388510 -0.494243
O5    O     O_3   0.575400 0.626570 0.547370 -0.491606
O6    O     O_2   0.344320 0.238700 0.455090 -0.463960
O7    O     O_3   0.509224 0.221494 0.297415 -0.653394
O8    O     O_2   0.399065 0.404486 0.835996 -0.496573
O9    O     O_3   0.476417 0.211042 0.823414 -0.598116
O10   O     O_3   0.670210 0.653170 0.329170 -0.480090
O11   O     O_2   0.787907 0.590144 0.164601 -0.496083
O12   O     O_3   0.680330 0.765519 0.695788 -0.641973
O13   O     O_3   0.019345 0.289253 0.262129 -0.641610
O14   O     O_3   0.719090 0.784297 0.172681 -0.596100
O15   O     O_2   0.845380 0.761330 0.544970 -0.471336
O16   O     O_3   0.088930 0.704860 0.376040 -0.488616
O17   O     O_2   0.003504 0.888604 0.434885 -0.484222
O18   O     O_3   0.512379 0.926658 0.108619 -0.640555
O19   O     O_3   0.089471 0.878907 0.258240 -0.604304
O20   O     O_2   0.302330 0.539400 0.727760 -0.470386
O21   O     O_3   0.060300 0.548700 0.611500 -0.495717
O22   O     O_3   0.519500 0.346920 0.670840 -0.469721
O23   O     O_3   0.171902 0.711087 0.736677 -0.638335
O24   O     O_3   0.614310 0.373510 0.452640 -0.481076
O25   O     O_3   0.100780 0.295230 0.623970 -0.487552
P1    P     P_3+3 0.054400 0.427280 0.286870 0.969956
P2    P     P_3+3 0.668300 0.742890 0.573060 0.969241
P3    P     P_3+3 0.132189 0.842489 0.372508 0.943430
P4    P     P_3+3 0.135310 0.572810 0.713130 0.970221
P5    P     P_3+3 0.060187 0.155884 0.625882 0.947038
P6    P     P_3+3 0.656874 0.654283 0.206519 0.967834
P7    P     P_3+3 0.526026 0.242046 0.420194 0.930772
P8    P     P_3+3 0.533155 0.343315 0.793235 0.955548

loop_
_geom_bond_atom_site_label_1
_geom_bond_atom_site_label_2
_ccdc_geom_bond_type
C12   O14   S    
C13   H32   S    
C4    H39   S    
C27   P5    S    
C39   C40   S    
C32   H50   S    
O13   P1    S    
Ba1   O4    S    
C29   H37   S    
C39   H24   S    
C36   H46   S    
C9    C17   A    
C24   C25   A    
C38   H20   S    
O1    P1    D    
C12   H1    S    
C33   C35   S    
C31   H45   S    
C22   C24   A    
C20   H36   S    
C3    H29   S    
C23   O7    S    
C13   C14   A    
C38   H19   S    
Ba1   Ba2   S    
Ba1   O24   S    
Ba1   P2    S    
C4    O19   S    
C30   H34   S    
Ba2   O21   S    
C7    C17   A    
O3    P5    S    
C19   H40   S    
C14   C15   A    
C10   C15   A    
C16   H41   S    
Ba1   O21   S    
C28   H43   S    
C7    C8    A    
C30   H12   S    
C26   P7    S    
O4    P1    S    
Ba2   O5    S    
C24   C29   A    
C18   H38   S    
C40   H25   S    
C31   O13   S    
C4    C16   S    
Ba1   O5    S    
C6    H30   S    
Ba2   O22   S    
C18   C27   A    
C37   H18   S    
C16   H42   S    
O16   P3    S    
C5    C6    A    
C34   H11   S    
C32   H52   S    
O17   P3    D    
O2    P5    D    
C34   H14   S    
C1    O18   S    
C31   H49   S    
C37   C38   S    
C3    C5    A    
C36   O18   S    
Ba2   O25   S    
O25   P5    S    
C6    C7    A    
C37   O3    S    
C39   H22   S    
C18   C26   A    
Ba2   O6    S    
C36   H48   S    
C40   H26   S    
C17   H35   S    
C34   H13   S    
Ba1   O15   S    
C35   H6    S    
Ba2   O20   S    
C16   H16   S    
C12   H8    S    
O9    P8    S    
C9    C10   A    
C22   P2    S    
C31   C32   S    
O23   P4    S    
C35   H5    S    
O8    P8    D    
C14   P8    S    
C1    C12   S    
O19   P3    S    
O10   P6    S    
Ba2   O4    S    
O7    P7    S    
C20   C25   A    
C11   C13   A    
C15   H31   S    
C2    C8    A    
C33   H2    S    
C30   H23   S    
C41   H33   S    
C4    H27   S    
C36   H47   S    
O20   P4    D    
O21   P4    S    
C8    C41   A    
C32   H51   S    
C23   H10   S    
C2    C3    A    
C21   P3    S    
Ba2   O24   S    
Ba2   P4    S    
C10   C41   A    
C28   O23   S    
O11   P6    D    
C38   H21   S    
C39   O9    S    
C19   C21   A    
C23   H9    S    
C27   C29   A    
Ba1   O16   S    
C28   C30   S    
C35   H7    S    
C9    C11   A    
Ba1   O1    S    
C37   H17   S    
C1    H4    S    
C40   H28   S    
O6    P7    D    
C2    P1    S    
C11   P4    S    
O5    P2    S    
C5    P6    S    
O22   P8    S    
Ba1   P1    S    
C33   O12   S    
C23   C34   S    
C1    H15   S    
O14   P6    S    
C19   C22   A    
C25   C26   A    
C20   C21   A    
O12   P2    S    
C28   H44   S    
C33   H3    S    
O15   P2    D    
Ba1   O10   S    
O24   P7    S    
