data_mof_unit_61358.cif
_audit_creation_date              2012-12-10T18:24:46-0500
_audit_creation_method            fapswitch 2.2
_symmetry_space_group_name_H-M    P1
_symmetry_Int_Tables_number       1
_space_group_crystal_system       triclinic
_cell_length_a                    16.069371
_cell_length_b                    16.047145
_cell_length_c                    19.465967
_cell_angle_alpha                 95.371013
_cell_angle_beta                  90.52301
_cell_angle_gamma                 84.214645
_cell_volume                      4972.14627832

loop_
_atom_site_label
_atom_site_type_symbol
_atom_type_description
_atom_site_fract_x
_atom_site_fract_y
_atom_site_fract_z
_atom_type_partial_charge
C1    C     C_R   0.275837 0.510921 0.490947 0.512700
C2    C     C_2   0.483468 0.512649 0.981982 -0.128900
C3    C     C_2   0.531168 0.455282 0.015400 0.215722
C4    C     C_R   0.724054 0.489339 0.509016 0.521996
C5    C     C_R   0.514604 0.485318 0.235461 0.019914
C6    C     C_1   0.186481 0.515616 0.487113 0.031790
C7    C     C_2   0.021139 0.523554 0.480114 0.138594
C8    C     C_2   0.978633 0.478325 0.520117 0.140547
C9    C     C_1   0.888450 0.482197 0.516189 0.025754
C10   C     C_1   0.111353 0.519389 0.483874 0.012255
C11   C     C_1   0.813357 0.485478 0.512847 0.053374
C12   C     C_R   0.484842 0.515813 0.907166 -0.001110
C13   C     C_1   0.516820 0.184906 0.486049 0.039078
C14   C     C_2   0.525366 0.018747 0.475359 0.264657
C15   C     C_2   0.480686 0.980693 0.519002 -0.111971
C16   C     C_R   0.511669 0.274905 0.490788 0.509282
C17   C     C_1   0.482147 0.890476 0.516174 0.048092
C18   C     C_1   0.520836 0.109233 0.481378 0.009760
C19   C     C_1   0.484357 0.815004 0.513203 0.090153
C20   C     C_R   0.488261 0.725145 0.509083 0.528835
C21   C     C_R   0.509105 0.491068 0.311165 0.536778
C22   C     C_R   0.490433 0.510503 0.688459 0.592547
C23   C     C_R   0.411751 0.506931 0.869152 -0.094693
C24   C     C_R   0.488266 0.516470 0.763749 0.068661
C25   C     C_R   0.561180 0.530083 0.802749 0.229634
C26   C     C_R   0.558264 0.530378 0.874362 -0.023854
C27   C     C_R   0.412968 0.506934 0.797369 0.054401
C28   C     C_R   0.545062 0.539990 0.127322 -0.101900
C29   C     C_R   0.537220 0.552376 0.199077 0.249192
C30   C     C_R   0.497500 0.409436 0.198430 -0.161241
C31   C     C_R   0.503730 0.399030 0.126916 -0.109433
C32   C     C_R   0.528328 0.463885 0.091165 -0.037473
H1    H     H_    0.488111 0.340809 0.099482 0.189622
H2    H     H_    0.999206 0.445125 0.616772 0.249636
H3    H     H_    0.992824 0.637784 0.445650 0.248716
H4    H     H_    0.000463 0.556768 0.383473 0.244886
H5    H     H_    0.669331 0.992721 0.329298 0.380745
H6    H     H_    0.559828 0.777831 0.207123 0.396472
H7    H     H_    0.664738 0.318942 0.056648 0.355189
H8    H     H_    0.318569 0.436915 0.769110 0.244184
H9    H     H_    0.292110 0.541986 0.775720 0.247276
H10   H     H_    0.441879 0.018090 0.558281 0.096873
H11   H     H_    0.479474 0.357602 0.224940 0.160254
H12   H     H_    0.354352 0.497812 0.895005 0.136119
H13   H     H_    0.563001 0.590233 0.098881 0.177320
H14   H     H_    0.440179 0.559076 0.011055 0.114216
H15   H     H_    0.613220 0.541850 0.904953 0.206169
H16   H     H_    0.772126 0.596312 0.798641 0.380105
H17   H     H_    0.007056 0.364111 0.554594 0.244746
N1    N     N_3   0.022166 0.425554 0.567178 -0.620077
N2    N     N_3   0.977606 0.576375 0.433090 -0.604813
N3    N     N_3   0.338452 0.494401 0.758387 -0.605833
O1    O     O_3   0.500000 0.500000 0.500000 -0.477632
O2    O     O_R   0.462330 0.445560 0.340470 -0.554142
O3    O     O_R   0.440930 0.559110 0.655640 -0.515311
O4    O     O_R   0.554010 0.538050 0.348260 -0.466795
O5    O     O_R   0.542730 0.457290 0.655630 -0.487664
O6    O     O_2   0.698394 0.466299 0.732174 -0.227821
O7    O     O_2   0.639096 0.607851 0.709237 -0.295219
O8    O     O_3   0.720161 0.590400 0.823948 -0.504870
O9    O     O_2   0.655735 0.905320 0.442633 -0.241233
O10   O     O_2   0.537013 0.909331 0.362644 -0.239377
O11   O     O_3   0.635217 0.029030 0.364660 -0.502312
O12   O     O_R   0.555880 0.314540 0.535300 -0.529767
O13   O     O_2   0.482231 0.681698 0.290538 -0.253366
O14   O     O_2   0.634125 0.650239 0.276419 -0.220751
O15   O     O_3   0.550793 0.723855 0.180407 -0.517218
O16   O     O_2   0.548164 0.331861 0.911566 -0.212294
O17   O     O_2   0.673045 0.400658 0.945842 -0.250076
O18   O     O_3   0.622766 0.294957 0.025064 -0.481602
O19   O     O_R   0.439840 0.689760 0.546310 -0.544066
O20   O     O_R   0.320170 0.458170 0.449830 -0.532419
O21   O     O_R   0.684110 0.537530 0.468570 -0.520873
O22   O     O_R   0.310830 0.559620 0.535340 -0.530363
O23   O     O_R   0.684890 0.444680 0.546270 -0.507780
O24   O     O_R   0.463420 0.314900 0.449800 -0.535215
O25   O     O_R   0.540870 0.680800 0.468590 -0.479128
S1    S     S_3+6 0.656311 0.548483 0.764182 0.043986
S2    S     S_3+6 0.589542 0.961918 0.410051 0.059257
S3    S     S_3+6 0.551442 0.653731 0.239520 0.060142
S4    S     S_3+6 0.595014 0.369801 0.971888 0.049666
Zn1   Zn    Zn3+2 0.569660 0.430340 0.558290 1.029072
Zn2   Zn    Zn3+2 0.437560 0.430860 0.436130 0.963701
Zn3   Zn    Zn3+2 0.568560 0.563000 0.447270 1.061204
Zn4   Zn    Zn3+2 0.424220 0.575810 0.558310 0.995318

loop_
_geom_bond_atom_site_label_1
_geom_bond_atom_site_label_2
_ccdc_geom_bond_type
C7    C10   S    
C14   C18   S    
C19   C20   S    
C24   C27   A    
C2    C12   S    
C22   O5    A    
C7    C8    D    
O11   S2    S    
C2    H14   S    
C12   C23   A    
O8    S1    S    
C13   C18   T    
O1    Zn3   S    
O16   S4    D    
C28   C29   A    
C21   O2    A    
O7    S1    D    
O18   S4    S    
C4    O23   A    
O19   Zn4   S    
C8    C9    S    
C3    S4    S    
C31   H1    S    
C20   O19   A    
O4    Zn3   S    
C23   C27   A    
O21   Zn3   S    
O13   S3    D    
O24   Zn2   S    
O2    Zn2   S    
H5    O11   S    
H16   O8    S    
C5    C29   A    
C28   H13   S    
H2    N1    S    
C1    O20   A    
C1    C6    S    
O10   S2    D    
C28   C32   A    
C24   C25   A    
O25   Zn3   S    
C25   C26   A    
H8    N3    S    
C23   H12   S    
C25   S1    S    
C12   C26   A    
O1    Zn1   S    
O3    Zn4   S    
C31   C32   A    
C14   C15   D    
C14   S2    S    
C4    C11   S    
C9    C11   T    
O12   Zn1   S    
C4    O21   A    
H4    N2    S    
C26   H15   S    
C20   O25   A    
H3    N2    S    
C22   C24   S    
C30   H11   S    
C1    O22   A    
C8    N1    S    
C27   N3    S    
C5    C30   A    
C15   C17   S    
H9    N3    S    
C16   O24   A    
O15   S3    S    
C15   H10   S    
C6    C10   T    
C21   O4    A    
O23   Zn1   S    
C22   O3    A    
O14   S3    D    
O1    Zn2   S    
C2    C3    D    
C7    N2    S    
C30   C31   A    
C29   S3    S    
O9    S2    D    
C17   C19   T    
H7    O18   S    
O22   Zn4   S    
C3    C32   S    
O20   Zn2   S    
O17   S4    D    
O6    S1    D    
C5    C21   S    
H6    O15   S    
H17   N1    S    
C13   C16   S    
O5    Zn1   S    
O1    Zn4   S    
C16   O12   A    
