data_mof_unit_16286.cif
_audit_creation_date              2012-10-26T18:34:21-0400
_audit_creation_method            fapswitch 2.2
_symmetry_space_group_name_H-M    P1
_symmetry_Int_Tables_number       1
_space_group_crystal_system       triclinic
_cell_length_a                    10.946994
_cell_length_b                    9.531813
_cell_length_c                    9.073687
_cell_angle_alpha                 90.002584
_cell_angle_beta                  90.302994
_cell_angle_gamma                 90.000175
_cell_volume                      946.777905682

loop_
_atom_site_label
_atom_site_type_symbol
_atom_type_description
_atom_site_fract_x
_atom_site_fract_y
_atom_site_fract_z
_atom_type_partial_charge
C1    C     C_R   0.262106 0.499972 0.500798 0.569975
C2    C     C_R   0.063135 0.627524 0.510046 0.197473
C3    C     C_R   0.871788 0.499888 0.498477 -0.081111
C4    C     C_R   0.128212 0.499889 0.501538 -0.081128
C5    C     C_R   0.454450 0.074275 0.382748 0.008869
C6    C     C_R   0.546367 0.925722 0.616830 -0.008867
C7    C     C_R   0.545549 0.074284 0.617252 0.008881
C8    C     C_R   0.453631 0.925712 0.383171 -0.008903
C9    C     C_3   0.118749 0.200893 0.331532 0.006130
C10   C     C_3   0.130017 0.042251 0.325736 -0.355603
C11   C     C_3   0.870472 0.776987 0.313155 0.003842
C12   C     C_R   0.737894 0.499972 0.499207 0.569994
C13   C     C_3   0.797106 0.909477 0.282613 -0.364746
C14   C     C_3   0.881259 0.200886 0.668473 0.006109
C15   C     C_3   0.869992 0.042246 0.674250 -0.355626
C16   C     C_3   0.129581 0.777011 0.686826 0.003828
C17   C     C_3   0.202925 0.909527 0.717334 -0.364821
C18   C     C_R   0.499963 0.500004 0.220634 0.540059
C19   C     C_R   0.500037 0.500008 0.779366 0.540053
C20   C     C_1   0.499988 0.500019 0.065547 -0.075868
C21   C     C_1   0.500012 0.500024 0.934453 -0.075868
C22   C     C_R   0.063322 0.372401 0.492538 0.195672
C23   C     C_R   0.936865 0.627521 0.489967 0.197495
C24   C     C_R   0.936677 0.372401 0.507483 0.195675
Cu1   Cu    Cu3+1 0.500000 0.640660 0.500000 0.945892
Cu2   Cu    Cu3+1 0.500000 0.359340 0.500000 0.961877
H1    H     H_    0.416963 0.129624 0.288912 0.108283
H2    H     H_    0.823480 0.688230 0.256252 0.123543
H3    H     H_    0.963215 0.789843 0.265173 0.128312
H4    H     H_    0.793534 0.929538 0.162065 0.078455
H5    H     H_    0.702694 0.896342 0.323699 0.183129
H6    H     H_    0.839344 0.001279 0.338097 0.184208
H7    H     H_    0.803557 0.248362 0.729141 0.129556
H8    H     H_    0.968034 0.229400 0.726467 0.128688
H9    H     H_    0.948871 0.994123 0.617915 0.202987
H10   H     H_    0.867613 0.005943 0.790473 0.070740
H11   H     H_    0.786138 0.007621 0.616582 0.178450
H12   H     H_    0.584611 0.870361 0.710237 0.117340
H13   H     H_    0.176615 0.688274 0.743693 0.123605
H14   H     H_    0.036859 0.789836 0.734864 0.128282
H15   H     H_    0.160593 0.001309 0.662062 0.184096
H16   H     H_    0.206679 0.929525 0.837833 0.078450
H17   H     H_    0.297226 0.896508 0.676049 0.183210
H18   H     H_    0.583036 0.129640 0.711088 0.108289
H19   H     H_    0.415386 0.870344 0.289764 0.117344
H20   H     H_    0.196457 0.248374 0.270879 0.129559
H21   H     H_    0.031975 0.229408 0.273533 0.128675
H22   H     H_    0.051125 0.994128 0.382044 0.202959
H23   H     H_    0.132416 0.005950 0.209510 0.070724
H24   H     H_    0.213862 0.007623 0.383420 0.178470
N1    N     N_R   0.500000 0.852070 0.500000 -0.230603
N2    N     N_R   0.500000 0.147930 0.500000 -0.212358
O1    O     O_R   0.319640 0.618740 0.499990 -0.460667
O2    O     O_3   0.878050 0.754138 0.467000 -0.530150
O3    O     O_3   0.877473 0.244775 0.519533 -0.524806
O4    O     O_3   0.121948 0.754150 0.532987 -0.530163
O5    O     O_R   0.680360 0.381260 0.500010 -0.459656
O6    O     O_R   0.680360 0.618740 0.500010 -0.460650
O7    O     O_R   0.319640 0.381260 0.499990 -0.459658
O8    O     O_R   0.500000 0.618760 0.288390 -0.514158
O9    O     O_R   0.500000 0.381240 0.711610 -0.512415
O10   O     O_R   0.500000 0.618760 0.711610 -0.514149
O11   O     O_R   0.500000 0.381240 0.288390 -0.512413
O12   O     O_3   0.122523 0.244774 0.480479 -0.524791

loop_
_geom_bond_atom_site_label_1
_geom_bond_atom_site_label_2
_ccdc_geom_bond_type
C14   H8    S    
C5    C8    A    
C2    C4    A    
Cu2   O11   S    
C16   O4    S    
C5    N2    A    
C6    C7    A    
Cu1   O8    S    
Cu2   N2    S    
C6    N1    A    
C9    O12   S    
C4    C22   A    
C9    C10   S    
C15   H10   S    
C13   H6    S    
C3    C23   A    
C14   C15   S    
C1    C4    S    
C12   O6    A    
C14   H7    S    
Cu1   N1    S    
C14   O3    S    
C9    H20   S    
C2    O4    S    
C7    H18   S    
C24   O3    S    
C11   C13   S    
C8    N1    A    
C3    C24   A    
C11   O2    S    
C11   H2    S    
C16   H14   S    
C12   O5    A    
C18   O8    A    
C19   C21   S    
Cu2   O9    S    
C19   O9    A    
C7    N2    A    
C9    H21   S    
C18   C20   S    
Cu1   O10   S    
C1    O7    A    
C10   H22   S    
Cu2   O5    S    
C22   C24   A    
C18   O11   A    
C17   H15   S    
Cu1   O6    S    
C16   H13   S    
C22   O12   S    
C10   H24   S    
C13   H4    S    
C2    C23   A    
C20   C21   T    
C11   H3    S    
C23   O2    S    
Cu2   O7    S    
C15   H9    S    
C17   H17   S    
C1    O1    A    
C17   H16   S    
C15   H11   S    
C3    C12   S    
C19   O10   A    
Cu1   Cu2   S    
C5    H1    S    
C10   H23   S    
C6    H12   S    
C13   H5    S    
C8    H19   S    
Cu1   O1    S    
C16   C17   S    
