data_mof_unit_19626.cif
_audit_creation_date              2012-12-11T17:47:31-0500
_audit_creation_method            fapswitch 2.2
_symmetry_space_group_name_H-M    P1
_symmetry_Int_Tables_number       1
_space_group_crystal_system       triclinic
_cell_length_a                    14.854504
_cell_length_b                    14.866137
_cell_length_c                    15.158657
_cell_angle_alpha                 110.7531
_cell_angle_beta                  108.882946
_cell_angle_gamma                 108.341075
_cell_volume                      2589.72128873

loop_
_atom_site_label
_atom_site_type_symbol
_atom_type_description
_atom_site_fract_x
_atom_site_fract_y
_atom_site_fract_z
_atom_type_partial_charge
C1    C     C_R   0.981857 0.260065 0.070774 -0.079772
C2    C     C_R   0.055366 0.138801 0.159386 -0.202678
C3    C     C_R   0.378225 0.203405 0.986299 -0.132965
C4    C     C_R   0.825321 0.963469 0.235779 0.000322
C5    C     C_R   0.281004 0.151018 0.984695 -0.161458
C6    C     C_R   0.921292 0.013305 0.234004 -0.081786
C7    C     C_R   0.560635 0.189852 0.187056 -0.096602
C8    C     C_R   0.328381 0.669283 0.770793 -0.104029
C9    C     C_R   0.648768 0.295865 0.262542 -0.132382
C10   C     C_R   0.220823 0.607230 0.686752 -0.123153
C11   C     C_R   0.755728 0.314118 0.294904 0.111712
C12   C     C_R   0.083380 0.800899 0.997001 -0.071993
C13   C     C_R   0.154402 0.656255 0.674692 0.119836
C14   C     C_R   0.772672 0.223614 0.253827 -0.186965
C15   C     C_R   0.197055 0.768205 0.747254 -0.169745
C16   C     C_R   0.314225 0.754390 0.224844 -0.091097
C17   C     C_R   0.693372 0.204512 0.780771 -0.043381
C18   C     C_R   0.684511 0.119136 0.174207 -0.110129
C19   C     C_R   0.303661 0.829038 0.833773 -0.135348
C20   C     C_R   0.578428 0.102109 0.141160 -0.108281
C21   C     C_R   0.369570 0.779837 0.845073 -0.096471
C22   C     C_R   0.860880 0.428408 0.489547 -0.207966
C23   C     C_R   0.319924 0.775158 0.324691 0.236351
C24   C     C_R   0.021187 0.588930 0.490544 -0.191658
C25   C     C_R   0.957643 0.509598 0.584164 0.059765
C26   C     C_R   0.927802 0.502710 0.392676 0.075455
C27   C     C_R   0.040443 0.588955 0.584981 -0.000692
C28   C     C_R   0.847336 0.418951 0.391551 0.009919
C29   C     C_R   0.264610 0.202823 0.071198 0.057242
C30   C     C_R   0.925098 0.973317 0.137011 0.033313
C31   C     C_R   0.442992 0.360583 0.159193 -0.108678
C32   C     C_R   0.734208 0.837149 0.042977 -0.182776
C33   C     C_R   0.145345 0.919811 0.502267 0.614827
C34   C     C_R   0.688235 0.155091 0.681203 0.190547
C35   C     C_R   0.852423 0.949739 0.703364 0.579822
C36   C     C_R   0.221321 0.929899 0.465399 -0.237360
C37   C     C_R   0.750073 0.943031 0.662495 -0.202703
C38   C     C_R   0.321245 0.938197 0.525425 0.150345
C39   C     C_R   0.715563 0.966291 0.579665 0.194788
C40   C     C_R   0.210089 0.408834 0.901643 -0.147273
C41   C     C_R   0.774988 0.593264 0.030109 -0.097018
C42   C     C_R   0.348283 0.948311 0.627577 -0.079067
C43   C     C_R   0.784389 0.997253 0.538593 -0.136955
C44   C     C_R   0.276594 0.948911 0.668224 -0.192608
C45   C     C_R   0.298296 0.500562 0.927725 0.027923
C46   C     C_R   0.889909 0.013143 0.586090 -0.150351
C47   C     C_R   0.174157 0.931656 0.604756 -0.261390
C48   C     C_R   0.923740 0.988197 0.667422 -0.238633
C49   C     C_R   0.496630 0.051574 0.552686 0.447706
C50   C     C_R   0.515006 0.861901 0.454207 0.534621
C51   C     C_R   0.597780 0.055801 0.586101 -0.227101
C52   C     C_R   0.413339 0.857740 0.429711 -0.228827
C53   C     C_R   0.608342 0.961317 0.538734 -0.200086
C54   C     C_R   0.405420 0.949508 0.491173 -0.178311
C55   C     C_R   0.460041 0.307081 0.074579 -0.136237
C56   C     C_R   0.673569 0.501551 0.957154 0.040794
C57   C     C_R   0.731862 0.875208 0.140334 -0.154902
C58   C     C_R   0.024407 0.030523 0.133352 0.069021
C59   C     C_R   0.173263 0.139952 0.081510 0.072270
C60   C     C_R   0.345195 0.309260 0.157077 -0.116786
C61   C     C_R   0.830163 0.885614 0.041213 -0.072379
C62   C     C_R   0.075517 0.977913 0.086896 0.119683
C63   C     C_R   0.109203 0.182730 0.111887 0.060601
C64   C     C_R   0.990572 0.590375 0.295972 -0.104711
C65   C     C_R   0.952584 0.409625 0.686090 -0.122971
C66   C     C_3   0.469751 0.403233 0.905085 -0.129074
C67   C     C_R   0.931433 0.499104 0.297715 0.059640
C68   C     C_3   0.491667 0.601947 0.944725 -0.208737
C69   C     C_3   0.398647 0.424735 0.824071 -0.088732
C70   C     C_3   0.562565 0.580173 0.025168 -0.138027
C71   C     C_3   0.391477 0.502486 0.916483 0.136848
C72   C     C_3   0.571031 0.502341 0.933565 0.161654
C73   C     C_3   0.461778 0.481553 0.996964 -0.135688
C74   C     C_3   0.501965 0.524355 0.852428 -0.117997
C75   C     C_R   0.299078 0.591545 0.993672 -0.050721
C76   C     C_R   0.684311 0.408834 0.939458 -0.082435
C77   C     C_R   0.903265 0.408437 0.205818 -0.173381
C78   C     C_R   0.975225 0.503971 0.679441 0.067288
C79   C     C_R   0.035084 0.594258 0.781218 -0.087577
C80   C     C_R   0.216723 0.737008 0.309354 -0.141647
C81   C     C_R   0.785587 0.212114 0.689829 -0.103479
C82   C     C_R   0.074860 0.258280 0.980760 -0.083356
C83   C     C_R   0.994018 0.801227 0.089472 -0.160897
C84   C     C_R   0.064035 0.238731 0.061644 0.111280
C85   C     C_R   0.046488 0.862356 0.053654 0.061791
C86   C     C_R   0.158025 0.038957 0.072924 -0.118494
H1    H     H_    0.949295 0.252664 0.123102 0.089325
H2    H     H_    0.379550 0.631399 0.777859 0.116289
H3    H     H_    0.633995 0.362704 0.299544 0.124590
H4    H     H_    0.189378 0.521201 0.630603 0.113767
H5    H     H_    0.854383 0.234374 0.283190 0.111786
H6    H     H_    0.146735 0.807110 0.738673 0.115822
H7    H     H_    0.698305 0.050916 0.139948 0.128872
H8    H     H_    0.335445 0.914570 0.891507 0.100497
H9    H     H_    0.799680 0.366359 0.491130 0.147779
H10   H     H_    0.087346 0.649242 0.492598 0.127396
H11   H     H_    0.220203 0.068728 0.917927 0.152774
H12   H     H_    0.140949 0.828888 0.971207 0.086244
H13   H     H_    0.992556 0.083371 0.307919 0.147181
H14   H     H_    0.442728 0.470586 0.058238 0.162838
H15   H     H_    0.521621 0.542363 0.793873 0.145161
H16   H     H_    0.381002 0.776536 0.208356 0.133829
H17   H     H_    0.634659 0.171780 0.803788 0.091225
H18   H     H_    0.334838 0.349981 0.225135 0.141165
H19   H     H_    0.830313 0.854591 0.965133 0.207579
H20   H     H_    0.117836 0.928251 0.635875 0.168200
H21   H     H_    0.004903 0.998370 0.701604 0.161314
H22   H     H_    0.201117 0.926656 0.388569 0.168645
H23   H     H_    0.391435 0.162275 0.920735 0.118156
H24   H     H_    0.696346 0.917415 0.693246 0.161572
H25   H     H_    0.426866 0.959841 0.677426 0.110674
H26   H     H_    0.758428 0.015008 0.474219 0.126635
H27   H     H_    0.300664 0.963088 0.749155 0.139569
H28   H     H_    0.945416 0.044716 0.559754 0.208989
H29   H     H_    0.208585 0.007060 0.051476 0.093798
H30   H     H_    0.017766 0.178378 0.197341 0.107396
H31   H     H_    0.328938 0.361606 0.741764 0.145007
H32   H     H_    0.630600 0.643181 0.108451 0.152173
H33   H     H_    0.459669 0.320639 0.887464 0.137290
H34   H     H_    0.822975 0.994217 0.310837 0.124946
H35   H     H_    0.495996 0.682460 0.961217 0.109978
H36   H     H_    0.182862 0.324229 0.845219 0.107481
H37   H     H_    0.794152 0.678419 0.065813 0.136938
H38   H     H_    0.016428 0.674905 0.350587 0.152280
H39   H     H_    0.913230 0.326193 0.620451 0.094150
H40   H     H_    0.353088 0.676378 0.022555 0.085309
H41   H     H_    0.620647 0.324413 0.892585 0.132715
H42   H     H_    0.846574 0.324213 0.172477 0.118387
H43   H     H_    0.064175 0.679371 0.804298 0.111657
H44   H     H_    0.191985 0.734367 0.368112 0.106672
H45   H     H_    0.506254 0.441347 0.227069 0.140297
H46   H     H_    0.811306 0.191105 0.630452 0.090404
H47   H     H_    0.129840 0.248526 0.950753 0.113067
H48   H     H_    0.973147 0.830496 0.151291 0.184106
H49   H     H_    0.536798 0.346280 0.077532 0.120872
H50   H     H_    0.657378 0.837763 0.141732 0.133426
H51   H     H_    0.854667 0.812770 0.402052 0.385641
H52   H     H_    0.993196 0.846429 0.761928 0.341007
H53   H     H_    0.381792 0.124008 0.424749 0.327554
H54   H     H_    0.627771 0.672528 0.422171 0.372088
H55   H     H_    0.662014 0.770374 0.968324 0.136894
H56   H     H_    0.510088 0.020540 0.081906 0.095623
H57   H     H_    0.452577 0.827412 0.910989 0.097234
H58   H     H_    0.478403 0.175096 0.165358 0.134397
N1    N     N_R   0.947560 0.293820 0.002910 -0.054525
N2    N     N_R   0.789450 0.443190 0.997090 -0.055357
N3    N     N_R   0.945970 0.443180 0.152110 -0.045220
N4    N     N_R   0.054030 0.556820 0.847890 -0.050703
N5    N     N_R   0.151530 0.706170 0.208880 -0.050907
N6    N     N_R   0.848470 0.293830 0.791120 -0.049443
N7    N     N_R   0.004980 0.293810 0.946140 -0.056436
N8    N     N_R   0.995020 0.706190 0.053860 -0.035778
N9    N     N_R   0.052440 0.706180 0.997090 -0.051247
N10   N     N_R   0.208960 0.706170 0.152110 -0.067909
N11   N     N_R   0.791040 0.293830 0.847890 -0.053777
N12   N     N_R   0.154330 0.443160 0.946140 -0.041761
N13   N     N_R   0.845670 0.556840 0.053860 -0.031595
N14   N     N_R   0.002190 0.556820 0.208880 -0.039940
N15   N     N_R   0.997810 0.443180 0.791120 -0.042459
N16   N     N_R   0.210550 0.556810 0.002910 -0.040330
Ni1   Ni    Ni4+2 0.869690 0.369690 0.000000 0.221329
Ni2   Ni    Ni4+2 0.130310 0.630310 0.000000 0.216308
Ni3   Ni    Ni4+2 0.001390 0.369680 0.869810 0.218798
Ni4   Ni    Ni4+2 0.998610 0.630320 0.130190 0.281269
O1    O     O_2   0.019131 0.999114 0.434628 -0.347274
O2    O     O_2   0.417334 0.640286 0.317475 -0.303482
O3    O     O_2   0.565150 0.760977 0.307207 -0.353390
O4    O     O_3   0.613865 0.726777 0.468340 -0.516517
O5    O     O_2   0.976172 0.815870 0.304413 -0.375585
O6    O     O_3   0.927401 0.833570 0.457016 -0.560429
O7    O     O_2   0.898470 0.988868 0.900629 -0.328539
O8    O     O_2   0.803207 0.796351 0.757803 -0.290764
O9    O     O_3   0.009526 0.911632 0.826449 -0.580320
O10   O     O_2   0.464795 0.197598 0.687638 -0.312635
O11   O     O_2   0.578637 0.269012 0.616696 -0.283327
O12   O     O_3   0.370344 0.148089 0.488161 -0.498265
S1    S     S_3+6 0.014338 0.892375 0.420680 -0.112314
S2    S     S_3+6 0.889794 0.910016 0.799393 -0.076098
S3    S     S_3+6 0.480805 0.171622 0.590491 -0.039932
S4    S     S_3+6 0.525299 0.743774 0.382333 -0.067551

loop_
_geom_bond_atom_site_label_1
_geom_bond_atom_site_label_2
_ccdc_geom_bond_type
C75   N16   A    
H54   O4    S    
C73   H14   S    
C58   C62   A    
C56   C76   A    
C45   C71   S    
O1    S1    D    
C22   H9    S    
C14   C18   A    
C1    N1    A    
C67   C77   A    
C24   C27   A    
C12   N9    A    
C65   N15   A    
N2    N13   A    
C26   C28   A    
N11   Ni1   S    
C1    C84   A    
C15   C19   A    
N6    Ni3   S    
C62   C86   A    
C34   C51   S    
C12   C85   A    
C26   C67   S    
C11   C28   S    
C19   C21   A    
C24   C26   A    
C32   C61   A    
C38   C42   A    
C24   H10   S    
C31   C55   A    
C11   C14   A    
C48   H21   S    
C36   H22   S    
C68   C74   S    
C81   N6    A    
C79   H43   S    
C66   H33   S    
C33   C36   A    
C77   H42   S    
C1    H1    S    
C69   C71   S    
C83   H48   S    
C31   H45   S    
C15   H6    S    
C2    H30   S    
O12   S3    S    
C66   C72   S    
C29   C59   S    
N12   Ni3   S    
C49   C51   A    
C22   C25   A    
C4    C57   A    
C50   C52   A    
O7    S2    D    
C34   C81   A    
C23   C80   A    
C61   H19   S    
C77   N3    A    
C12   H12   S    
C82   N7    A    
C44   C47   A    
N14   Ni4   S    
N7    Ni3   S    
C68   C70   S    
C35   S2    S    
O3    S4    D    
C76   N2    A    
C22   C28   A    
H53   O12   S    
C40   C45   A    
C42   C44   A    
C32   C57   A    
H52   O9    S    
C35   C48   A    
O5    S1    D    
C7    H58   S    
N2    Ni1   S    
C52   C54   A    
C5    C29   A    
C80   N5    A    
C62   C85   S    
C46   C48   A    
C50   C53   A    
C80   H44   S    
C46   H28   S    
O6    S1    S    
C33   S1    S    
C25   C78   S    
C64   C67   A    
C20   H56   S    
N12   N16   A    
C21   H57   S    
C72   C74   S    
N3    Ni1   S    
C9    H3    S    
C71   C73   S    
C78   C79   A    
C81   H46   S    
O11   S3    D    
C56   C72   S    
C64   H38   S    
C66   C73   S    
C86   H29   S    
C51   C53   A    
N4    N15   A    
C65   H39   S    
C31   C60   A    
C50   S4    S    
N5    N10   A    
C41   C56   A    
C40   N12   A    
C38   C54   S    
C29   C60   A    
C18   H7    S    
C47   H20   S    
C70   C73   S    
C8    C21   A    
H51   O6    S    
C69   C74   S    
C57   H50   S    
N5    Ni4   S    
N1    N7    A    
C9    C11   A    
N13   Ni4   S    
C32   H55   S    
N8    Ni4   S    
C19   H8    S    
C74   H15   S    
C41   N13   A    
C4    C6    A    
C83   C85   A    
C5    H11   S    
C44   H27   S    
C16   C23   A    
C82   C84   A    
N6    N11   A    
C13   C15   A    
C16   N10   A    
C33   C47   A    
N15   Ni3   S    
O2    S4    D    
C43   H26   S    
C17   N11   A    
C2    C63   A    
C35   C37   A    
C83   N8    A    
C16   H16   S    
C7    C9    A    
C65   C78   A    
C6    C30   A    
C59   C63   A    
N10   Ni2   S    
C42   H25   S    
C13   C27   S    
C3    C5    A    
C10   C13   A    
C68   H35   S    
C39   C43   A    
C2    C58   A    
C79   N4    A    
C25   C27   A    
C40   H36   S    
C63   C84   S    
C3    C55   A    
N9    Ni2   S    
C45   C75   A    
C75   H40   S    
N4    Ni2   S    
C6    H13   S    
C41   H37   S    
C82   H47   S    
C36   C38   A    
C17   H17   S    
C59   C86   A    
C37   C39   A    
O4    S4    S    
C37   H24   S    
C23   C52   S    
C39   C53   S    
N1    Ni1   S    
O9    S2    S    
C3    H23   S    
C68   C71   S    
C55   H49   S    
C30   C58   S    
O8    S2    D    
C69   H31   S    
C18   C20   A    
C43   C46   A    
C14   H5    S    
C66   C69   S    
C70   H32   S    
N8    N9    A    
C10   H4    S    
C8    C10   A    
C7    C20   A    
C17   C34   A    
C30   C61   A    
C64   N14   A    
C76   H41   S    
C4    H34   S    
C70   C72   S    
C8    H2    S    
C60   H18   S    
N3    N14   A    
O10   S3    D    
C49   C54   A    
N16   Ni2   S    
C49   S3    S    
