data_mof_unit_65733.cif
_audit_creation_date              2012-12-10T18:39:29-0500
_audit_creation_method            fapswitch 2.2
_symmetry_space_group_name_H-M    P1
_symmetry_Int_Tables_number       1
_space_group_crystal_system       triclinic
_cell_length_a                    15.767665
_cell_length_b                    11.571924
_cell_length_c                    10.787031
_cell_angle_alpha                 89.995351
_cell_angle_beta                  89.98522
_cell_angle_gamma                 89.976986
_cell_volume                      1968.22540394

loop_
_atom_site_label
_atom_site_type_symbol
_atom_type_description
_atom_site_fract_x
_atom_site_fract_y
_atom_site_fract_z
_atom_type_partial_charge
C1    C     C_R   0.500019 0.281183 0.500004 0.922906
C2    C     C_R   0.337731 0.499991 0.500028 0.897214
C3    C     C_R   0.662262 0.500009 0.499993 0.898046
C4    C     C_1   0.500151 0.059151 0.500004 0.022822
C5    C     C_1   0.500093 0.161049 0.500010 -0.159172
C6    C     C_1   0.500000 0.500015 0.069783 0.058101
C7    C     C_1   0.500000 0.500015 0.930217 0.052690
C8    C     C_R   0.500060 0.718813 0.499996 0.898660
C9    C     C_3   0.047554 0.425068 0.591775 0.473525
C10   C     C_3   0.048333 0.490260 0.370138 0.462759
C11   C     C_3   0.950024 0.433293 0.597388 0.466802
C12   C     C_1   0.750800 0.507299 0.500073 -0.154764
C13   C     C_3   0.950571 0.488299 0.371381 0.470952
C14   C     C_1   0.500174 0.940832 0.499994 0.014918
C15   C     C_1   0.500140 0.838938 0.499989 -0.177441
C16   C     C_3   0.063951 0.626400 0.790436 -0.795224
C17   C     C_3   0.093726 0.853521 0.492040 -0.651209
C18   C     C_3   0.921006 0.808772 0.694198 -0.628825
C19   C     C_3   0.834706 0.761871 0.419116 -0.756427
C20   C     C_1   0.249092 0.505496 0.500255 -0.148204
C21   C     C_3   0.082652 0.519608 0.502731 -0.270639
C22   C     C_3   0.917295 0.523915 0.501933 -0.277503
C23   C     C_3   0.950078 0.651435 0.536550 0.235403
C24   C     C_3   0.053337 0.645770 0.545633 0.202690
C25   C     C_1   0.825761 0.515597 0.500497 0.143804
C26   C     C_1   0.174058 0.511739 0.501094 0.144465
F1    F     F_    0.914774 0.325223 0.575019 -0.527755
F2    F     F_    0.921375 0.379055 0.339372 -0.512177
F3    F     F_    0.071810 0.315658 0.552395 -0.518323
F4    F     F_    0.079446 0.384499 0.329572 -0.516499
H1    H     H_    0.069888 0.552746 0.299382 0.001028
H2    H     H_    0.135178 0.899989 0.425381 0.239763
H3    H     H_    0.120007 0.869139 0.585809 0.237595
H4    H     H_    0.029344 0.891305 0.485160 0.268593
H5    H     H_    0.854506 0.655014 0.677732 0.212176
H6    H     H_    0.897764 0.817367 0.790923 0.215288
H7    H     H_    0.882761 0.866973 0.634817 0.249028
H8    H     H_    0.987659 0.837716 0.693147 0.265530
H9    H     H_    0.954945 0.727843 0.355036 0.203382
H10   H     H_    0.806553 0.703314 0.348737 0.227988
H11   H     H_    0.830241 0.851526 0.383171 0.259219
H12   H     H_    0.074503 0.432785 0.685680 0.063961
H13   H     H_    0.796959 0.756815 0.505571 0.240034
H14   H     H_    0.926003 0.547670 0.298923 0.024432
H15   H     H_    0.928948 0.457423 0.691802 0.022276
H16   H     H_    0.152960 0.691062 0.669008 0.246228
H17   H     H_    0.059313 0.699514 0.856638 0.259176
H18   H     H_    0.113420 0.566806 0.826354 0.232958
H19   H     H_    0.002812 0.581480 0.790437 0.240729
H20   H     H_    0.093051 0.716665 0.367411 0.196548
N1    N     N_1   0.500000 0.500010 0.180630 -0.074318
N2    N     N_1   0.500000 0.500010 0.819370 -0.075893
N3    N     N_2   0.089138 0.671069 0.670010 -0.277764
N4    N     N_2   0.092810 0.731187 0.461221 -0.328051
N5    N     N_2   0.912896 0.688994 0.655183 -0.289192
N6    N     N_2   0.923450 0.733044 0.438358 -0.284098
O1    O     O_R   0.500000 0.334450 0.602530 -0.604376
O2    O     O_R   0.500000 0.334450 0.397470 -0.602159
O3    O     O_R   0.377140 0.500000 0.602580 -0.612875
O4    O     O_R   0.377140 0.500000 0.397420 -0.599934
O5    O     O_R   0.622860 0.500000 0.602580 -0.611219
O6    O     O_R   0.622860 0.500000 0.397420 -0.603022
O7    O     O_R   0.500000 0.665550 0.602530 -0.611016
O8    O     O_R   0.500000 0.665550 0.397470 -0.610102
Zn1   Zn    Zn3+2 0.500000 0.500000 0.636920 0.997873
Zn2   Zn    Zn3+2 0.500000 0.500000 0.363080 1.008621

loop_
_geom_bond_atom_site_label_1
_geom_bond_atom_site_label_2
_ccdc_geom_bond_type
C19   N6    S    
C7    N2    T    
C23   C24   S    
O7    Zn1   S    
C13   F2    S    
C23   N5    S    
C6    C7    S    
C9    F3    S    
C6    N1    T    
C10   F4    S    
C11   C22   S    
H9    N6    S    
C14   C15   T    
C11   F1    S    
C12   C25   T    
C21   C26   S    
C16   H18   S    
C18   H6    S    
C18   H8    S    
N1    Zn2   S    
O4    Zn2   S    
C23   N6    S    
C10   C13   S    
C1    O2    A    
O3    Zn1   S    
C13   H14   S    
C9    C11   S    
C9    C21   S    
C9    H12   S    
H20   N4    S    
C17   H3    S    
C18   N5    S    
C8    O8    A    
C1    C5    S    
C17   N4    S    
H16   N3    S    
C22   C23   S    
C3    O6    A    
C18   H7    S    
C19   H13   S    
C13   C22   S    
C8    C15   S    
C1    O1    A    
C3    O5    A    
C10   C21   S    
C4    C14   S    
C2    O4    A    
C11   H15   S    
C19   H10   S    
O6    Zn2   S    
C8    O7    A    
C24   N4    S    
O5    Zn1   S    
C16   H19   S    
C16   H17   S    
C17   H4    S    
C21   C24   S    
C17   H2    S    
C16   N3    S    
C3    C12   S    
C24   N3    S    
C2    O3    A    
C2    C20   S    
C10   H1    S    
O2    Zn2   S    
H5    N5    S    
N2    Zn1   S    
C19   H11   S    
O1    Zn1   S    
C4    C5    T    
C20   C26   T    
C22   C25   S    
O8    Zn2   S    
