data_mof_unit_38973.cif
_audit_creation_date              2012-12-10T18:06:39-0500
_audit_creation_method            fapswitch 2.2
_symmetry_space_group_name_H-M    P1
_symmetry_Int_Tables_number       1
_space_group_crystal_system       triclinic
_cell_length_a                    12.591595
_cell_length_b                    13.081933
_cell_length_c                    15.253262
_cell_angle_alpha                 82.734273
_cell_angle_beta                  99.318318
_cell_angle_gamma                 97.033291
_cell_volume                      2446.10910729

loop_
_atom_site_label
_atom_site_type_symbol
_atom_type_description
_atom_site_fract_x
_atom_site_fract_y
_atom_site_fract_z
_atom_type_partial_charge
C1    C     C_R   0.442559 0.308329 0.508558 0.853672
C2    C     C_R   0.409769 0.440214 0.101602 0.105898
C3    C     C_R   0.307436 0.471147 0.062621 0.136336
C4    C     C_R   0.475397 0.403002 0.048681 0.009461
C5    C     C_R   0.448939 0.418384 0.955345 0.082945
C6    C     C_R   0.340366 0.434970 0.918078 0.071559
C7    C     C_R   0.270751 0.461558 0.972382 -0.294789
C8    C     C_R   0.565077 0.348888 0.085595 -0.274318
C9    C     C_R   0.638118 0.327301 0.031972 0.156870
C10   C     C_R   0.632539 0.379089 0.943655 0.050128
C11   C     C_R   0.533508 0.419217 0.904326 0.041747
C12   C     C_R   0.433732 0.510284 0.335367 0.847504
C13   C     C_R   0.720339 0.392919 0.893119 0.122203
C14   C     C_R   0.697335 0.418039 0.799060 0.102667
C15   C     C_R   0.524764 0.468505 0.817644 -0.265868
C16   C     C_R   0.607640 0.941464 0.341549 -0.242750
C17   C     C_R   0.580207 0.801959 0.459207 -0.122474
C18   C     C_R   0.343067 0.155946 0.581930 -0.184005
C19   C     C_R   0.326645 0.049203 0.602526 -0.168844
C20   C     C_R   0.381017 0.984870 0.563221 -0.153728
C21   C     C_R   0.449967 0.026927 0.500069 0.114780
C22   C     C_R   0.450331 0.132629 0.468190 0.081605
C23   C     C_R   0.555325 0.691996 0.486306 0.845578
C24   C     C_R   0.514788 0.966598 0.464486 0.076511
C25   C     C_R   0.555271 0.004966 0.383793 0.102677
C26   C     C_R   0.542568 0.106314 0.346006 -0.230694
C27   C     C_R   0.493182 0.170486 0.388979 -0.209928
C28   C     C_R   0.543082 0.870618 0.507748 0.001102
C29   C     C_R   0.615604 0.837939 0.375731 0.136256
C30   C     C_R   0.407380 0.197993 0.516504 -0.112998
C31   C     C_R   0.142635 0.648828 0.620723 0.084421
C32   C     C_R   0.756471 0.380250 0.395142 0.029440
C33   C     C_R   0.851425 0.356009 0.371834 -0.260318
C34   C     C_R   0.564638 0.484334 0.665145 0.879443
C35   C     C_R   0.949640 0.402359 0.411517 -0.199801
C36   C     C_R   0.952661 0.473486 0.475053 0.032104
C37   C     C_R   0.853665 0.495910 0.495530 0.250310
C38   C     C_R   0.049191 0.523374 0.518338 -0.050377
C39   C     C_R   0.045587 0.597287 0.579199 0.158090
C40   C     C_R   0.945356 0.617758 0.596601 -0.313563
C41   C     C_R   0.851507 0.566999 0.556027 -0.246416
C42   C     C_R   0.149953 0.502364 0.503324 -0.061296
C43   C     C_R   0.239529 0.623269 0.601547 -0.048022
C44   C     C_R   0.387528 0.500337 0.241456 -0.069959
C45   C     C_R   0.598776 0.458639 0.761916 -0.137227
C46   C     C_R   0.243681 0.511645 0.114259 -0.251659
C47   C     C_R   0.283083 0.527081 0.203465 0.106585
C48   C     C_R   0.448532 0.456281 0.190286 -0.318823
H1    H     H_    0.189211 0.477439 0.943225 0.152785
H2    H     H_    0.572927 0.136727 0.284273 0.135473
H3    H     H_    0.637349 0.971133 0.279341 0.142114
H4    H     H_    0.307909 0.205635 0.618593 0.160965
H5    H     H_    0.365091 0.902369 0.580287 0.143447
H6    H     H_    0.274954 0.016414 0.651437 0.141459
H7    H     H_    0.485451 0.248939 0.358070 0.148978
H8    H     H_    0.316121 0.660040 0.631657 0.129202
H9    H     H_    0.458439 0.514097 0.791925 0.190811
H10   H     H_    0.937560 0.672319 0.642187 0.171280
H11   H     H_    0.161450 0.447447 0.459770 0.137485
H12   H     H_    0.679382 0.345208 0.364518 0.128774
H13   H     H_    0.020792 0.381449 0.390289 0.136409
H14   H     H_    0.848969 0.301968 0.323138 0.144334
H15   H     H_    0.778018 0.585501 0.573264 0.218242
H16   H     H_    0.164361 0.533840 0.084875 0.133693
H17   H     H_    0.529148 0.438504 0.219237 0.167900
H18   H     H_    0.573875 0.316204 0.154876 0.132980
N1    N     N_R   0.239390 0.551900 0.544730 -0.111017
N2    N     N_R   0.759950 0.448600 0.455730 -0.124768
O1    O     O_R   0.374950 0.371210 0.521360 -0.611860
O2    O     O_R   0.542050 0.338030 0.492790 -0.600941
O3    O     O_R   0.368720 0.526070 0.390200 -0.574315
O4    O     O_R   0.535820 0.492890 0.361630 -0.637497
O5    O     O_R   0.457950 0.661970 0.507210 -0.609935
O6    O     O_R   0.625050 0.628790 0.478640 -0.629062
O7    O     O_R   0.464180 0.507110 0.638370 -0.612536
O8    O     O_R   0.631280 0.473930 0.609800 -0.602827
Zn1   Zn    Zn3+2 0.388420 0.522150 0.519080 0.940134
Zn2   Zn    Zn3+2 0.611580 0.477850 0.480920 0.923693
C49   C     C_3   0.837398 0.396378 0.939992 -0.406517
C50   C     C_3   0.912312 0.489305 0.906008 -0.916449
H19   H     H_    0.948786 0.471377 0.849069 0.248558
H20   H     H_    0.980660 0.507211 0.959604 0.245577
H21   H     H_    0.868348 0.559271 0.886543 0.268178
H22   H     H_    0.839550 0.407218 0.011090 0.211159
H23   H     H_    0.871413 0.323036 0.935729 0.205697
C51   C     C_3   0.659159 0.769106 0.320115 -0.386883
C52   C     C_3   0.778981 0.758624 0.352438 -0.801579
H24   H     H_    0.827305 0.834535 0.340058 0.243663
H25   H     H_    0.793491 0.732353 0.424934 0.274141
H26   H     H_    0.806828 0.701451 0.315571 0.241063
H27   H     H_    0.611660 0.692024 0.320130 0.223472
H28   H     H_    0.650427 0.802337 0.248822 0.188985
N3    N     N_3   0.546220 0.847973 0.602974 -0.470777
H29   H     H_    0.493242 0.782603 0.617880 0.186758
H30   H     H_    0.624622 0.832113 0.631272 0.179262
C53   C     C_3   0.146615 0.731749 0.682658 -0.429969
C54   C     C_3   0.130920 0.684501 0.777085 -0.881772
H31   H     H_    0.055115 0.631429 0.776658 0.259886
H32   H     H_    0.200325 0.640967 0.807944 0.255579
H33   H     H_    0.126888 0.747233 0.818748 0.253119
H34   H     H_    0.226151 0.779818 0.686990 0.195948
H35   H     H_    0.085401 0.786356 0.655538 0.205830
N4    N     N_3   0.772192 0.402326 0.741509 -0.424605
H36   H     H_    0.818774 0.472591 0.728227 0.197743
H37   H     H_    0.822936 0.346398 0.771971 0.191273
C55   C     C_3   0.706373 0.237944 0.066909 -0.425751
C56   C     C_3   0.680923 0.151102 0.006144 -0.851365
H38   H     H_    0.592980 0.124540 0.997777 0.264371
H39   H     H_    0.705168 0.177667 0.939538 0.257113
H40   H     H_    0.726267 0.084516 0.036486 0.242603
H41   H     H_    0.794201 0.261568 0.077202 0.190313
H42   H     H_    0.688579 0.203626 0.134159 0.196617
N5    N     N_3   0.217483 0.571402 0.254115 -0.433533
H43   H     H_    0.144815 0.523442 0.255468 0.176173
H44   H     H_    0.199336 0.643424 0.220706 0.180154
N6    N     N_3   0.297332 0.414804 0.828218 -0.457658
H45   H     H_    0.264486 0.480990 0.794461 0.183587
H46   H     H_    0.234161 0.355162 0.830726 0.192603

loop_
_geom_bond_atom_site_label_1
_geom_bond_atom_site_label_2
_ccdc_geom_bond_type
C52   H24   S    
C13   C49   S    
C8    H18   S    
N3    H29   S    
C53   H35   S    
O2    Zn2   S    
C17   C29   A    
O1    Zn1   S    
C35   C36   A    
N1    Zn1   S    
C16   H3    S    
C49   H23   S    
C4    C8    A    
C54   H31   S    
C18   H4    S    
C55   H42   S    
C26   C27   A    
C17   C23   S    
C31   C43   A    
C36   C37   A    
O8    Zn2   S    
C5    C11   A    
C3    C7    A    
C51   H27   S    
C26   H2    S    
C5    C6    A    
C27   H7    S    
C55   C56   S    
C31   C53   S    
C37   N2    A    
N6    H45   S    
C18   C19   A    
O4    Zn2   S    
C11   C15   A    
N4    H37   S    
C19   C20   A    
C31   C39   A    
C33   H14   S    
C15   H9    S    
C56   H38   S    
C18   C30   A    
C48   H17   S    
C9    C10   A    
C44   C47   A    
C34   O7    A    
C32   N2    A    
C12   O4    A    
N3    H30   S    
C13   C14   A    
C56   H39   S    
C23   O5    A    
C50   H21   S    
C54   H32   S    
C14   C45   A    
C55   H41   S    
N2    Zn2   S    
C40   H10   S    
C53   H34   S    
C24   C25   A    
C7    H1    S    
C50   H20   S    
C39   C40   A    
C51   C52   S    
C8    C9    A    
C2    C48   A    
C9    C55   S    
C1    O1    A    
C46   H16   S    
C28   N3    S    
C2    C4    A    
C49   H22   S    
C53   C54   S    
C35   H13   S    
C34   C45   S    
O7    Zn1   S    
C32   H12   S    
C6    N6    S    
C29   C51   S    
C20   H5    S    
C19   H6    S    
C40   C41   A    
C12   O3    A    
C22   C27   A    
C52   H25   S    
C42   N1    A    
C56   H40   S    
C52   H26   S    
C41   H15   S    
C23   O6    A    
O3    Zn1   S    
C54   H33   S    
N5    H43   S    
C16   C25   A    
C47   N5    S    
C46   C47   A    
C22   C30   A    
C17   C28   A    
C24   C28   A    
C50   H19   S    
C10   C13   A    
C42   H11   S    
C38   C42   A    
C6    C7    A    
C3    C46   A    
C1    O2    A    
C32   C33   A    
C36   C38   A    
C2    C3    A    
C25   C26   A    
C12   C44   S    
C51   H28   S    
C14   N4    S    
C38   C39   A    
C1    C30   S    
C33   C35   A    
N6    H46   S    
C37   C41   A    
C10   C11   A    
C49   C50   S    
C43   H8    S    
C4    C5    A    
C20   C21   A    
C16   C29   A    
C43   N1    A    
O6    Zn2   S    
C21   C24   A    
N4    H36   S    
O5    Zn1   S    
C21   C22   A    
C44   C48   A    
C34   O8    A    
N5    H44   S    
C15   C45   A    
