data_mof_unit_8974.cif
_audit_creation_date              2012-12-10T21:01:02-0500
_audit_creation_method            fapswitch 2.2
_symmetry_space_group_name_H-M    P1
_symmetry_Int_Tables_number       1
_space_group_crystal_system       triclinic
_cell_length_a                    15.83628
_cell_length_b                    15.161424
_cell_length_c                    10.583763
_cell_angle_alpha                 89.391722
_cell_angle_beta                  89.799467
_cell_angle_gamma                 88.13715
_cell_volume                      2539.66859585

loop_
_atom_site_label
_atom_site_type_symbol
_atom_type_description
_atom_site_fract_x
_atom_site_fract_y
_atom_site_fract_z
_atom_type_partial_charge
C1    C     C_R   0.339073 0.501808 0.497343 0.881463
C2    C     C_R   0.660970 0.498901 0.499774 0.882128
C3    C     C_1   0.823399 0.498287 0.476237 -0.052934
C4    C     C_1   0.176083 0.511976 0.483992 -0.058986
C5    C     C_R   0.949957 0.582622 0.448006 -0.058409
C6    C     C_R   0.049020 0.427817 0.501071 -0.055773
C7    C     C_R   0.038416 0.587068 0.451377 -0.059622
C8    C     C_R   0.961328 0.422587 0.489235 -0.057589
C9    C     C_R   0.912632 0.500637 0.467599 0.031557
C10   C     C_R   0.086804 0.509567 0.478837 0.026635
C11   C     C_R   0.503678 0.500401 0.257552 0.869795
C12   C     C_R   0.495040 0.499681 0.742225 0.883519
C13   C     C_1   0.250867 0.507582 0.490124 -0.188321
C14   C     C_1   0.748938 0.497362 0.487540 -0.197227
C15   C     C_R   0.455577 0.954687 0.407605 -0.045176
C16   C     C_R   0.551634 0.043007 0.588372 -0.039810
C17   C     C_R   0.546868 0.948733 0.592012 -0.043869
C18   C     C_R   0.451543 0.048932 0.413657 -0.041890
C19   C     C_R   0.500813 0.904169 0.499508 -0.056917
C20   C     C_R   0.501507 0.094549 0.501559 -0.054439
C21   C     C_3   0.495051 0.583396 0.038523 0.088315
C22   C     C_3   0.501715 0.417189 0.960997 0.100367
C23   C     C_3   0.561899 0.542675 0.949761 0.084112
C24   C     C_3   0.435481 0.457494 0.050065 0.036733
C25   C     C_3   0.423765 0.540033 0.964800 -0.064468
C26   C     C_3   0.573316 0.459866 0.034114 -0.067117
C27   C     C_3   0.491636 0.498953 0.875822 -0.127830
C28   C     C_3   0.505841 0.501193 0.123850 -0.141246
C29   C     C_1   0.500183 0.806552 0.499399 0.071018
C30   C     C_1   0.500991 0.192993 0.501284 0.059440
N1    N     N_1   0.500000 0.270550 0.500000 -0.091847
N2    N     N_1   0.500000 0.729450 0.500000 -0.087832
O1    O     O_R   0.378020 0.573650 0.500040 -0.615677
O2    O     O_R   0.621980 0.426350 0.499960 -0.617246
O3    O     O_R   0.621980 0.573650 0.499960 -0.597933
O4    O     O_R   0.378020 0.426350 0.500040 -0.611809
O5    O     O_R   0.499980 0.573650 0.313960 -0.612958
O6    O     O_R   0.500020 0.426350 0.686040 -0.611942
O7    O     O_R   0.500020 0.573650 0.686040 -0.599231
O8    O     O_R   0.499980 0.426350 0.313960 -0.630171
Zn1   Zn    Zn3+2 0.500000 0.598370 0.500000 0.978762
Zn2   Zn    Zn3+2 0.500000 0.401630 0.500000 0.958675
C31   C     C_R   0.390407 0.097762 0.330484 0.131890
C32   C     C_R   0.303517 0.083937 0.345264 -0.157587
C33   C     C_R   0.245398 0.120670 0.259051 -0.144930
C34   C     C_R   0.273661 0.169747 0.155853 -0.102923
C35   C     C_R   0.359977 0.182427 0.139223 -0.149602
C36   C     C_R   0.418355 0.147884 0.227143 -0.164173
H1    H     H_    0.281000 0.043988 0.423084 0.120113
H2    H     H_    0.178596 0.110103 0.271420 0.126651
H3    H     H_    0.228800 0.197113 0.087935 0.120627
H4    H     H_    0.381394 0.218139 0.057033 0.125743
H5    H     H_    0.485200 0.156892 0.211864 0.121311
C37   C     C_R   0.589741 0.896616 0.695185 0.127942
C38   C     C_R   0.568091 0.912290 0.822043 -0.134927
C39   C     C_R   0.610319 0.866146 0.919264 -0.136230
C40   C     C_R   0.674383 0.803984 0.890693 -0.090173
C41   C     C_R   0.695950 0.787389 0.764830 -0.111538
C42   C     C_R   0.653932 0.833529 0.667429 -0.151817
H6    H     H_    0.519234 0.961045 0.845339 0.114977
H7    H     H_    0.593714 0.878852 0.016787 0.130099
H8    H     H_    0.707308 0.768706 0.966113 0.113442
H9    H     H_    0.745463 0.739043 0.742721 0.132566
H10   H     H_    0.671679 0.820702 0.570477 0.139372
C43   C     C_R   0.613046 0.084371 0.673694 0.125694
C44   C     C_R   0.585282 0.137632 0.774321 -0.154905
C45   C     C_R   0.642155 0.160579 0.868701 -0.124158
C46   C     C_R   0.726536 0.131131 0.863098 -0.132462
C47   C     C_R   0.754844 0.079234 0.762565 -0.151975
C48   C     C_R   0.698688 0.056654 0.667697 -0.153264
H11   H     H_    0.519194 0.157284 0.783150 0.127607
H12   H     H_    0.620859 0.198884 0.948679 0.148402
H13   H     H_    0.769827 0.147836 0.937336 0.134104
H14   H     H_    0.820159 0.056102 0.758343 0.134009
H15   H     H_    0.721027 0.014046 0.592288 0.115047
C49   C     C_R   0.413621 0.909552 0.301578 0.130805
C50   C     C_R   0.349588 0.849479 0.324931 -0.143163
C51   C     C_R   0.308714 0.810238 0.224241 -0.150850
C52   C     C_R   0.329465 0.832523 0.099838 -0.151171
C53   C     C_R   0.393402 0.891571 0.075754 -0.140448
C54   C     C_R   0.436166 0.929134 0.175960 -0.125640
H16   H     H_    0.330928 0.833613 0.420813 0.131909
H17   H     H_    0.260720 0.762743 0.242717 0.152777
H18   H     H_    0.296571 0.803638 0.021895 0.145974
H19   H     H_    0.409631 0.908164 0.979354 0.125543
H20   H     H_    0.486000 0.974502 0.155758 0.115531
C55   C     C_R   0.334706 0.573382 0.940444 0.138804
C56   C     C_R   0.289025 0.616196 0.037209 -0.176322
C57   C     C_R   0.203424 0.638848 0.021681 -0.151353
C58   C     C_R   0.161933 0.616277 0.911157 -0.127862
C59   C     C_R   0.205980 0.570465 0.816664 -0.148116
C60   C     C_R   0.292090 0.549424 0.830673 -0.102493
H21   H     H_    0.318831 0.629586 0.126322 0.125814
H22   H     H_    0.168905 0.672295 0.096354 0.130645
H23   H     H_    0.095297 0.632492 0.899914 0.119831
H24   H     H_    0.172725 0.549481 0.734057 0.138989
H25   H     H_    0.324186 0.511146 0.758640 0.107874
C61   C     C_R   0.658477 0.415104 0.055260 0.114292
C62   C     C_R   0.703804 0.380527 0.951546 -0.150706
C63   C     C_R   0.783505 0.339915 0.968789 -0.168050
C64   C     C_R   0.818229 0.332732 0.089736 -0.126051
C65   C     C_R   0.773523 0.366920 0.193143 -0.128222
C66   C     C_R   0.694254 0.408379 0.175938 -0.147558
H26   H     H_    0.677425 0.384990 0.857309 0.143742
H27   H     H_    0.818102 0.313586 0.888489 0.129122
H28   H     H_    0.879721 0.300847 0.103321 0.123215
H29   H     H_    0.800267 0.361603 0.286696 0.164333
H30   H     H_    0.661596 0.435509 0.256523 0.137913
N3    N     N_3   0.497880 0.675079 0.077991 -0.432645
H31   H     H_    0.483140 0.714574 0.999100 0.202952
H32   H     H_    0.450118 0.686515 0.144400 0.207672
N4    N     N_3   0.501648 0.326288 0.918690 -0.449719
H33   H     H_    0.505502 0.286610 0.999782 0.162595
H34   H     H_    0.442747 0.316034 0.878133 0.196028
N5    N     N_3   0.630040 0.592181 0.893135 -0.424146
H35   H     H_    0.672407 0.605790 0.965275 0.181082
H36   H     H_    0.662320 0.550761 0.829771 0.167356
N6    N     N_3   0.366475 0.408895 0.106223 -0.456492
H37   H     H_    0.393352 0.358822 0.162862 0.208650
H38   H     H_    0.333484 0.451584 0.167110 0.184571
C67   C     C_R   0.078815 0.673445 0.430907 0.144261
C68   C     C_R   0.120342 0.714033 0.530778 -0.148762
C69   C     C_R   0.149061 0.799810 0.516518 -0.151711
C70   C     C_R   0.135625 0.846101 0.403133 -0.116486
C71   C     C_R   0.095111 0.805952 0.302831 -0.154300
C72   C     C_R   0.067429 0.719724 0.316124 -0.154989
H39   H     H_    0.127857 0.680546 0.620853 0.125040
H40   H     H_    0.180527 0.830928 0.594098 0.128162
H41   H     H_    0.157250 0.912792 0.392585 0.128284
H42   H     H_    0.085243 0.841624 0.214726 0.130480
H43   H     H_    0.034953 0.689856 0.238355 0.122643
C73   C     C_R   0.921419 0.335024 0.489497 0.135727
C74   C     C_R   0.856036 0.315933 0.574465 -0.168061
C75   C     C_R   0.810706 0.239323 0.560837 -0.127989
C76   C     C_R   0.833312 0.178529 0.467244 -0.107671
C77   C     C_R   0.901158 0.194727 0.386565 -0.154534
C78   C     C_R   0.944780 0.272948 0.396911 -0.162155
H44   H     H_    0.837954 0.361994 0.648016 0.124709
H45   H     H_    0.757086 0.228426 0.621598 0.163985
H46   H     H_    0.798022 0.119245 0.456352 0.121722
H47   H     H_    0.918555 0.147772 0.313911 0.125556
H48   H     H_    0.994911 0.286456 0.330268 0.123059
C79   C     C_R   0.896113 0.663753 0.425605 0.146501
C80   C     C_R   0.847078 0.672359 0.315460 -0.154685
C81   C     C_R   0.798108 0.749271 0.292845 -0.122630
C82   C     C_R   0.798097 0.818186 0.379503 -0.127420
C83   C     C_R   0.846358 0.809938 0.489590 -0.153684
C84   C     C_R   0.894803 0.732821 0.513154 -0.127259
H49   H     H_    0.847326 0.619767 0.246959 0.125953
H50   H     H_    0.760448 0.755597 0.207892 0.122021
H51   H     H_    0.760303 0.877785 0.361780 0.118033
H52   H     H_    0.845859 0.863170 0.556981 0.126969
H53   H     H_    0.931657 0.727056 0.599017 0.118938
C85   C     C_R   0.099988 0.350396 0.550330 0.131507
C86   C     C_R   0.168742 0.314658 0.481371 -0.144891
C87   C     C_R   0.222536 0.250328 0.536245 -0.114528
C88   C     C_R   0.205715 0.217556 0.657233 -0.131042
C89   C     C_R   0.135644 0.250224 0.724604 -0.137485
C90   C     C_R   0.083355 0.316908 0.671987 -0.135245
H54   H     H_    0.182579 0.339083 0.387258 0.133822
H55   H     H_    0.278226 0.227231 0.485925 0.154279
H56   H     H_    0.247379 0.167442 0.699145 0.121324
H57   H     H_    0.122846 0.225191 0.818658 0.121526
H58   H     H_    0.031023 0.343850 0.727086 0.120830

loop_
_geom_bond_atom_site_label_1
_geom_bond_atom_site_label_2
_ccdc_geom_bond_type
C32   H1    S    
C2    O3    A    
C7    C10   A    
C55   C56   A    
C88   C89   A    
N1    Zn2   S    
C15   C18   A    
O4    Zn2   S    
C83   C84   A    
O2    Zn2   S    
C78   H48   S    
N4    H34   S    
C81   C82   A    
C69   H40   S    
C1    O1    A    
C69   C70   A    
O7    Zn1   S    
C20   C30   S    
C50   C51   A    
C15   C19   A    
C63   H27   S    
C64   C65   A    
C72   H43   S    
C87   C88   A    
O6    Zn2   S    
C29   N2    T    
C47   C48   A    
N3    H32   S    
C52   H18   S    
C5    C79   S    
C16   C17   A    
C79   C80   A    
C25   C55   S    
C39   C40   A    
C45   H12   S    
C23   C26   S    
C68   H39   S    
C11   O5    A    
N6    H37   S    
C50   H16   S    
C59   H24   S    
C34   C35   A    
C51   H17   S    
C4    C13   T    
C73   C74   A    
N5    H36   S    
C8    C73   S    
N2    Zn1   S    
C66   H30   S    
C23   C27   S    
C31   C36   A    
C54   H20   S    
C2    O2    A    
O8    Zn2   S    
C15   C49   S    
C74   H44   S    
C38   H6    S    
C12   O6    A    
C76   H46   S    
C7    C67   S    
O3    Zn1   S    
C71   H42   S    
N4    H33   S    
C60   H25   S    
C40   C41   A    
C37   C42   A    
C36   H5    S    
C67   C68   A    
C12   C27   S    
C45   C46   A    
C35   C36   A    
C24   C28   S    
C76   C77   A    
C49   C50   A    
C57   C58   A    
C75   H45   S    
C5    C7    A    
C56   H21   S    
C51   C52   A    
C46   C47   A    
C6    C8    A    
C40   H8    S    
C46   H13   S    
C33   C34   A    
C34   H3    S    
C52   C53   A    
C89   C90   A    
C43   C48   A    
C31   C32   A    
C44   H11   S    
C5    C9    A    
C53   H19   S    
C3    C9    S    
C62   C63   A    
C30   N1    T    
C16   C20   A    
C38   C39   A    
C8    C9    A    
C47   H14   S    
C24   C25   S    
C41   H9    S    
C85   C86   A    
C6    C85   S    
C3    C14   T    
C89   H57   S    
C26   C61   S    
C21   C28   S    
C87   H55   S    
C61   C62   A    
C22   N4    S    
C22   C27   S    
C21   C23   S    
C71   C72   A    
C22   C24   S    
C1    C13   S    
C84   H53   S    
C4    C10   S    
C19   C29   S    
C65   H29   S    
C59   C60   A    
C55   C60   A    
C32   C33   A    
C82   C83   A    
C64   H28   S    
C21   C25   S    
C37   C38   A    
C62   H26   S    
C80   H49   S    
C86   H54   S    
C39   H7    S    
C26   C28   S    
C81   H50   S    
C53   C54   A    
C58   H23   S    
C49   C54   A    
C57   H22   S    
C21   N3    S    
C35   H4    S    
C25   C27   S    
C75   C76   A    
C24   N6    S    
C80   C81   A    
O1    Zn1   S    
C12   O7    A    
C83   H52   S    
C41   C42   A    
C85   C90   A    
N3    H31   S    
C33   H2    S    
C11   O8    A    
C58   C59   A    
C74   C75   A    
C11   C28   S    
C88   H56   S    
C63   C64   A    
C17   C19   A    
C77   H47   S    
C70   H41   S    
C44   C45   A    
C18   C20   A    
O5    Zn1   S    
C65   C66   A    
C2    C14   S    
N6    H38   S    
C79   C84   A    
C6    C10   A    
C23   N5    S    
C82   H51   S    
C42   H10   S    
C67   C72   A    
C56   C57   A    
C48   H15   S    
C43   C44   A    
C22   C26   S    
C86   C87   A    
C90   H58   S    
C77   C78   A    
C16   C43   S    
C73   C78   A    
N5    H35   S    
C68   C69   A    
C18   C31   S    
C17   C37   S    
C61   C66   A    
C1    O4    A    
C70   C71   A    
