data_mof_unit_51841.cif
_audit_creation_date              2012-10-26T17:13:07-0400
_audit_creation_method            fapswitch 2.2
_symmetry_space_group_name_H-M    P1
_symmetry_Int_Tables_number       1
_space_group_crystal_system       triclinic
_cell_length_a                    16.728606
_cell_length_b                    16.728608
_cell_length_c                    16.728615
_cell_angle_alpha                 67.773062
_cell_angle_beta                  67.77307
_cell_angle_gamma                 67.77312
_cell_volume                      3857.51673965

loop_
_atom_site_label
_atom_site_type_symbol
_atom_type_description
_atom_site_fract_x
_atom_site_fract_y
_atom_site_fract_z
_atom_type_partial_charge
C1    C     C_R   0.324796 0.946832 0.456429 0.003447
C2    C     C_R   0.324796 0.456429 0.946832 0.003447
C3    C     C_R   0.544487 0.414258 0.986339 0.030062
C4    C     C_R   0.013660 0.455513 0.585743 0.030062
C5    C     C_R   0.986340 0.544487 0.414257 0.030061
C6    C     C_1   0.391315 0.128175 0.758386 0.272025
C7    C     C_1   0.608685 0.871825 0.241614 0.272025
C8    C     C_1   0.128176 0.758386 0.391315 0.272024
C9    C     C_1   0.871823 0.241614 0.608685 0.272024
C10   C     C_1   0.758385 0.391316 0.128176 0.272025
C11   C     C_1   0.241614 0.608684 0.871824 0.272025
C12   C     C_1   0.241614 0.871824 0.608684 0.272025
C13   C     C_R   0.053169 0.675204 0.543571 0.003447
C14   C     C_1   0.758386 0.128176 0.391316 0.272025
C15   C     C_1   0.608685 0.241614 0.871825 0.272025
C16   C     C_1   0.391315 0.758386 0.128175 0.272025
C17   C     C_1   0.871825 0.608684 0.241614 0.272025
C18   C     C_1   0.128175 0.391315 0.758386 0.272025
C19   C     C_R   0.946831 0.324796 0.456429 0.003447
C20   C     C_R   0.458040 0.974207 0.458040 -0.048774
C21   C     C_R   0.541960 0.025793 0.541960 -0.048774
C22   C     C_R   0.974207 0.458040 0.458040 -0.048774
C23   C     C_R   0.025793 0.541960 0.541960 -0.048774
C24   C     C_R   0.458040 0.458040 0.974207 -0.048774
C25   C     C_R   0.541960 0.541960 0.025793 -0.048774
C26   C     C_R   0.029269 0.827879 0.564215 0.814469
C27   C     C_R   0.675204 0.053168 0.543571 0.003447
C28   C     C_R   0.970731 0.172121 0.435785 0.814469
C29   C     C_R   0.827879 0.564215 0.029269 0.814470
C30   C     C_R   0.172121 0.435785 0.970731 0.814469
C31   C     C_R   0.564215 0.029269 0.827879 0.814470
C32   C     C_R   0.435785 0.970731 0.172121 0.814469
C33   C     C_R   0.435785 0.172121 0.970731 0.814469
C34   C     C_R   0.564215 0.827879 0.029269 0.814470
C35   C     C_R   0.970731 0.435785 0.172121 0.814470
C36   C     C_R   0.029269 0.564215 0.827879 0.814470
C37   C     C_R   0.172121 0.970731 0.435785 0.814469
C38   C     C_R   0.946832 0.456429 0.324796 0.003447
C39   C     C_R   0.827879 0.029269 0.564215 0.814469
C40   C     C_R   0.412932 0.956044 0.412932 0.044423
C41   C     C_R   0.587068 0.043956 0.587068 0.044423
C42   C     C_R   0.956044 0.412932 0.412932 0.044423
C43   C     C_R   0.043956 0.587068 0.587068 0.044423
C44   C     C_R   0.412932 0.412932 0.956043 0.044423
C45   C     C_R   0.587068 0.587068 0.043957 0.044423
C46   C     C_R   0.271978 0.951800 0.403390 -0.113833
C47   C     C_R   0.728022 0.048200 0.596610 -0.113833
C48   C     C_R   0.951799 0.403390 0.271978 -0.113833
C49   C     C_R   0.053167 0.543571 0.675204 0.003447
C50   C     C_R   0.048200 0.596610 0.728022 -0.113833
C51   C     C_R   0.403390 0.271978 0.951800 -0.113833
C52   C     C_R   0.596610 0.728022 0.048200 -0.113833
C53   C     C_R   0.596609 0.048201 0.728022 -0.113833
C54   C     C_R   0.403390 0.951799 0.271978 -0.113834
C55   C     C_R   0.728022 0.596610 0.048200 -0.113833
C56   C     C_R   0.271978 0.403390 0.951800 -0.113833
C57   C     C_R   0.048201 0.728022 0.596609 -0.113833
C58   C     C_R   0.951799 0.271978 0.403391 -0.113833
C59   C     C_R   0.449143 0.064576 0.706579 -0.068744
C60   C     C_R   0.456429 0.324796 0.946832 0.003447
C61   C     C_R   0.550857 0.935424 0.293421 -0.068744
C62   C     C_R   0.064577 0.706579 0.449142 -0.068743
C63   C     C_R   0.935423 0.293421 0.550858 -0.068743
C64   C     C_R   0.706579 0.449143 0.064576 -0.068743
C65   C     C_R   0.293421 0.550857 0.935424 -0.068743
C66   C     C_R   0.293421 0.935424 0.550857 -0.068743
C67   C     C_R   0.706579 0.064576 0.449143 -0.068743
C68   C     C_R   0.550857 0.293421 0.935424 -0.068743
C69   C     C_R   0.449143 0.706579 0.064576 -0.068743
C70   C     C_R   0.935426 0.550857 0.293420 -0.068743
C71   C     C_R   0.543571 0.675204 0.053168 0.003447
C72   C     C_R   0.064574 0.449143 0.706579 -0.068743
C73   C     C_R   0.312825 0.953271 0.312825 -0.229360
C74   C     C_R   0.687175 0.046729 0.687175 -0.229360
C75   C     C_R   0.953270 0.312825 0.312825 -0.229360
C76   C     C_R   0.046730 0.687175 0.687175 -0.229360
C77   C     C_R   0.312825 0.312825 0.953271 -0.229361
C78   C     C_R   0.687175 0.687175 0.046729 -0.229361
C79   C     C_R   0.669196 0.032336 0.408866 0.053862
C80   C     C_R   0.330804 0.967664 0.591134 0.053862
C81   C     C_R   0.032334 0.408866 0.669197 0.053862
C82   C     C_R   0.543571 0.053168 0.675204 0.003447
C83   C     C_R   0.967666 0.591134 0.330803 0.053862
C84   C     C_R   0.408866 0.669196 0.032336 0.053862
C85   C     C_R   0.591134 0.330804 0.967664 0.053862
C86   C     C_R   0.591134 0.967664 0.330804 0.053862
C87   C     C_R   0.408865 0.032336 0.669196 0.053862
C88   C     C_R   0.330804 0.591135 0.967663 0.053862
C89   C     C_R   0.669196 0.408865 0.032337 0.053862
C90   C     C_R   0.967662 0.330804 0.591135 0.053863
C91   C     C_R   0.032338 0.669196 0.408865 0.053862
C92   C     C_R   0.713526 0.017687 0.323360 -0.186451
C93   C     C_R   0.456429 0.946832 0.324796 0.003447
C94   C     C_R   0.286474 0.982313 0.676640 -0.186451
C95   C     C_R   0.017683 0.323361 0.713527 -0.186451
C96   C     C_R   0.982317 0.676639 0.286473 -0.186451
C97   C     C_R   0.323360 0.713526 0.017686 -0.186451
C98   C     C_R   0.676640 0.286474 0.982314 -0.186451
C99   C     C_R   0.676640 0.982313 0.286475 -0.186451
C100  C     C_R   0.323360 0.017687 0.713525 -0.186451
C101  C     C_R   0.286475 0.676640 0.982312 -0.186451
C102  C     C_R   0.713525 0.323360 0.017688 -0.186451
C103  C     C_R   0.982309 0.286475 0.676642 -0.186451
C104  C     C_R   0.675204 0.543571 0.053168 0.003447
C105  C     C_R   0.017691 0.713525 0.323358 -0.186451
C106  C     C_R   0.544488 0.986339 0.414258 0.030062
C107  C     C_R   0.455512 0.013661 0.585742 0.030062
C108  C     C_R   0.986338 0.414258 0.544488 0.030062
C109  C     C_R   0.013662 0.585742 0.455512 0.030062
C110  C     C_R   0.414258 0.544488 0.986338 0.030062
C111  C     C_R   0.585742 0.455512 0.013662 0.030062
C112  C     C_R   0.585743 0.013661 0.455513 0.030062
C113  C     C_R   0.414257 0.986339 0.544487 0.030062
C114  C     C_R   0.455513 0.585742 0.013661 0.030062
Cu1   Cu    Cu3+1 0.995180 0.995180 0.424630 0.976261
Cu2   Cu    Cu3+1 0.004820 0.004820 0.575370 0.976261
Cu3   Cu    Cu3+1 0.995180 0.424630 0.995180 0.976260
Cu4   Cu    Cu3+1 0.004820 0.575370 0.004820 0.976260
Cu5   Cu    Cu3+1 0.424630 0.995180 0.995180 0.976261
Cu6   Cu    Cu3+1 0.575370 0.004820 0.004820 0.976261
H1    H     H_    0.272079 0.960287 0.272079 0.201231
H2    H     H_    0.969924 0.221445 0.713601 0.144334
H3    H     H_    0.778556 0.286401 0.030072 0.144334
H4    H     H_    0.221444 0.713599 0.969928 0.144334
H5    H     H_    0.221443 0.969930 0.713598 0.144334
H6    H     H_    0.778556 0.030070 0.286402 0.144334
H7    H     H_    0.713598 0.221443 0.969931 0.144334
H8    H     H_    0.286402 0.778557 0.030069 0.144334
H9    H     H_    0.969934 0.713597 0.221441 0.144334
H10   H     H_    0.030066 0.286403 0.778559 0.144334
H11   H     H_    0.727921 0.039713 0.727921 0.201231
H12   H     H_    0.960286 0.272079 0.272079 0.201231
H13   H     H_    0.039714 0.727921 0.727921 0.201231
H14   H     H_    0.272078 0.272078 0.960289 0.201230
H15   H     H_    0.727922 0.727922 0.039711 0.201230
H16   H     H_    0.286401 0.030071 0.778556 0.144334
H17   H     H_    0.713598 0.969929 0.221444 0.144334
H18   H     H_    0.030075 0.778555 0.286399 0.144334
N1    N     N_1   0.345037 0.179256 0.799278 -0.262940
N2    N     N_1   0.345036 0.799278 0.179256 -0.262941
N3    N     N_1   0.820743 0.654963 0.200724 -0.262941
N4    N     N_1   0.179257 0.345037 0.799276 -0.262940
N5    N     N_1   0.654963 0.820744 0.200722 -0.262940
N6    N     N_1   0.179258 0.799278 0.345038 -0.262941
N7    N     N_1   0.820742 0.200722 0.654962 -0.262941
N8    N     N_1   0.799277 0.345038 0.179257 -0.262942
N9    N     N_1   0.200723 0.654962 0.820743 -0.262942
N10   N     N_1   0.200723 0.820743 0.654963 -0.262941
N11   N     N_1   0.799277 0.179257 0.345037 -0.262941
N12   N     N_1   0.654964 0.200722 0.820744 -0.262941
O1    O     O_R   0.124540 0.978640 0.385460 -0.572345
O2    O     O_R   0.124540 0.385460 0.978640 -0.572345
O3    O     O_R   0.021360 0.875460 0.614540 -0.572345
O4    O     O_R   0.978640 0.124540 0.385460 -0.572345
O5    O     O_R   0.013780 0.867370 0.487190 -0.585775
O6    O     O_R   0.986220 0.132630 0.512810 -0.585775
O7    O     O_R   0.867370 0.487190 0.013780 -0.585775
O8    O     O_R   0.132630 0.512810 0.986220 -0.585775
O9    O     O_R   0.487190 0.013780 0.867370 -0.585776
O10   O     O_R   0.512810 0.986220 0.132630 -0.585775
O11   O     O_R   0.512810 0.132630 0.986220 -0.585776
O12   O     O_R   0.875460 0.021360 0.614540 -0.572345
O13   O     O_R   0.487190 0.867370 0.013780 -0.585775
O14   O     O_R   0.986220 0.512810 0.132630 -0.585776
O15   O     O_R   0.013780 0.487190 0.867370 -0.585776
O16   O     O_R   0.132630 0.986220 0.512810 -0.585776
O17   O     O_R   0.867370 0.013780 0.487190 -0.585776
O18   O     O_R   0.978640 0.385460 0.124540 -0.572345
O19   O     O_R   0.021360 0.614540 0.875460 -0.572346
O20   O     O_R   0.385460 0.124540 0.978640 -0.572345
O21   O     O_R   0.614540 0.875460 0.021360 -0.572345
O22   O     O_R   0.614540 0.021360 0.875460 -0.572345
O23   O     O_R   0.385460 0.978640 0.124540 -0.572345
O24   O     O_R   0.875460 0.614540 0.021360 -0.572346

loop_
_geom_bond_atom_site_label_1
_geom_bond_atom_site_label_2
_ccdc_geom_bond_type
C96   C105  A    
C38   C70   A    
C89   C102  A    
C3    C85   A    
C91   C105  A    
C53   C74   A    
C59   C82   A    
C40   C93   A    
C2    C65   A    
C11   N9    T    
C7    N5    T    
C88   C101  A    
C3    C24   A    
C22   C108  A    
C106  C112  A    
C4    C108  A    
Cu4   O14   S    
C36   O19   A    
C79   C112  A    
C31   O9    A    
C84   C97   A    
C57   C76   A    
Cu2   O12   S    
C38   C42   A    
C16   N2    T    
C20   C113  A    
C81   C95   A    
C61   C93   A    
C1    C46   A    
C15   N12   T    
C13   C57   A    
C31   O22   A    
C35   C48   S    
Cu3   O18   S    
Cu1   Cu2   S    
C23   C43   A    
C63   C90   A    
C64   C104  A    
C6    N1    T    
C69   C71   A    
C7    C61   S    
C54   C93   A    
C85   C98   A    
C1    C40   A    
C105  H18   S    
C107  C113  A    
C13   C62   A    
C19   C63   A    
C49   C72   A    
C95   H10   S    
C14   C67   S    
C12   C66   S    
C78   H15   S    
C110  C114  A    
C38   C48   A    
C72   C81   A    
C19   C42   A    
C88   C110  A    
C17   C70   S    
C74   H11   S    
C28   O4    A    
C68   C85   A    
C48   C75   A    
Cu2   O16   S    
C26   O5    A    
C86   C106  A    
C64   C89   A    
C37   O1    A    
C97   H8    S    
C52   C78   A    
C33   O20   A    
C32   C54   S    
C26   C57   S    
C95   C103  A    
C58   C75   A    
C35   O18   A    
C20   C106  A    
C19   C58   A    
C18   C72   S    
C23   C109  A    
C10   C64   S    
C101  H4    S    
C5    C22   A    
Cu3   O7    S    
C18   N4    T    
C24   C110  A    
C34   O13   A    
C2    C44   A    
C55   C78   A    
C43   C49   A    
C29   O7    A    
C29   C55   S    
Cu4   O19   S    
C98   C102  A    
C30   C56   S    
C55   C104  A    
C2    C56   A    
C56   C77   A    
C15   C68   S    
C53   C82   A    
C33   O11   A    
C51   C77   A    
C86   C99   A    
C45   C104  A    
C50   C76   A    
C54   C73   A    
C27   C41   A    
C30   O2    A    
C20   C40   A    
C94   C100  A    
Cu5   Cu6   S    
C28   O6    A    
C62   C91   A    
C1    C66   A    
C79   C92   A    
C67   C79   A    
C8    N6    T    
C31   C53   S    
C39   O12   A    
C70   C83   A    
C60   C68   A    
Cu2   O3    S    
C21   C107  A    
Cu6   O11   S    
C10   N8    T    
C21   C41   A    
C98   H7    S    
C73   H1    S    
Cu1   O4    S    
C24   C44   A    
C3    C111  A    
Cu4   O8    S    
C77   H14   S    
C80   C94   A    
C102  H3    S    
C25   C45   A    
C13   C43   A    
C21   C112  A    
C36   C50   S    
C75   H12   S    
C65   C88   A    
C39   C47   S    
C87   C100  A    
C94   H5    S    
C27   C47   A    
C30   O8    A    
C84   C114  A    
Cu1   O5    S    
C9    C63   S    
C6    C59   S    
Cu6   O22   S    
C16   C69   S    
C47   C74   A    
C92   H6    S    
C76   H13   S    
Cu6   O21   S    
C37   O16   A    
C28   C58   S    
C33   C51   S    
C66   C80   A    
C32   O23   A    
C89   C111  A    
C34   C52   S    
C35   O14   A    
Cu5   O13   S    
C91   C109  A    
C37   C46   S    
C41   C82   A    
Cu3   O15   S    
C69   C84   A    
C52   C71   A    
C25   C114  A    
Cu5   O23   S    
C12   N10   T    
C22   C42   A    
C5    C109  A    
C44   C60   A    
C5    C83   A    
C83   C96   A    
C4    C81   A    
C14   N11   T    
C9    N7    T    
C36   O15   A    
Cu3   O2    S    
C46   C73   A    
C39   O17   A    
C17   N3    T    
C59   C87   A    
C90   C103  A    
Cu2   O6    S    
C27   C67   A    
C61   C86   A    
C25   C111  A    
Cu5   O20   S    
C90   C108  A    
C11   C65   S    
C87   C107  A    
C80   C113  A    
Cu4   O24   S    
Cu5   O9    S    
C49   C50   A    
Cu1   O1    S    
Cu6   O10   S    
C99   H17   S    
C26   O3    A    
C45   C71   A    
C51   C60   A    
C4    C23   A    
Cu3   Cu4   S    
C103  H2    S    
Cu1   O17   S    
C29   O24   A    
C97   C101  A    
C34   O21   A    
C100  H16   S    
C92   C99   A    
C8    C62   S    
C96   H9    S    
C32   O10   A    
