data_mof_unit_66461.cif
_audit_creation_date              2012-12-11T16:57:59-0500
_audit_creation_method            fapswitch 2.2
_symmetry_space_group_name_H-M    P1
_symmetry_Int_Tables_number       1
_space_group_crystal_system       triclinic
_cell_length_a                    8.215654
_cell_length_b                    14.244461
_cell_length_c                    16.529851
_cell_angle_alpha                 93.14867
_cell_angle_beta                  93.181871
_cell_angle_gamma                 90.830167
_cell_volume                      1928.25178256

loop_
_atom_site_label
_atom_site_type_symbol
_atom_type_description
_atom_site_fract_x
_atom_site_fract_y
_atom_site_fract_z
_atom_type_partial_charge
Ba1   Ba    Ba6+2 0.152520 0.545410 0.458840 1.635302
Ba2   Ba    Ba6+2 0.657660 0.454590 0.541090 1.640209
C1    C     C_3   0.359667 0.779731 0.142127 -0.349330
C2    C     C_R   0.818200 0.803931 0.499124 0.041344
C3    C     C_R   0.671178 0.773673 0.459178 -0.292783
C4    C     C_3   0.896721 0.800341 0.269328 0.351273
C5    C     C_R   0.564958 0.836989 0.423857 0.022404
C6    C     C_R   0.609383 0.931863 0.422767 -0.146535
C7    C     C_R   0.759323 0.964894 0.459631 -0.004201
C8    C     C_R   0.863798 0.901669 0.500344 -0.024743
C9    C     C_R   0.949002 0.097607 0.496703 -0.021101
C10   C     C_R   0.054709 0.034102 0.536214 -0.005359
C11   C     C_R   0.993937 0.195431 0.498774 0.047539
C12   C     C_3   0.376839 0.749951 0.228994 0.332024
C13   C     C_R   0.142498 0.225277 0.537206 -0.300707
C14   C     C_R   0.251098 0.161562 0.570045 0.031783
C15   C     C_R   0.206823 0.066574 0.570920 -0.150045
C16   C     C_3   0.907363 0.898838 0.238747 -0.359403
C17   C     C_R   0.803222 0.060861 0.457316 -0.038257
C18   C     C_R   0.616969 0.539088 0.265941 -0.294597
C19   C     C_R   0.473131 0.489509 0.242734 0.036294
C20   C     C_R   0.420259 0.479561 0.160395 -0.127475
C21   C     C_R   0.514801 0.517596 0.100879 0.248626
C22   C     C_R   0.664937 0.562119 0.125191 -0.162864
C23   C     C_3   0.498007 0.742030 0.638723 0.309471
C24   C     C_R   0.716109 0.572214 0.207532 -0.013131
C25   C     C_R   0.369791 0.537960 0.855892 -0.137063
C26   C     C_R   0.330350 0.520699 0.771997 -0.048014
C27   C     C_R   0.277616 0.491307 0.913011 0.251670
C28   C     C_3   0.806301 0.341590 0.301413 0.306704
C29   C     C_R   0.194356 0.465481 0.745751 -0.313878
C30   C     C_R   0.090630 0.430276 0.800860 0.003447
C31   C     C_R   0.134502 0.440308 0.884982 0.055980
C32   C     C_3   0.783629 0.315457 0.210954 -0.387467
C33   C     C_3   0.996472 0.659210 0.699412 0.298001
C34   C     C_3   0.515127 0.848124 0.654101 -0.380078
C35   C     C_3   0.017231 0.686045 0.789837 -0.342327
C36   C     C_3   0.310355 0.260742 0.368608 0.308367
C37   C     C_3   0.304861 0.154925 0.349504 -0.388985
C38   C     C_2   0.490697 0.612987 0.883759 0.920082
C39   C     C_3   0.904029 0.195473 0.743734 0.428617
C40   C     C_3   0.845754 0.100140 0.773054 -0.075068
C41   C     C_3   0.458649 0.260837 0.770409 0.331016
C42   C     C_3   0.461116 0.236003 0.858753 -0.366737
C43   C     C_R   0.009401 0.938548 0.539836 -0.035730
H1    H     H_    0.302936 0.684658 0.233063 0.097002
H2    H     H_    0.187009 0.284402 0.382467 0.010120
H3    H     H_    0.396957 0.276384 0.421789 0.060588
H4    H     H_    0.230160 0.794511 0.125369 0.157384
H5    H     H_    0.214293 0.137084 0.298373 0.129307
H6    H     H_    0.269852 0.117392 0.402983 0.065049
H7    H     H_    0.426850 0.130691 0.332465 0.116979
H8    H     H_    0.507271 0.735375 0.243465 -0.055806
H9    H     H_    0.401373 0.722392 0.100472 0.123311
H10   H     H_    0.617039 0.713941 0.621457 0.009922
H11   H     H_    0.404849 0.727243 0.588202 0.057129
H12   H     H_    0.685144 0.261325 0.199577 0.126682
H13   H     H_    0.613544 0.865261 0.701651 0.134795
H14   H     H_    0.545642 0.881510 0.597722 0.057762
H15   H     H_    0.398608 0.877245 0.674455 0.120548
H16   H     H_    0.435199 0.843872 0.135569 0.109497
H17   H     H_    0.864626 0.950678 0.285183 0.070433
H18   H     H_    0.850072 0.201089 0.680916 0.057170
H19   H     H_    0.711012 0.097044 0.771594 0.144639
H20   H     H_    0.883760 0.042062 0.730831 0.059763
H21   H     H_    0.346426 0.299919 0.756922 -0.002752
H22   H     H_    0.562752 0.307998 0.761850 0.120130
H23   H     H_    0.750582 0.377946 0.177118 0.063425
H24   H     H_    0.354484 0.190129 0.868753 0.128148
H25   H     H_    0.455394 0.301249 0.898395 0.090132
H26   H     H_    0.973375 0.798951 0.326711 0.092833
H27   H     H_    0.574829 0.198852 0.875427 0.136347
H28   H     H_    0.635185 0.700289 0.458983 0.070973
H29   H     H_    0.526289 0.979787 0.393878 0.070696
H30   H     H_    0.290231 0.018538 0.599448 0.073609
H31   H     H_    0.176840 0.299021 0.539096 0.070025
H32   H     H_    0.090272 0.893596 0.573224 0.101138
H33   H     H_    0.721855 0.106112 0.424520 0.095728
H34   H     H_    0.898831 0.287226 0.188122 0.129967
H35   H     H_    0.742120 0.588113 0.080007 0.107726
H36   H     H_    0.309350 0.439842 0.142834 0.118625
H37   H     H_    0.767703 0.785294 0.281582 -0.060857
H38   H     H_    0.657480 0.545983 0.329428 0.077378
H39   H     H_    0.161992 0.455748 0.681417 0.076945
H40   H     H_    0.035456 0.916604 0.226583 0.148895
H41   H     H_    0.829531 0.903042 0.181988 0.115189
H42   H     H_    0.689330 0.365629 0.324137 0.011614
H43   H     H_    0.899294 0.398937 0.310880 0.070954
H44   H     H_    0.112522 0.246644 0.701517 0.111651
H45   H     H_    0.112034 0.631612 0.677729 -0.006994
H46   H     H_    0.123789 0.133743 0.721637 0.152747
H47   H     H_    0.875977 0.138767 0.895080 0.208400
H48   H     H_    0.036821 0.082318 0.856810 0.198588
H49   H     H_    0.537832 0.732038 0.953379 0.303011
H50   H     H_    0.918812 0.428016 0.937557 0.205923
H51   H     H_    0.026024 0.327235 0.929425 0.189656
H52   H     H_    0.899720 0.604210 0.689578 0.087096
H53   H     H_    0.124592 0.733990 0.802285 0.126581
H54   H     H_    0.035038 0.622614 0.824839 0.073638
H55   H     H_    0.906523 0.721950 0.810462 0.160241
N1    N     N_2   0.469425 0.507853 0.016255 -0.226538
N2    N     N_2   0.319953 0.497381 0.998656 -0.193019
N3    N     N_3   0.081794 0.198559 0.743719 -0.503486
N4    N     N_3   0.909505 0.083597 0.855412 -0.489654
N5    N     N_3   0.035286 0.399703 0.943014 -0.475348
O1    O     O_2   0.106830 0.727750 0.529310 -0.466267
O2    O     O_2   0.756149 0.441686 0.792300 -0.459064
O3    O     O_3   0.848541 0.268653 0.795632 -0.618509
O4    O     O_3   0.863420 0.611560 0.536200 -0.494876
O5    O     O_3   0.443250 0.452450 0.405760 -0.490276
O6    O     O_2   0.617170 0.545280 0.694550 -0.427193
O7    O     O_3   0.450554 0.702743 0.709841 -0.627678
O8    O     O_2   0.593755 0.164673 0.577628 -0.498032
O9    O     O_3   0.466949 0.178451 0.720011 -0.620198
O10   O     O_3   0.352370 0.670610 0.385960 -0.489002
O11   O     O_2   0.226546 0.835365 0.429737 -0.492880
O12   O     O_3   0.360903 0.304394 0.300420 -0.633406
O13   O     O_3   0.954083 0.739616 0.658952 -0.641041
O14   O     O_3   0.320699 0.821956 0.281359 -0.599119
O15   O     O_2   0.193140 0.454660 0.305430 -0.463437
O16   O     O_3   0.941260 0.623660 0.347470 -0.492887
O17   O     O_2   0.054914 0.561887 0.206684 -0.477104
O18   O     O_2   0.629135 0.611291 0.860338 -0.595349
O19   O     O_R   0.445417 0.685383 0.938041 -0.760410
O20   O     O_3   0.953361 0.735379 0.210650 -0.595373
O21   O     O_2   0.703470 0.272190 0.470670 -0.469375
O22   O     O_3   0.946880 0.388430 0.463740 -0.494955
O23   O     O_3   0.457930 0.329380 0.613970 -0.489322
O24   O     O_3   0.856445 0.261779 0.340771 -0.640353
O25   O     O_3   0.367050 0.547540 0.594170 -0.485048
O26   O     O_3   0.869040 0.376330 0.652460 -0.488957
P1    P     P_3+3 0.934880 0.713230 0.554140 0.971877
P2    P     P_3+3 0.367500 0.426600 0.319160 0.985482
P3    P     P_3+3 0.917125 0.621805 0.241749 0.958118
P4    P     P_3+3 0.875420 0.286760 0.445790 0.972696
P5    P     P_3+3 0.892751 0.379499 0.759314 0.941663
P6    P     P_3+3 0.365729 0.792568 0.381454 0.945891
P7    P     P_3+3 0.437113 0.580303 0.693849 0.987981
P8    P     P_3+3 0.444651 0.207408 0.618331 0.930497

loop_
_geom_bond_atom_site_label_1
_geom_bond_atom_site_label_2
_ccdc_geom_bond_type
O20   P3    S    
C6    C7    A    
C37   H6    S    
H51   N5    S    
Ba2   O4    S    
N1    N2    D    
C4    H37   S    
C39   O3    S    
C25   C27   A    
C39   C40   S    
O15   P2    D    
C23   H11   S    
C34   H14   S    
O12   P2    S    
C1    H4    S    
C5    C6    A    
C2    P1    S    
O1    P1    D    
C9    C17   A    
C16   H41   S    
C33   C35   S    
O23   P8    S    
O22   P4    S    
O3    P5    S    
C34   H13   S    
C41   O9    S    
C36   C37   S    
C32   H34   S    
C1    H9    S    
C13   C14   A    
C27   C31   A    
Ba1   Ba2   S    
O17   P3    D    
H50   N5    S    
C23   O7    S    
Ba1   O4    S    
O24   P4    S    
C36   O12   S    
C22   H35   S    
O10   P6    S    
C14   C15   A    
C10   C15   A    
C40   H20   S    
C21   C22   A    
O8    P8    D    
C42   H25   S    
O16   P3    S    
C7    C8    A    
C36   H3    S    
Ba1   O1    S    
Ba2   O22   S    
Ba1   P1    S    
C13   H31   S    
C19   C20   A    
H44   N3    S    
C11   P4    S    
O4    P1    S    
Ba1   P2    S    
H48   N4    S    
C19   P2    S    
C35   H53   S    
C7    C17   A    
C1    H16   S    
C4    H26   S    
C38   O19   S    
C4    C16   S    
Ba2   O6    S    
C16   H40   S    
C28   C32   S    
O14   P6    S    
C20   H36   S    
O7    P7    S    
C31   N5    S    
C12   H1    S    
O26   P5    S    
C32   H23   S    
C3    C5    A    
C16   H17   S    
C29   H39   S    
C39   N3    S    
Ba1   O15   S    
C17   H33   S    
C41   C42   S    
O2    P5    D    
C24   P3    S    
H46   N3    S    
Ba1   O5    S    
C32   H12   S    
C29   C30   A    
C25   C38   S    
C12   H8    S    
C8    C43   A    
C6    H29   S    
Ba2   O26   S    
C26   P7    S    
C42   H24   S    
O9    P8    S    
C36   H2    S    
C1    C12   S    
Ba2   O21   S    
O21   P4    D    
Ba1   O25   S    
C30   P5    S    
C11   C13   A    
C42   H27   S    
C14   P8    S    
C39   H18   S    
C28   H43   S    
O25   P7    S    
C40   H19   S    
C35   H54   S    
C5    P6    S    
O11   P6    D    
C38   O18   D    
Ba2   O5    S    
C26   C29   A    
Ba1   O22   S    
C4    O20   S    
C22   C24   A    
C2    C3    A    
C34   H15   S    
C40   N4    S    
C9    C10   A    
C10   C43   A    
C28   O24   S    
Ba2   P4    S    
C30   C31   A    
C33   H52   S    
C9    C11   A    
C21   N1    S    
C18   C24   A    
C41   H21   S    
Ba2   O25   S    
C23   H10   S    
C27   N2    S    
C37   H7    S    
C3    H28   S    
Ba1   O16   S    
O13   P1    S    
H47   N4    S    
C23   C34   S    
C33   H45   S    
C37   H5    S    
C18   C19   A    
C41   H22   S    
C12   O14   S    
C18   H38   S    
C25   C26   A    
C15   H30   S    
C20   C21   A    
C33   O13   S    
C43   H32   S    
Ba1   O10   S    
C28   H42   S    
O5    P2    S    
C2    C8    A    
C35   H55   S    
O6    P7    D    
H49   O19   S    
Ba2   O23   S    
