data_mof_unit_25844.cif
_audit_creation_date              2012-10-26T20:43:31-0400
_audit_creation_method            fapswitch 2.2
_symmetry_space_group_name_H-M    P1
_symmetry_Int_Tables_number       1
_space_group_crystal_system       triclinic
_cell_length_a                    10.832904
_cell_length_b                    9.506295
_cell_length_c                    23.520477
_cell_angle_alpha                 90.000269
_cell_angle_beta                  90.16926
_cell_angle_gamma                 89.99997
_cell_volume                      2422.14652496

loop_
_atom_site_label
_atom_site_type_symbol
_atom_type_description
_atom_site_fract_x
_atom_site_fract_y
_atom_site_fract_z
_atom_type_partial_charge
C1    C     C_R   0.262019 0.500000 0.499962 0.554635
C2    C     C_R   0.500592 0.373161 0.702046 -0.143622
C3    C     C_R   0.499312 0.373691 0.238793 -0.081013
C4    C     C_R   0.500684 0.373693 0.761206 -0.081013
C5    C     C_R   0.499256 0.500834 0.208785 0.255636
C6    C     C_R   0.500717 0.500837 0.791215 0.255636
C7    C     C_R   0.063849 0.372159 0.499989 -0.131211
C8    C     C_R   0.936151 0.627844 0.500011 -0.131310
C9    C     C_R   0.936151 0.372159 0.500049 -0.131210
C10   C     C_R   0.063849 0.627844 0.499951 -0.131308
C11   C     C_R   0.871801 0.500001 0.500046 0.023223
C12   C     C_R   0.737981 0.500000 0.500038 0.554635
C13   C     C_R   0.128198 0.500001 0.499954 0.023224
C14   C     C_R   0.423115 0.074460 0.464669 0.011365
C15   C     C_R   0.576881 0.925538 0.535332 0.011251
C16   C     C_R   0.576885 0.074461 0.535331 0.011366
C17   C     C_R   0.423119 0.925537 0.464668 0.011253
C18   C     C_R   0.499791 0.500031 0.390840 0.558961
C19   C     C_R   0.500208 0.500032 0.609159 0.558962
C20   C     C_R   0.610773 0.493665 0.880686 0.440812
C21   C     C_R   0.389204 0.493575 0.119314 0.440812
C22   C     C_R   0.390068 0.493617 0.880221 0.441099
C23   C     C_R   0.499174 0.630260 0.238573 0.058372
C24   C     C_R   0.609909 0.493701 0.119779 0.441100
C25   C     C_R   0.387514 0.491436 0.939836 0.039355
C26   C     C_R   0.612465 0.491524 0.060164 0.039356
C27   C     C_R   0.500098 0.491135 0.970002 -0.021132
C28   C     C_R   0.499880 0.491134 0.029998 -0.021131
C29   C     C_R   0.612899 0.491506 0.940313 0.039589
C30   C     C_R   0.387079 0.491415 0.059687 0.039589
C31   C     C_R   0.275600 0.490591 0.969864 -0.111465
C32   C     C_R   0.724379 0.490767 0.030136 -0.111469
C33   C     C_R   0.275385 0.490575 0.029184 -0.111486
C34   C     C_R   0.500783 0.630263 0.761427 0.058373
C35   C     C_R   0.724594 0.490754 0.970816 -0.111490
C36   C     C_2   0.499035 0.769360 0.209768 0.269667
C37   C     C_2   0.500889 0.769364 0.790233 0.269669
C38   C     C_R   0.499273 0.628125 0.298168 -0.171331
C39   C     C_R   0.500698 0.628127 0.701832 -0.171331
C40   C     C_R   0.499492 0.500324 0.328186 -0.000601
C41   C     C_R   0.500501 0.500325 0.671813 -0.000600
C42   C     C_R   0.499412 0.373159 0.297953 -0.143622
Cu1   Cu    Cu3+1 0.500000 0.640660 0.500000 0.943936
Cu2   Cu    Cu3+1 0.500000 0.359340 0.500000 0.944116
H1    H     H_    0.187864 0.490605 0.947657 0.171784
H2    H     H_    0.500663 0.274725 0.784019 0.132577
H3    H     H_    0.111888 0.272215 0.499975 0.130395
H4    H     H_    0.888111 0.727788 0.500025 0.130360
H5    H     H_    0.888112 0.272215 0.500094 0.130386
H6    H     H_    0.111888 0.727788 0.499906 0.130351
H7    H     H_    0.361564 0.130681 0.436384 0.109688
H8    H     H_    0.638425 0.869316 0.563620 0.109439
H9    H     H_    0.638436 0.130682 0.563616 0.109682
H10   H     H_    0.361575 0.869315 0.436379 0.109432
H11   H     H_    0.498995 0.864851 0.235097 0.087815
H12   H     H_    0.812115 0.490850 0.052343 0.171786
H13   H     H_    0.500966 0.864855 0.764904 0.087812
H14   H     H_    0.187490 0.490579 0.051017 0.171493
H15   H     H_    0.812489 0.490827 0.948983 0.171496
H16   H     H_    0.499216 0.726868 0.321220 0.113179
H17   H     H_    0.500743 0.726870 0.678780 0.113181
H18   H     H_    0.499476 0.273087 0.319962 0.132468
H19   H     H_    0.500545 0.273087 0.680037 0.132466
H20   H     H_    0.499345 0.274723 0.215981 0.132578
N1    N     N_R   0.500522 0.496149 0.852116 -0.370933
N2    N     N_R   0.499454 0.496145 0.147883 -0.370934
N3    N     N_R   0.500000 0.852070 0.500000 -0.224914
N4    N     N_R   0.500000 0.147930 0.500000 -0.224878
O1    O     O_R   0.319640 0.618740 0.500000 -0.507655
O2    O     O_2   0.282264 0.494141 0.148587 -0.476108
O3    O     O_2   0.283337 0.494231 0.850497 -0.474807
O4    O     O_2   0.716639 0.494398 0.149503 -0.474814
O5    O     O_2   0.498956 0.780283 0.158073 -0.466431
O6    O     O_2   0.500892 0.780286 0.841928 -0.466429
O7    O     O_R   0.680360 0.381260 0.500000 -0.507540
O8    O     O_R   0.680360 0.618740 0.500000 -0.507656
O9    O     O_R   0.319640 0.381260 0.500000 -0.507542
O10   O     O_R   0.499960 0.618810 0.417880 -0.502323
O11   O     O_R   0.500040 0.381190 0.582120 -0.503308
O12   O     O_R   0.500040 0.618810 0.582120 -0.502321
O13   O     O_R   0.499960 0.381190 0.417880 -0.503305
O14   O     O_2   0.717712 0.494315 0.851413 -0.476115

loop_
_geom_bond_atom_site_label_1
_geom_bond_atom_site_label_2
_ccdc_geom_bond_type
C25   C31   A    
C37   O6    D    
C3    C42   A    
C26   C32   A    
C33   H14   S    
C20   O14   S    
C21   N2    A    
C27   C29   A    
C34   C37   S    
C1    O9    A    
C39   C41   A    
C4    H2    S    
C3    H20   S    
Cu1   O10   S    
Cu2   O9    S    
C24   C26   A    
C2    C41   A    
C15   C16   A    
C18   O13   A    
C35   H15   S    
C18   C40   S    
C16   H9    S    
C6    N1    S    
C22   C25   A    
C31   C33   A    
C16   N4    A    
C42   H18   S    
C24   N2    A    
C40   C42   A    
Cu1   O1    S    
C14   C17   A    
C20   C29   A    
C39   H17   S    
C17   N3    A    
C34   C39   A    
C32   C35   A    
C20   N1    A    
C9    H5    S    
C4    C6    A    
Cu2   O13   S    
Cu1   O12   S    
C1    O1    A    
C6    C34   A    
C7    H3    S    
Cu2   O7    S    
C2    C4    A    
Cu1   Cu2   S    
C8    H4    S    
C22   N1    A    
C14   H7    S    
C5    C23   A    
C18   O10   A    
C15   N3    A    
C15   H8    S    
C19   O11   A    
C9    C11   A    
C38   H16   S    
Cu1   N3    S    
C12   O8    A    
Cu2   N4    S    
C1    C13   S    
C10   H6    S    
C22   O3    S    
C2    H19   S    
C24   O4    S    
Cu1   O8    S    
C7    C9    A    
C30   C33   A    
Cu2   O11   S    
C5    N2    S    
C3    C5    A    
C10   C13   A    
C11   C12   S    
C25   C27   A    
C23   C38   A    
C21   C30   A    
C29   C35   A    
C26   C28   A    
C21   O2    S    
C28   C30   A    
C36   H11   S    
C38   C40   A    
C8    C11   A    
C19   O12   A    
C36   O5    D    
C7    C13   A    
C8    C10   A    
C23   C36   S    
C31   H1    S    
C12   O7    A    
C27   C28   A    
C14   N4    A    
C17   H10   S    
C32   H12   S    
C37   H13   S    
C19   C41   S    
