data_mof_unit_67404.cif
_audit_creation_date              2013-03-05T15:39:48-0500
_audit_creation_method            fapswitch 2.2
_symmetry_space_group_name_H-M    P1
_symmetry_Int_Tables_number       1
_space_group_crystal_system       triclinic
_cell_length_a                    12.004316
_cell_length_b                    12.616181
_cell_length_c                    7.511954
_cell_angle_alpha                 90.670118
_cell_angle_beta                  108.195567
_cell_angle_gamma                 89.649775
_cell_volume                      1080.7094856

loop_
_atom_site_label
_atom_site_type_symbol
_atom_site_description
_atom_site_fract_x
_atom_site_fract_y
_atom_site_fract_z
_atom_type_partial_charge
O1    O     O_R   0.398880 0.887420 0.621600 -0.571944
O2    O     O_R   0.601120 0.112580 0.378400 -0.571940
O3    O     O_R   0.601120 0.887420 0.378400 -0.577722
O4    O     O_R   0.398880 0.112580 0.621600 -0.577721
O5    O     O_R   0.898880 0.387420 0.621600 -0.571900
O6    O     O_R   0.101120 0.612580 0.378400 -0.571912
O7    O     O_R   0.101120 0.387420 0.378400 -0.577726
O8    O     O_R   0.898880 0.612580 0.621600 -0.577730
O9    O     O_R   0.369080 0.887420 0.305440 -0.580371
O10   O     O_R   0.630920 0.112580 0.694560 -0.580382
O11   O     O_R   0.630920 0.887420 0.694560 -0.548097
O12   O     O_R   0.369080 0.112580 0.305440 -0.548106
O13   O     O_R   0.869080 0.387420 0.305440 -0.580459
O14   O     O_R   0.130920 0.612580 0.694560 -0.580434
O15   O     O_R   0.130920 0.387420 0.694560 -0.548048
O16   O     O_R   0.869080 0.612580 0.305440 -0.548029
C1    C     C_R   0.345611 0.854819 0.453395 0.835598
C2    C     C_R   0.654388 0.145181 0.546605 0.835601
C3    C     C_R   0.655220 0.855953 0.545612 0.837441
C4    C     C_R   0.344780 0.144047 0.454387 0.837436
C5    C     C_R   0.845610 0.354821 0.453395 0.835631
C6    C     C_R   0.154390 0.645179 0.546605 0.835620
C7    C     C_R   0.155217 0.355950 0.545613 0.837457
C8    C     C_R   0.844783 0.644050 0.454387 0.837467
Cu1   Cu    Cu3+1 0.517640 1.000000 0.687200 1.076280
Cu2   Cu    Cu3+1 0.482360 1.000000 0.312800 1.076283
Cu3   Cu    Cu3+1 0.017640 0.500000 0.687200 1.076288
Cu4   Cu    Cu3+1 0.982360 0.500000 0.312800 1.076280
C9    C     C_2   0.244968 0.209833 0.437423 0.037185
C10   C     C_2   0.755032 0.790168 0.562576 0.037176
C11   C     C_2   0.752347 0.214010 0.567917 0.014433
C12   C     C_2   0.247652 0.785991 0.432084 0.014441
C13   C     C_2   0.744974 0.709839 0.437417 0.037165
C14   C     C_2   0.255026 0.290160 0.562583 0.037174
C15   C     C_2   0.252354 0.714003 0.567910 0.014562
C16   C     C_2   0.747646 0.285997 0.432089 0.014567
N1    N     N_2   0.455760 1.000000 0.031460 0.015884
N2    N     N_2   0.544240 1.000000 0.968540 0.015880
N3    N     N_2   0.955760 0.500000 0.031460 0.015856
N4    N     N_2   0.044240 0.500000 0.968540 0.015870
C17   C     C_3   0.628480 0.670919 0.305157 -0.758327
H1    H     H_    0.637945 0.591816 0.244784 0.224256
H2    H     H_    0.563518 0.662721 0.381912 0.210366
H3    H     H_    0.593673 0.725586 0.186256 0.282028
C18   C     C_3   0.371519 0.329079 0.694848 -0.758344
H4    H     H_    0.362054 0.408182 0.755222 0.224257
H5    H     H_    0.406325 0.274411 0.813748 0.282028
H6    H     H_    0.436483 0.337278 0.618094 0.210367
C19   C     C_3   0.362127 0.690151 0.730528 -0.758561
H7    H     H_    0.354819 0.613475 0.797217 0.228009
H8    H     H_    0.439884 0.683578 0.680721 0.222938
H9    H     H_    0.376435 0.752469 0.840777 0.277521
C20   C     C_3   0.637875 0.309845 0.269466 -0.758579
H10   H     H_    0.645182 0.386521 0.202775 0.228005
H11   H     H_    0.623570 0.247526 0.159220 0.277515
H12   H     H_    0.560116 0.316418 0.319267 0.222944
C21   C     C_3   0.128470 0.170898 0.305196 -0.758364
H13   H     H_    0.137941 0.091801 0.244806 0.224269
H14   H     H_    0.063530 0.162680 0.381989 0.210374
H15   H     H_    0.093627 0.225564 0.186307 0.282036
C22   C     C_3   0.871531 0.829106 0.694795 -0.758358
H16   H     H_    0.862059 0.908202 0.755186 0.224271
H17   H     H_    0.906379 0.774439 0.813683 0.282037
H18   H     H_    0.936467 0.837325 0.617996 0.210373
C23   C     C_3   0.862111 0.190177 0.730565 -0.758548
H19   H     H_    0.854805 0.113505 0.797269 0.228058
H20   H     H_    0.939880 0.183606 0.680788 0.222961
H21   H     H_    0.876395 0.252505 0.840794 0.277476
C24   C     C_3   0.137885 0.809829 0.269444 -0.758526
H22   H     H_    0.145191 0.886502 0.202743 0.228053
H23   H     H_    0.123595 0.747502 0.159211 0.277487
H24   H     H_    0.060119 0.816401 0.319229 0.222955
N5    N     N_R   0.346990 0.025344 0.907079 0.256005
O17   O     O_R   0.305565 0.120125 0.914684 -0.347436
O18   O     O_R   0.272302 0.949330 0.841469 -0.375596
N6    N     N_R   0.653007 0.974646 0.092918 0.256003
O19   O     O_R   0.694428 0.879866 0.085291 -0.347421
O20   O     O_R   0.727699 0.050655 0.158555 -0.375600
N7    N     N_R   0.847032 0.525530 0.907136 0.255983
O21   O     O_R   0.805704 0.620318 0.915071 -0.347399
O22   O     O_R   0.772271 0.449618 0.841110 -0.375572
N8    N     N_R   0.152976 0.474503 0.092874 0.255991
O23   O     O_R   0.194315 0.379713 0.085013 -0.347420
O24   O     O_R   0.227728 0.550433 0.158803 -0.375572

loop_
_geom_bond_atom_site_label_1
_geom_bond_atom_site_label_2
_geom_bond_distance
_ccdc_geom_bond_type
O16   Cu4   1.949579 S    
O2    C2    1.288830 A    
N5    O18   1.299976 A    
N5    O17   1.299733 A    
C19   H7    1.110979 S    
O4    Cu1   1.960988 S    
C5    C16   1.433241 S    
N2    N6    1.385673 S    
C20   H10   1.110980 S    
C6    C15   1.433242 S    
O11   C3    1.298704 A    
N6    O20   1.299989 A    
C21   H14   1.111069 S    
O11   Cu1   1.949579 S    
O6    C6    1.288824 A    
C24   H23   1.109565 S    
C17   H1    1.111198 S    
C18   H5    1.107178 S    
C22   H17   1.107161 S    
C16   C20   1.522405 S    
O5    Cu3   1.965259 S    
O6    Cu4   1.965257 S    
C19   H8    1.111107 S    
C15   C19   1.522405 S    
O13   Cu4   1.960717 S    
O3    C3    1.286932 A    
O14   Cu3   1.960715 S    
C23   H21   1.109568 S    
O15   C7    1.298696 A    
O16   C8    1.298695 A    
O1    Cu1   1.965259 S    
C17   H2    1.111068 S    
C22   H16   1.111200 S    
O9    Cu2   1.960717 S    
C4    C9    1.426767 S    
C20   H11   1.109556 S    
C12   C15   1.361679 D    
N4    N8    1.385688 S    
N6    O19   1.299727 A    
N3    N4    1.290375 D    
N7    O22   1.300023 A    
C21   H15   1.107164 S    
C18   H6    1.111070 S    
Cu4   N3    2.036424 S    
C23   H20   1.111108 S    
Cu1   Cu2   2.710259 S    
C18   H4    1.111198 S    
C9    C14   1.354219 D    
O7    Cu4   1.960988 S    
O12   Cu2   1.949579 S    
N3    N7    1.385688 S    
C24   H24   1.111107 S    
N1    N2    1.290375 D    
Cu1   N2    2.036424 S    
O15   Cu3   1.949579 S    
Cu3   N4    2.036424 S    
C7    C14   1.426760 S    
O12   C4    1.298702 A    
O13   C5    1.300568 A    
O2    Cu2   1.965257 S    
C14   C18   1.520887 S    
O10   Cu1   1.960715 S    
O9    C1    1.300562 A    
C9    C21   1.520887 S    
N8    O23   1.299729 A    
N8    O24   1.300009 A    
C1    C12   1.433237 S    
C17   H3    1.107176 S    
C20   H12   1.111108 S    
C11   C23   1.522408 S    
N1    N5    1.385673 S    
C10   C13   1.354218 D    
O3    Cu2   1.960988 S    
C19   H9    1.109556 S    
Cu2   N1    2.036424 S    
C12   C24   1.522407 S    
O1    C1    1.288829 A    
C8    C13   1.426760 S    
C13   C17   1.520885 S    
O14   C6    1.300570 A    
C22   H18   1.111067 S    
C21   H13   1.111198 S    
O10   C2    1.300562 A    
O7    C7    1.286938 A    
O8    C8    1.286938 A    
C24   H22   1.110980 S    
N7    O21   1.299734 A    
O4    C4    1.286933 A    
O5    C5    1.288824 A    
C23   H19   1.110979 S    
C10   C22   1.520886 S    
Cu3   Cu4   2.710259 S    
O8    Cu3   1.960988 S    
C11   C16   1.361679 D    
C2    C11   1.433236 S    
C3    C10   1.426767 S    
