data_mof_unit_12905.cif
_audit_creation_date              2012-12-11T15:54:39-0500
_audit_creation_method            fapswitch 2.2
_symmetry_space_group_name_H-M    P1
_symmetry_Int_Tables_number       1
_space_group_crystal_system       triclinic
_cell_length_a                    6.949913
_cell_length_b                    14.549071
_cell_length_c                    16.060163
_cell_angle_alpha                 89.787898
_cell_angle_beta                  90.019979
_cell_angle_gamma                 90.025367
_cell_volume                      1623.9084273

loop_
_atom_site_label
_atom_site_type_symbol
_atom_type_description
_atom_site_fract_x
_atom_site_fract_y
_atom_site_fract_z
_atom_type_partial_charge
O1    O     O_R   0.638180 0.333920 0.163320 -0.539194
O2    O     O_R   0.361820 0.666080 0.836680 -0.542023
O3    O     O_R   0.308470 0.344960 0.336080 -0.544707
O4    O     O_R   0.691530 0.655040 0.663920 -0.545551
O5    O     O_R   0.138140 0.166110 0.336680 -0.533662
O6    O     O_R   0.861860 0.833890 0.663320 -0.532183
C1    C     C_R   0.477537 0.367128 0.365048 0.686159
C2    C     C_R   0.522471 0.632942 0.634891 0.683312
O7    O     O_R   0.308460 0.344950 0.163930 -0.543454
O8    O     O_R   0.691540 0.655050 0.836070 -0.543223
O9    O     O_R   0.138140 0.166100 0.163310 -0.535229
O10   O     O_R   0.861860 0.833900 0.836690 -0.538565
C3    C     C_R   0.477507 0.367224 0.135105 0.680724
C4    C     C_R   0.522403 0.632433 0.864598 0.692499
O11   O     O_R   0.638180 0.333930 0.336700 -0.540445
O12   O     O_R   0.361820 0.666070 0.663300 -0.541415
O13   O     O_3   0.471670 0.191340 0.250000 -0.365729
O14   O     O_3   0.528330 0.808660 0.750000 -0.364711
V1    V     V_3+5 0.196830 0.260900 0.250000 1.382382
V2    V     V_3+5 0.803170 0.739100 0.750000 1.384375
O15   O     O_R   0.808420 0.155070 0.163920 -0.545434
O16   O     O_R   0.191580 0.844930 0.836080 -0.547326
C5    C     C_R   0.979635 0.129681 0.137499 0.682954
C6    C     C_R   0.022624 0.863439 0.867537 0.695611
O17   O     O_R   0.808420 0.155080 0.336070 -0.537035
O18   O     O_R   0.191580 0.844920 0.663930 -0.535084
C7    C     C_R   0.977248 0.133486 0.364827 0.702646
C8    C     C_R   0.022782 0.866215 0.634846 0.708731
V3    V     V_3+5 0.696830 0.239130 0.250000 1.386227
V4    V     V_3+5 0.303170 0.760870 0.750000 1.394633
O19   O     O_3   0.971850 0.308690 0.250010 -0.370739
O20   O     O_3   0.028150 0.691310 0.749990 -0.374491
H1    H     H_    0.912639 0.825151 0.252747 0.108244
H2    H     H_    0.085094 0.175271 0.746473 0.106311
C9    C     C_R   0.030243 0.189868 0.535976 -0.187415
C10   C     C_R   0.969242 0.809891 0.463262 -0.187920
C11   C     C_R   0.054642 0.220618 0.617974 0.142568
C12   C     C_R   0.944070 0.779381 0.381157 0.143336
C13   C     C_R   0.066075 0.155222 0.682271 -0.123457
C14   C     C_R   0.932318 0.844932 0.316991 -0.120906
C15   C     C_R   0.052969 0.061641 0.665003 -0.175080
C16   C     C_R   0.945809 0.938386 0.334436 -0.182726
C17   C     C_R   0.027766 0.029780 0.582767 0.069185
C18   C     C_R   0.971823 0.970004 0.416704 0.070927
C19   C     C_R   0.015825 0.095155 0.516923 0.048575
C20   C     C_R   0.983962 0.904556 0.482506 0.048156
C21   C     C_R   0.012277 0.934444 0.565725 -0.166296
C22   C     C_R   0.987672 0.065246 0.433796 -0.163907
H3    H     H_    0.021196 0.241342 0.487229 0.098226
H4    H     H_    0.978436 0.758333 0.511932 0.096935
H5    H     H_    0.062002 0.014564 0.717194 0.104838
H6    H     H_    0.936118 0.985560 0.282347 0.095606
C23   C     C_R   0.174582 0.978070 0.961764 -0.237898
C24   C     C_R   0.847857 0.994826 0.059188 -0.248592
H7    H     H_    0.306554 0.969070 0.926834 0.125703
H8    H     H_    0.734363 0.993939 0.103592 0.139007
C25   C     C_R   0.175139 0.035872 0.031686 0.138722
C26   C     C_R   0.851882 0.928134 0.996001 0.156608
C27   C     C_R   0.999411 0.055499 0.073024 -0.092256
C28   C     C_R   0.012163 0.925728 0.940935 -0.081214
C29   C     C_R   0.321914 0.478406 0.464469 -0.174305
C30   C     C_R   0.678132 0.521886 0.535275 -0.174490
H9    H     H_    0.182100 0.462715 0.438356 0.114100
H10   H     H_    0.817967 0.537644 0.561320 0.113987
C31   C     C_R   0.333036 0.542195 0.529437 -0.163826
C32   C     C_R   0.667010 0.458090 0.470317 -0.163862
H11   H     H_    0.201271 0.573877 0.551010 0.116933
H12   H     H_    0.798790 0.426449 0.448710 0.117117
C33   C     C_R   0.511273 0.564726 0.565927 -0.040420
C34   C     C_R   0.488753 0.435479 0.433895 -0.041387
C35   C     C_R   0.321219 0.476598 0.034010 -0.157983
C36   C     C_R   0.678478 0.522566 0.965259 -0.163082
H13   H     H_    0.181170 0.460016 0.059521 0.116460
H14   H     H_    0.818557 0.539338 0.939881 0.117402
C37   C     C_R   0.332270 0.539926 0.968431 -0.160483
C38   C     C_R   0.667459 0.459383 0.030939 -0.157574
H15   H     H_    0.200211 0.570466 0.945633 0.115493
H16   H     H_    0.799580 0.429090 0.053921 0.117095
C39   C     C_R   0.511050 0.563754 0.933178 -0.047160
C40   C     C_R   0.488669 0.435468 0.066144 -0.043258
C41   C     C_3   0.067594 0.323613 0.632552 -0.376844
C42   C     C_3   0.081328 0.353166 0.724213 -0.347777
C43   C     C_3   0.088670 0.457635 0.732199 -0.688989
H17   H     H_    0.218485 0.485140 0.700517 0.221767
H18   H     H_    0.957978 0.489219 0.704438 0.221753
H19   H     H_    0.095595 0.476757 0.799018 0.204954
H20   H     H_    0.953707 0.327524 0.758983 0.196420
H21   H     H_    0.214005 0.324223 0.752726 0.196204
H22   H     H_    0.195763 0.350080 0.598704 0.186824
H23   H     H_    0.938005 0.356325 0.604635 0.176081
C44   C     C_3   0.930464 0.676479 0.366220 -0.376697
C45   C     C_3   0.914803 0.647427 0.274452 -0.349876
C46   C     C_3   0.906564 0.543024 0.266057 -0.686462
H24   H     H_    0.037396 0.511078 0.293367 0.221759
H25   H     H_    0.776986 0.515585 0.297973 0.221452
H26   H     H_    0.898554 0.524277 0.199172 0.205904
H27   H     H_    0.781832 0.676732 0.246483 0.197210
H28   H     H_    0.041932 0.673039 0.239319 0.196747
H29   H     H_    0.060439 0.643521 0.393554 0.176035
H30   H     H_    0.802808 0.649966 0.400400 0.187010
C47   C     C_3   0.367484 0.057917 0.070167 -0.323051
C48   C     C_3   0.387401 0.006348 0.154171 -0.653899
H31   H     H_    0.259746 0.013863 0.194782 0.213207
H32   H     H_    0.405127 0.931629 0.143822 0.184004
H33   H     H_    0.511702 0.032292 0.190158 0.217091
H34   H     H_    0.483824 0.036236 0.027708 0.146414
H35   H     H_    0.390272 0.132930 0.076527 0.188966
C49   C     C_3   0.693505 0.856098 0.996103 -0.357167
C50   C     C_3   0.769497 0.762814 0.025163 -0.738041
H36   H     H_    0.873005 0.733938 0.979691 0.219721
H37   H     H_    0.841776 0.769596 0.086569 0.213599
H38   H     H_    0.647545 0.714215 0.032313 0.212856
H39   H     H_    0.577495 0.875334 0.039644 0.169432
H40   H     H_    0.620237 0.851090 0.935098 0.197298

loop_
_geom_bond_atom_site_label_1
_geom_bond_atom_site_label_2
_ccdc_geom_bond_type
C7    C22   S    
C29   C34   A    
C32   H12   S    
C8    C21   S    
C47   H35   S    
C47   C48   S    
O13   V3    S    
O4    C2    A    
V1    O19   S    
C1    C34   S    
C41   C42   S    
C45   H28   S    
C13   C15   A    
C5    C27   S    
O9    V1    S    
C2    C33   S    
C46   H24   S    
C37   C39   A    
C12   C14   A    
C38   H16   S    
C36   C39   A    
O3    C1    A    
C50   H37   S    
V2    O20   S    
C42   H21   S    
C25   C27   A    
O12   V4    S    
C42   H20   S    
C49   C50   S    
C48   H33   S    
C49   H40   S    
C29   H9    S    
O7    C3    A    
C30   H10   S    
O5    C7    A    
O7    V1    S    
O6    C8    A    
O8    V2    S    
C31   H11   S    
C9    H3    S    
O3    V1    S    
O14   V4    S    
C44   H30   S    
V4    O20   S    
C26   C49   S    
C36   C38   A    
C41   H22   S    
C14   C16   A    
C3    C40   S    
C46   H25   S    
V3    O19   S    
C15   C17   A    
C11   C41   S    
C16   C18   A    
C35   C40   A    
C23   C28   A    
C18   C20   A    
C45   H27   S    
O11   V3    S    
C24   C27   A    
C23   H7    S    
O17   V3    S    
C24   H8    S    
H1    C14   S    
C30   C32   A    
H2    C13   S    
C36   H14   S    
O8    C4    A    
C50   H38   S    
C44   C45   S    
C35   H13   S    
C23   C25   A    
C1    O11   A    
O15   V3    S    
C12   C44   S    
C30   C33   A    
C49   H39   S    
C17   C19   A    
C43   H17   S    
C6    C28   S    
O10   V2    S    
O1    V3    S    
C4    C39   S    
C48   H32   S    
C37   H15   S    
C41   H23   S    
C43   H18   S    
O18   V4    S    
C46   H26   S    
O15   C5    A    
O16   C6    A    
O1    C3    A    
C9    C19   A    
C10   H4    S    
C24   C26   A    
C19   C22   A    
C47   H34   S    
C20   C21   A    
O16   V4    S    
C9    C11   A    
C38   C40   A    
O5    V1    S    
O17   C7    A    
C25   C47   S    
O10   C6    A    
O18   C8    A    
O2    V4    S    
C10   C12   A    
C11   C13   A    
C50   H36   S    
C35   C37   A    
C10   C20   A    
C32   C34   A    
C17   C21   A    
O6    V2    S    
C31   C33   A    
O9    C5    A    
C45   C46   S    
O13   V1    S    
O14   V2    S    
C48   H31   S    
O2    C4    A    
O4    V2    S    
C29   C31   A    
C43   H19   S    
C2    O12   A    
C42   C43   S    
C44   H29   S    
C26   C28   A    
C15   H5    S    
C18   C22   A    
C16   H6    S    
