data_mof_unit_30948.cif
_audit_creation_date              2012-12-10T17:11:58-0500
_audit_creation_method            fapswitch 2.2
_symmetry_space_group_name_H-M    P1
_symmetry_Int_Tables_number       1
_space_group_crystal_system       triclinic
_cell_length_a                    11.654822
_cell_length_b                    13.003999
_cell_length_c                    15.896637
_cell_angle_alpha                 92.242863
_cell_angle_beta                  73.586035
_cell_angle_gamma                 99.877059
_cell_volume                      2276.72712414

loop_
_atom_site_label
_atom_site_type_symbol
_atom_type_description
_atom_site_fract_x
_atom_site_fract_y
_atom_site_fract_z
_atom_type_partial_charge
C1    C     C_R   0.520829 0.700876 0.501251 0.806767
C2    C     C_R   0.347828 0.015233 0.491919 -0.210053
C3    C     C_R   0.641324 0.876667 0.507641 -0.194906
C4    C     C_R   0.358676 0.123333 0.492359 -0.194908
C5    C     C_R   0.435163 0.860734 0.496759 -0.260675
C6    C     C_R   0.564837 0.139266 0.503241 -0.260671
C7    C     C_R   0.445318 0.968755 0.497153 0.174123
C8    C     C_R   0.554682 0.031245 0.502847 0.174121
C9    C     C_R   0.939269 0.595527 0.582661 -0.332596
C10   C     C_R   0.060731 0.404473 0.417339 -0.332581
C11   C     C_R   0.821062 0.586475 0.574613 0.080242
C12   C     C_R   0.479171 0.299124 0.498749 0.806746
C13   C     C_R   0.178938 0.413525 0.425387 0.080232
C14   C     C_R   0.860281 0.458848 0.464206 0.045691
C15   C     C_R   0.139718 0.541151 0.535794 0.045716
C16   C     C_R   0.425731 0.492098 0.668380 0.808228
C17   C     C_R   0.574267 0.507883 0.331618 0.808232
C18   C     C_R   0.980089 0.465342 0.469940 0.067396
C19   C     C_R   0.019911 0.534658 0.530060 0.067389
C20   C     C_R   0.380115 0.483019 0.765115 -0.161311
C21   C     C_R   0.619869 0.516864 0.234875 -0.161355
C22   C     C_R   0.220642 0.458352 0.902541 -0.190364
C23   C     C_R   0.353377 0.484709 0.088374 -0.210887
C24   C     C_R   0.779320 0.541271 0.097426 -0.190349
C25   C     C_R   0.255415 0.457863 0.811133 0.395882
C26   C     C_R   0.744572 0.541889 0.188833 0.395898
C27   C     C_R   0.466214 0.500822 0.812705 -0.299450
C28   C     C_R   0.533748 0.499051 0.187302 -0.299438
C29   C     C_R   0.432895 0.492199 0.904619 0.088415
C30   C     C_R   0.567051 0.507483 0.095375 0.088416
C31   C     C_R   0.307570 0.474172 0.949298 0.072763
C32   C     C_R   0.692376 0.525423 0.050683 0.072757
C33   C     C_R   0.520228 0.502086 0.953254 0.082710
C34   C     C_R   0.646547 0.514787 0.911612 -0.210933
C35   C     C_R   0.479707 0.497522 0.046741 0.082716
C36   C     C_R   0.269510 0.471755 0.040414 -0.199925
C37   C     C_R   0.730424 0.527723 0.959564 -0.199938
C38   C     C_R   0.467134 0.185706 0.498069 -0.052669
C39   C     C_R   0.532866 0.814294 0.501931 -0.052675
C40   C     C_R   0.652172 0.984767 0.508081 -0.210054
Cu1   Cu    Cu3+1 0.386820 0.492450 0.493500 0.943484
Cu2   Cu    Cu3+1 0.613180 0.507550 0.506500 0.943484
H1    H     H_    0.173653 0.460245 0.075199 0.155214
H2    H     H_    0.875180 0.557234 0.062746 0.155396
H3    H     H_    0.314984 0.484867 0.158360 0.143831
H4    H     H_    0.684908 0.514501 0.841625 0.143906
H5    H     H_    0.648939 0.186933 0.507596 0.153260
H6    H     H_    0.351061 0.813067 0.492404 0.153259
H7    H     H_    0.282237 0.157953 0.488275 0.157826
H8    H     H_    0.717763 0.842047 0.511726 0.157825
H9    H     H_    0.736484 0.031874 0.512487 0.137000
H10   H     H_    0.263516 0.968126 0.487513 0.137000
H11   H     H_    0.171657 0.594033 0.581771 0.130298
H12   H     H_    0.826276 0.539141 0.924771 0.155243
H13   H     H_    0.828343 0.405967 0.418229 0.130326
H14   H     H_    0.806689 0.616259 0.277848 0.333218
H15   H     H_    0.193387 0.383555 0.722055 0.333222
H16   H     H_    0.240703 0.366321 0.384742 0.124567
H17   H     H_    0.759297 0.633679 0.615258 0.124575
H18   H     H_    0.967245 0.649620 0.629518 0.142074
H19   H     H_    0.032756 0.350380 0.370481 0.142074
H20   H     H_    0.440430 0.476889 0.223864 0.168607
H21   H     H_    0.559524 0.523157 0.776176 0.168583
H22   H     H_    0.124782 0.442306 0.937207 0.155390
N1    N     N_R   0.216750 0.481110 0.483710 -0.183391
N2    N     N_R   0.783250 0.518890 0.516290 -0.183397
O1    O     O_R   0.419950 0.645670 0.495380 -0.587621
O2    O     O_3   0.165206 0.432136 0.770016 -0.729376
O3    O     O_R   0.580050 0.354330 0.504620 -0.587621
O4    O     O_R   0.611110 0.658410 0.506370 -0.595325
O5    O     O_R   0.388890 0.341590 0.493630 -0.595337
O6    O     O_R   0.350820 0.490050 0.621260 -0.571171
O7    O     O_R   0.649180 0.509950 0.378740 -0.571176
O8    O     O_R   0.541970 0.502800 0.632250 -0.587282
O9    O     O_R   0.458030 0.497200 0.367750 -0.587286
O10   O     O_3   0.834808 0.567612 0.229926 -0.729382

loop_
_geom_bond_atom_site_label_1
_geom_bond_atom_site_label_2
_ccdc_geom_bond_type
C12   O3    A    
C23   H3    S    
C27   C29   A    
C34   C37   A    
Cu1   Cu2   S    
C14   C18   A    
C2    C7    A    
C16   O6    A    
C21   C26   A    
C7    C8    A    
Cu1   O1    S    
C13   N1    A    
C15   C19   A    
C30   C35   A    
C16   O8    A    
C15   H11   S    
C24   C26   A    
C20   C25   A    
C15   N1    A    
C29   C33   A    
Cu2   O4    S    
C18   C19   A    
C1    O1    A    
C9    C19   A    
C22   C25   A    
C26   O10   S    
C6    C38   A    
C34   H4    S    
C11   N2    A    
Cu1   O5    S    
C14   H13   S    
C3    C39   A    
C17   O7    A    
C25   O2    S    
C11   H17   S    
C3    H8    S    
C5    H6    S    
Cu2   O8    S    
C6    H5    S    
C22   C31   A    
C5    C7    A    
C6    C8    A    
C13   H16   S    
Cu2   O3    S    
C17   C21   S    
C2    C4    A    
C24   C32   A    
Cu1   O9    S    
C16   C20   S    
C33   C34   A    
C14   N2    A    
C32   C37   A    
C9    C11   A    
C2    H10   S    
Cu1   O6    S    
C37   H12   S    
C12   O5    A    
C4    C38   A    
C3    C40   A    
C23   C35   A    
H14   O10   S    
C5    C39   A    
C24   H2    S    
C10   H19   S    
H15   O2    S    
Cu2   N2    S    
Cu2   O7    S    
C21   C28   A    
C10   C13   A    
Cu1   N1    S    
C20   C27   A    
C40   H9    S    
C1    O4    A    
C4    H7    S    
C9    H18   S    
C28   C30   A    
C29   C31   A    
C30   C32   A    
C10   C18   A    
C33   C35   A    
C12   C38   S    
C1    C39   S    
C22   H22   S    
C23   C36   A    
C17   O9    A    
C31   C36   A    
C27   H21   S    
C36   H1    S    
C8    C40   A    
C28   H20   S    
