data_mof_unit_17993.cif
_audit_creation_date              2012-12-11T14:21:01-0500
_audit_creation_method            fapswitch 2.2
_symmetry_space_group_name_H-M    P1
_symmetry_Int_Tables_number       1
_space_group_crystal_system       triclinic
_cell_length_a                    22.00486
_cell_length_b                    7.197805
_cell_length_c                    14.918653
_cell_angle_alpha                 90.001583
_cell_angle_beta                  106.948976
_cell_angle_gamma                 90.004013
_cell_volume                      2260.28221538

loop_
_atom_site_label
_atom_site_type_symbol
_atom_type_description
_atom_site_fract_x
_atom_site_fract_y
_atom_site_fract_z
_atom_type_partial_charge
O1    O     O_R   0.584770 0.505770 0.002090 -0.537863
O2    O     O_R   0.415230 0.005770 0.997910 -0.537909
O3    O     O_R   0.467060 0.173340 0.861950 -0.526571
O4    O     O_R   0.532940 0.673340 0.138050 -0.526397
C1    C     C_R   0.455287 0.344377 0.825945 0.757085
C2    C     C_R   0.544710 0.844386 0.174055 0.757027
O5    O     O_R   0.587510 0.175890 0.993210 -0.554719
O6    O     O_R   0.412490 0.675890 0.006790 -0.554653
O7    O     O_R   0.536540 0.008150 0.130100 -0.541610
O8    O     O_R   0.463460 0.508150 0.869900 -0.541563
C3    C     C_R   0.613607 0.345494 0.000225 0.629253
C4    C     C_R   0.386393 0.845484 0.999773 0.629198
O9    O     O_3   0.483140 0.340040 0.044760 -0.384375
O10   O     O_3   0.516860 0.840040 0.955240 -0.384461
V1    V     V_3+5 0.503130 0.064190 0.991700 1.459156
V2    V     V_3+5 0.496870 0.564190 0.008300 1.459518
C5    C     C_2   0.214952 0.730519 0.006047 -0.078211
C6    C     C_2   0.785044 0.230505 0.993965 -0.078299
C7    C     C_2   0.181729 0.887873 0.007069 -0.232731
C8    C     C_2   0.818272 0.387854 0.992929 -0.232686
H1    H     H_    0.191309 0.596996 0.001801 0.127418
H2    H     H_    0.808682 0.096983 0.998223 0.127396
H3    H     H_    0.205761 0.020372 0.018953 0.148861
H4    H     H_    0.794243 0.520347 0.981032 0.148890
C9    C     C_2   0.284809 0.727169 0.018065 -0.232204
C10   C     C_2   0.715186 0.227162 0.981946 -0.232280
C11   C     C_2   0.316726 0.862661 0.987994 0.330893
C12   C     C_2   0.683274 0.362683 0.011999 0.330963
H5    H     H_    0.310425 0.604922 0.051785 0.090671
H6    H     H_    0.689566 0.104895 0.948240 0.090656
C13   C     C_R   0.926622 0.888325 0.724027 -0.155267
C14   C     C_R   0.073365 0.388454 0.275983 -0.155295
C15   C     C_R   0.573324 0.853863 0.275413 -0.108190
C16   C     C_R   0.426664 0.353812 0.724586 -0.108285
C17   C     C_R   0.935978 0.922153 0.567731 -0.220751
C18   C     C_R   0.064050 0.423721 0.432233 -0.220753
C19   C     C_R   0.964214 0.914768 0.664127 0.611444
C20   C     C_R   0.035803 0.415840 0.335850 0.611497
C21   C     C_R   0.860715 0.869692 0.687541 -0.314022
C22   C     C_R   0.139256 0.369411 0.312495 -0.314089
C23   C     C_R   0.830493 0.884124 0.590031 0.121630
C24   C     C_R   0.169495 0.384444 0.409979 0.121627
C25   C     C_R   0.869745 0.908325 0.530385 0.037839
C26   C     C_R   0.130270 0.409536 0.469593 0.037837
C27   C     C_R   0.762908 0.878339 0.550010 0.012306
C28   C     C_R   0.237075 0.378433 0.449998 0.012300
C29   C     C_R   0.736199 0.882531 0.450495 0.057154
C30   C     C_R   0.263799 0.383144 0.549503 0.057161
C31   C     C_R   0.777362 0.914673 0.394966 -0.068284
C32   C     C_R   0.222669 0.416135 0.604990 -0.068276
C33   C     C_R   0.842649 0.925019 0.434092 -0.157444
C34   C     C_R   0.157388 0.426797 0.565856 -0.157512
C35   C     C_R   0.721236 0.877758 0.606271 -0.267528
C36   C     C_R   0.278735 0.377184 0.393730 -0.267636
C37   C     C_R   0.655412 0.878990 0.567314 0.465371
C38   C     C_R   0.344561 0.378090 0.432672 0.465409
C39   C     C_R   0.628829 0.878035 0.469661 -0.027743
C40   C     C_R   0.371157 0.377437 0.530322 -0.027783
C41   C     C_R   0.668852 0.867928 0.410126 -0.089040
C42   C     C_R   0.331135 0.368167 0.589880 -0.089062
C43   C     C_R   0.562372 0.885507 0.430703 -0.121250
C44   C     C_R   0.437623 0.384369 0.569254 -0.121334
C45   C     C_R   0.535052 0.878166 0.334195 -0.288125
C46   C     C_R   0.464952 0.377263 0.665764 -0.288459
C47   C     C_R   0.639374 0.842093 0.312606 0.563020
C48   C     C_R   0.360597 0.342681 0.687428 0.563147
H7    H     H_    0.872178 0.950120 0.388463 0.156291
H8    H     H_    0.127885 0.452591 0.611450 0.156357
H9    H     H_    0.483886 0.886846 0.305402 0.127632
H10   H     H_    0.516129 0.385478 0.694528 0.127979
H11   H     H_    0.965863 0.942439 0.522208 0.158361
H12   H     H_    0.034187 0.444740 0.477727 0.158365
H13   H     H_    0.834651 0.846057 0.737443 0.119673
H14   H     H_    0.165302 0.345069 0.262634 0.119745
H15   H     H_    0.760428 0.944190 0.321164 0.204879
H16   H     H_    0.239637 0.446105 0.678743 0.204891
H17   H     H_    0.737979 0.885106 0.681547 0.136153
H18   H     H_    0.261987 0.384272 0.318446 0.136152
H19   H     H_    0.531161 0.897908 0.474706 0.172810
H20   H     H_    0.468838 0.396111 0.525224 0.172931
O11   O     O_R   0.036450 0.233070 0.130130 -0.543789
O12   O     O_R   0.963550 0.733070 0.869870 -0.543746
O13   O     O_R   0.912470 0.560570 0.006790 -0.542332
O14   O     O_R   0.087530 0.060570 0.993210 -0.542376
C49   C     C_R   0.886755 0.391958 0.000505 0.735077
C50   C     C_R   0.113245 0.891966 0.999495 0.735094
O15   O     O_R   0.032920 0.562940 0.138050 -0.534534
O16   O     O_R   0.967080 0.062940 0.861950 -0.534619
O17   O     O_R   0.084790 0.730500 0.002090 -0.543312
O18   O     O_R   0.915210 0.230500 0.997910 -0.543340
C51   C     C_R   0.044994 0.394533 0.174487 0.771385
C52   C     C_R   0.955006 0.894516 0.825515 0.771453
O19   O     O_3   0.016820 0.396170 0.955260 -0.381439
O20   O     O_3   0.983180 0.896170 0.044740 -0.381435
V3    V     V_3+5 0.996880 0.672090 0.008300 1.475515
V4    V     V_3+5 0.003120 0.172090 0.991700 1.475299
F1    F     F_    0.028147 0.934420 0.699107 -0.682044
F2    F     F_    0.971893 0.435984 0.300844 -0.682030
O21   O     O_3   0.282233 0.003579 0.931422 -0.524553
C53   C     C_3   0.299695 0.180860 0.971784 -0.102678
H21   H     H_    0.334556 0.247087 0.941008 0.197148
H22   H     H_    0.318269 0.178388 0.049804 0.056971
H23   H     H_    0.256938 0.271006 0.953334 0.136641
O22   O     O_3   0.717771 0.503636 0.068556 -0.524470
C54   C     C_3   0.700307 0.680891 0.028179 -0.102731
H24   H     H_    0.665452 0.747130 0.058960 0.197035
H25   H     H_    0.681726 0.678376 0.950161 0.056916
H26   H     H_    0.743066 0.771052 0.046611 0.136516
F3    F     F_    0.672775 0.790930 0.253146 -0.713050
F4    F     F_    0.327147 0.292365 0.746956 -0.713212
O23   O     O_3   0.616954 0.892170 0.625783 -0.555672
C55   C     C_3   0.609915 0.713418 0.660202 -0.276875
H27   H     H_    0.588600 0.614618 0.602060 0.144257
H28   H     H_    0.577100 0.722932 0.704109 0.168314
H29   H     H_    0.656028 0.658851 0.705280 0.133207
O24   O     O_3   0.383013 0.390652 0.374176 -0.555624
C56   C     C_3   0.389892 0.211677 0.339892 -0.276983
H30   H     H_    0.411262 0.113119 0.398112 0.144259
H31   H     H_    0.422588 0.220774 0.295786 0.168219
H32   H     H_    0.343704 0.157108 0.295040 0.133250

loop_
_geom_bond_atom_site_label_1
_geom_bond_atom_site_label_2
_ccdc_geom_bond_type
C40   C44   A    
O16   V4    S    
O4    V2    S    
O15   C51   A    
C35   H17   S    
O23   C55   S    
C6    C10   S    
C20   F2    S    
C7    C50   S    
O2    C4    A    
C16   C48   A    
C2    O7    A    
C19   F1    S    
C15   C47   A    
C29   C31   A    
O5    C3    A    
C54   H25   S    
C11   O21   S    
C44   H20   S    
C17   C19   A    
O14   C50   A    
C56   H31   S    
C24   C28   A    
C39   C41   A    
C14   C51   S    
C40   C42   A    
O12   C52   A    
O24   C56   S    
O14   V4    S    
C27   C29   A    
C43   C45   A    
C8    H4    S    
O22   C54   S    
C44   C46   A    
C45   H9    S    
C22   H14   S    
C31   C33   A    
O15   V3    S    
C32   C34   A    
C31   H15   S    
C46   H10   S    
C17   C25   A    
C34   H8    S    
C15   C45   A    
C26   C34   A    
C30   C32   A    
C42   C48   A    
O6    V2    S    
C1    C16   S    
C23   C25   A    
C24   C26   A    
C55   H28   S    
C55   H27   S    
C30   C42   A    
C28   C30   A    
C35   C37   A    
C9    H5    S    
C54   H26   S    
C36   C38   A    
C4    C11   S    
O16   C52   A    
C21   C23   A    
C56   H32   S    
O11   V4    S    
C27   C35   A    
C53   H23   S    
C5    H1    S    
C13   C19   A    
O17   V3    S    
C7    H3    S    
C32   H16   S    
C12   O22   S    
O21   C53   S    
O6    C4    A    
O13   V3    S    
C8    C49   S    
C28   C36   A    
C16   C46   A    
C38   O24   S    
O1    V2    S    
C33   H7    S    
C48   F4    S    
C39   C43   A    
O2    V1    S    
C47   F3    S    
C21   H13   S    
O4    C2    A    
O13   C49   A    
C10   H6    S    
O19   V4    S    
C14   C20   A    
C37   C39   A    
C18   C26   A    
O3    V1    S    
C53   H22   S    
O12   V3    S    
C37   O23   S    
C6    H2    S    
C22   C24   A    
O3    C1    A    
C50   O17   A    
C49   O18   A    
O18   V4    S    
C9    C11   D    
C54   H24   S    
C10   C12   D    
C2    C15   S    
C5    C9    S    
C18   C20   A    
O7    V1    S    
C1    O8    A    
C17   H11   S    
O8    V2    S    
C56   H30   S    
C41   C47   A    
C25   C33   A    
C3    C12   S    
C43   H19   S    
O5    V1    S    
C53   H21   S    
C5    C7    D    
C38   C40   A    
C6    C8    D    
C14   C22   A    
O20   V3    S    
C29   C41   A    
O11   C51   A    
C13   C52   S    
O9    V2    S    
C13   C21   A    
C23   C27   A    
O10   V1    S    
O1    C3    A    
C55   H29   S    
C18   H12   S    
C36   H18   S    
