data_mof_unit_26082.cif
_audit_creation_date              2012-12-11T15:41:29-0500
_audit_creation_method            fapswitch 2.2
_symmetry_space_group_name_H-M    P1
_symmetry_Int_Tables_number       1
_space_group_crystal_system       triclinic
_cell_length_a                    14.958888
_cell_length_b                    15.020639
_cell_length_c                    14.911548
_cell_angle_alpha                 108.966126
_cell_angle_beta                  110.031864
_cell_angle_gamma                 109.682955
_cell_volume                      2570.50497119

loop_
_atom_site_label
_atom_site_type_symbol
_atom_type_description
_atom_site_fract_x
_atom_site_fract_y
_atom_site_fract_z
_atom_type_partial_charge
C1    C     C_R   0.245211 0.059689 0.967544 -0.122262
C2    C     C_R   0.898708 0.836132 0.181885 -0.378513
C3    C     C_R   0.305043 0.200324 0.670326 -0.233854
C4    C     C_R   0.787394 0.759421 0.129755 -0.227761
C5    C     C_R   0.309004 0.282503 0.753627 0.164912
C6    C     C_R   0.729034 0.678523 0.018223 0.184334
C7    C     C_R   0.211003 0.266205 0.755643 0.043727
C8    C     C_R   0.785622 0.676221 0.959667 0.011465
C9    C     C_R   0.111240 0.170123 0.673548 -0.338532
C10   C     C_R   0.898272 0.751748 0.013230 -0.274167
C11   C     C_R   0.107895 0.088587 0.590987 0.622073
C12   C     C_R   0.806452 0.010264 0.100986 -0.155567
C13   C     C_R   0.956876 0.831894 0.124524 0.630107
C14   C     C_R   0.420855 0.480409 0.829931 0.484256
C15   C     C_R   0.609383 0.495375 0.978290 0.495539
C16   C     C_R   0.746753 0.220784 0.314192 -0.105093
C17   C     C_R   0.196844 0.788149 0.697165 -0.136632
C18   C     C_R   0.516411 0.582450 0.907959 -0.199714
C19   C     C_R   0.507721 0.395220 0.914757 -0.172757
C20   C     C_R   0.615456 0.586255 0.968883 -0.160006
C21   C     C_R   0.414640 0.386819 0.834675 -0.152947
C22   C     C_R   0.867439 0.523192 0.429727 -0.178529
C23   C     C_R   0.772093 0.322907 0.325541 0.038482
C24   C     C_R   0.972159 0.515958 0.619306 -0.171842
C25   C     C_R   0.964174 0.614707 0.519315 -0.174220
C26   C     C_R   0.877141 0.424045 0.528535 -0.156241
C27   C     C_R   0.021672 0.608618 0.611466 0.140878
C28   C     C_R   0.832328 0.424368 0.429521 0.144351
C29   C     C_R   0.598507 0.942788 0.571422 -0.174514
C30   C     C_R   0.399281 0.844298 0.377665 -0.176732
C31   C     C_R   0.598854 0.941292 0.478232 -0.172543
C32   C     C_R   0.399039 0.846060 0.470878 -0.168394
C33   C     C_R   0.499371 0.901852 0.384376 0.142478
C34   C     C_R   0.135521 0.693201 0.694000 0.050653
C35   C     C_R   0.498810 0.906210 0.571078 0.143057
C36   C     C_R   0.021426 0.966687 0.972105 0.608698
C37   C     C_R   0.067935 0.158674 0.143837 0.574987
C38   C     C_R   0.937355 0.975144 0.986170 -0.450962
C39   C     C_R   0.153881 0.148189 0.135411 -0.434473
C40   C     C_R   0.408492 0.905796 0.208911 -0.153985
C41   C     C_R   0.591767 0.026675 0.777689 -0.126272
C42   C     C_R   0.961093 0.069947 0.070593 -0.070408
C43   C     C_R   0.129560 0.052086 0.050909 -0.015169
C44   C     C_R   0.590836 0.295535 0.991373 -0.139736
C45   C     C_R   0.499951 0.935074 0.302646 0.053569
C46   C     C_R   0.410749 0.686275 0.933226 -0.104282
C47   C     C_R   0.591450 0.996309 0.300720 -0.139795
C48   C     C_R   0.407303 0.934543 0.685205 -0.124827
C49   C     C_R   0.409281 0.212437 0.910414 -0.150304
C50   C     C_R   0.592386 0.783738 0.015249 -0.170581
C51   C     C_R   0.748000 0.313270 0.222854 -0.143475
C52   C     C_R   0.198776 0.697759 0.789518 -0.125222
C53   C     C_R   0.244782 0.967245 0.059544 -0.057134
C54   C     C_R   0.804956 0.098238 0.007254 -0.171481
C55   C     C_R   0.215960 0.040186 0.040215 0.104561
C56   C     C_R   0.499224 0.949669 0.674340 0.035827
C57   C     C_R   0.869098 0.073592 0.073642 0.182963
C58   C     C_1   0.211390 0.346219 0.841976 0.083606
C59   C     C_1   0.730259 0.594882 0.845277 0.050876
C60   C     C_3   0.348381 0.486840 0.672428 0.254479
C61   C     C_3   0.245816 0.473316 0.586559 -0.836764
C62   C     C_3   0.737747 0.550579 0.154262 0.285039
C63   C     C_3   0.862647 0.604489 0.223455 -0.919571
C64   C     C_3   0.908177 0.832147 0.787453 0.223813
C65   C     C_3   0.912991 0.757059 0.694929 -0.863458
C66   C     C_3   0.099855 0.330864 0.191831 0.260939
C67   C     C_R   0.501471 0.305006 0.938132 0.132709
C68   C     C_3   0.081023 0.416054 0.258646 -0.876055
C69   C     C_3   0.995167 0.908137 0.523006 0.242400
C70   C     C_3   0.873329 0.822554 0.457399 -0.925662
C71   C     C_3   0.127379 0.968527 0.285205 0.252663
C72   C     C_3   0.250013 0.029755 0.326271 -0.905877
C73   C     C_R   0.505206 0.680004 0.943595 0.134315
C74   C     C_R   0.205204 0.103813 0.589797 -0.316765
H1    H     H_    0.225704 0.105257 0.928658 0.091146
H2    H     H_    0.010495 0.509705 0.691112 0.119055
H3    H     H_    0.996566 0.686874 0.512800 0.105691
H4    H     H_    0.847141 0.350719 0.533747 0.110974
H5    H     H_    0.677005 0.982823 0.645715 0.105488
H6    H     H_    0.320636 0.806954 0.304543 0.112837
H7    H     H_    0.677579 0.980390 0.484213 0.114177
H8    H     H_    0.320362 0.810160 0.465883 0.109572
H9    H     H_    0.756105 0.197867 0.376776 0.093693
H10   H     H_    0.167579 0.818906 0.644134 0.072367
H11   H     H_    0.852912 0.908559 0.931984 0.151323
H12   H     H_    0.834818 0.983623 0.158609 0.124732
H13   H     H_    0.238287 0.213931 0.193465 0.164983
H14   H     H_    0.323989 0.845929 0.175421 0.095047
H15   H     H_    0.677127 0.059395 0.800161 0.092871
H16   H     H_    0.671977 0.334336 0.002805 0.170904
H17   H     H_    0.326325 0.620450 0.883885 0.154288
H18   H     H_    0.675735 0.019807 0.352524 0.096530
H19   H     H_    0.321689 0.881922 0.621814 0.091466
H20   H     H_    0.323831 0.184266 0.859078 0.105099
H21   H     H_    0.672751 0.813410 0.026609 0.133013
H22   H     H_    0.760401 0.376195 0.201223 0.102195
H23   H     H_    0.203118 0.041541 0.525668 0.130767
H24   H     H_    0.172495 0.646611 0.822641 0.093873
H25   H     H_    0.225172 0.928136 0.104854 0.144112
H26   H     H_    0.831557 0.152387 0.976896 0.092186
H27   H     H_    0.366804 0.424900 0.630653 0.102693
H28   H     H_    0.417952 0.570115 0.708286 0.097088
H29   H     H_    0.260848 0.485461 0.522461 0.207791
H30   H     H_    0.174986 0.390158 0.547334 0.267441
H31   H     H_    0.225656 0.534495 0.625609 0.249907
H32   H     H_    0.697623 0.487158 0.171979 0.080827
H33   H     H_    0.712335 0.611282 0.179943 0.075904
H34   H     H_    0.937628 0.897223 0.266952 0.166178
H35   H     H_    0.903925 0.655890 0.194999 0.278836
H36   H     H_    0.892173 0.657060 0.311105 0.212862
H37   H     H_    0.886859 0.541368 0.215740 0.242308
H38   H     H_    0.902780 0.898205 0.771326 0.086766
H39   H     H_    0.832739 0.782699 0.786100 0.108824
H40   H     H_    0.915031 0.688688 0.707412 0.265499
H41   H     H_    0.838882 0.723267 0.614874 0.211925
H42   H     H_    0.987948 0.802896 0.693745 0.247139
H43   H     H_    0.039203 0.294914 0.103151 0.065950
H44   H     H_    0.184695 0.371696 0.206119 0.101275
H45   H     H_    0.379153 0.211593 0.667243 0.153211
H46   H     H_    0.142295 0.457373 0.347429 0.254782
H47   H     H_    0.089752 0.478036 0.232114 0.206181
H48   H     H_    0.996759 0.376673 0.245867 0.259172
H49   H     H_    0.025653 0.930341 0.611118 0.081639
H50   H     H_    0.040196 0.872383 0.492887 0.086944
H51   H     H_    0.839258 0.799162 0.369258 0.259842
H52   H     H_    0.861749 0.748983 0.464960 0.212608
H53   H     H_    0.827606 0.855608 0.488998 0.257923
H54   H     H_    0.114635 0.917223 0.324377 0.090994
H55   H     H_    0.102211 0.029925 0.310341 0.128296
H56   H     H_    0.745469 0.764757 0.176059 0.143378
H57   H     H_    0.266566 0.081617 0.288650 0.263374
H58   H     H_    0.296721 0.082689 0.417113 0.219013
H59   H     H_    0.278796 0.971094 0.304671 0.247991
H60   H     H_    0.035596 0.158058 0.673546 0.147862
H61   H     H_    0.941727 0.747448 0.968346 0.184081
H62   H     H_    0.827008 0.527066 0.357212 0.117603
N1    N     N_R   0.293810 0.002730 0.945950 -0.041963
N2    N     N_R   0.443210 0.997250 0.791090 -0.038729
N3    N     N_R   0.443180 0.152110 0.945950 -0.044478
N4    N     N_R   0.556820 0.847890 0.054050 -0.043260
N5    N     N_R   0.706170 0.208950 0.152090 -0.037466
N6    N     N_R   0.293830 0.791050 0.847910 -0.040854
N7    N     N_R   0.293800 0.945910 0.002760 -0.050204
N8    N     N_R   0.706200 0.054090 0.997240 -0.041250
N9    N     N_1   0.211817 0.410417 0.911177 -0.108219
N10   N     N_1   0.685783 0.529699 0.753561 -0.097335
N11   N     N_R   0.706190 0.997270 0.054050 -0.049824
N12   N     N_R   0.706160 0.152130 0.208910 -0.037239
N13   N     N_R   0.293840 0.847870 0.791090 -0.037626
N14   N     N_R   0.443140 0.945920 0.152090 -0.041238
N15   N     N_R   0.556860 0.054080 0.847910 -0.039617
N16   N     N_R   0.556830 0.208940 0.002760 -0.054372
N17   N     N_R   0.443170 0.791060 0.997240 -0.053751
N18   N     N_R   0.556790 0.002750 0.208910 -0.038869
Ni1   Ni    Ni4+2 0.369690 0.999990 0.869700 0.209715
Ni2   Ni    Ni4+2 0.630310 0.000010 0.130300 0.218626
Ni3   Ni    Ni4+2 0.369670 0.869670 0.000000 0.216214
Ni4   Ni    Ni4+2 0.630330 0.130330 0.000000 0.210963
O1    O     O_3   0.328747 0.472048 0.753961 -0.640246
O2    O     O_3   0.707336 0.503417 0.041936 -0.643084
O3    O     O_3   0.003140 0.874154 0.888566 -0.640034
O4    O     O_3   0.087664 0.252115 0.225827 -0.627126
O5    O     O_3   0.007271 0.998168 0.507070 -0.643531
O6    O     O_3   0.068623 0.903403 0.169392 -0.652383

loop_
_geom_bond_atom_site_label_1
_geom_bond_atom_site_label_2
_ccdc_geom_bond_type
N2    Ni1   S    
C70   H53   S    
C66   C68   S    
N14   Ni3   S    
C33   C45   S    
C65   H40   S    
C14   C18   A    
C54   N8    A    
C60   O1    S    
C39   H13   S    
C58   N9    T    
C44   H16   S    
C53   H25   S    
C15   C19   A    
C66   O4    S    
C44   N16   A    
C72   H57   S    
C25   H3    S    
C14   C21   A    
C19   C21   A    
C24   C26   A    
C38   C42   A    
C8    C59   S    
C50   N4    A    
C50   H21   S    
C64   H38   S    
C69   H49   S    
N3    N16   A    
N1    Ni1   S    
C48   C56   A    
C47   H18   S    
C52   H24   S    
C37   C42   A    
C3    C74   A    
C2    C13   A    
N5    N12   A    
C51   N5    A    
C66   H43   S    
C24   C27   A    
C19   C67   S    
C49   H20   S    
C61   H31   S    
C7    C58   S    
N18   Ni2   S    
N4    N17   A    
C30   H6    S    
C9    H60   S    
C70   H52   S    
C53   C55   A    
N1    N7    A    
N6    N13   A    
C10   C13   A    
C22   C28   A    
N17   Ni3   S    
C65   H41   S    
C54   H26   S    
C15   C20   A    
N8    N11   A    
C60   H28   S    
C42   C57   S    
C11   O5    S    
N7    Ni3   S    
C74   H23   S    
C45   C47   A    
C27   C34   S    
C40   C45   A    
N16   Ni4   S    
C48   H19   S    
C38   H11   S    
C1    H1    S    
C32   C35   A    
C61   H30   S    
C10   H61   S    
C4    C6    A    
C71   O6    S    
C50   C73   A    
C68   H48   S    
C5    C7    A    
C24   H2    S    
C4    H56   S    
C62   H33   S    
C69   H50   S    
C22   C25   A    
C16   H9    S    
C52   N6    A    
C22   H62   S    
C60   C61   S    
C53   N7    A    
C63   H35   S    
C2    C4    A    
N15   Ni4   S    
C41   C56   A    
C62   C63   S    
C71   H55   S    
C23   C51   A    
C29   H5    S    
N3    Ni1   S    
C31   C33   A    
C36   C43   A    
C40   N14   A    
C26   H4    S    
C23   C28   S    
N11   Ni2   S    
C9    C11   A    
C3    H45   S    
N4    Ni2   S    
C62   H32   S    
C12   C57   A    
C6    C8    A    
C70   H51   S    
C43   C55   S    
C18   C73   S    
C49   N3    A    
C66   H44   S    
C36   O3    S    
C65   H42   S    
C62   O2    S    
C71   H54   S    
C25   C27   A    
C17   C34   A    
N6    Ni3   S    
N8    Ni4   S    
C60   H27   S    
C1    N1    A    
C12   N11   A    
C13   O6    S    
C7    C9    A    
C46   N17   A    
C29   C35   A    
C64   H39   S    
C49   C67   A    
C30   C33   A    
C61   H29   S    
C41   H15   S    
C34   C52   A    
C8    C10   A    
C17   N13   A    
C69   O5    S    
C64   O3    S    
C3    C5    A    
C11   C74   A    
C68   H47   S    
C35   C56   S    
C39   C43   A    
C41   N15   A    
C47   N18   A    
C12   H12   S    
N2    N15   A    
C16   C23   A    
C32   H8    S    
C51   H22   S    
C26   C28   A    
C31   H7    S    
C48   N2    A    
C14   O1    S    
C16   N12   A    
C17   H10   S    
C64   C65   S    
C40   H14   S    
C63   H36   S    
C36   C38   A    
N13   Ni1   S    
C71   C72   S    
C29   C31   A    
C68   H46   S    
C72   H58   S    
C30   C32   A    
C72   H59   S    
C6    C20   S    
C2    H34   S    
C1    C55   A    
C18   C20   A    
C63   H37   S    
C69   C70   S    
C59   N10   T    
N5    Ni4   S    
C15   O2    S    
C5    C21   S    
C37   C39   A    
N14   N18   A    
C44   C67   A    
N12   Ni2   S    
C46   H17   S    
C46   C73   A    
C37   O4    S    
C54   C57   A    
