data_mof_unit_32302.cif
_audit_creation_date              2012-10-26T19:58:18-0400
_audit_creation_method            fapswitch 2.2
_symmetry_space_group_name_H-M    P1
_symmetry_Int_Tables_number       1
_space_group_crystal_system       triclinic
_cell_length_a                    7.430725
_cell_length_b                    8.712041
_cell_length_c                    13.376986
_cell_angle_alpha                 93.806118
_cell_angle_beta                  77.370237
_cell_angle_gamma                 103.026038
_cell_volume                      823.151421412

loop_
_atom_site_label
_atom_site_type_symbol
_atom_type_description
_atom_site_fract_x
_atom_site_fract_y
_atom_site_fract_z
_atom_type_partial_charge
C1    C     C_R   0.547695 0.799588 0.498708 0.539922
C2    C     C_R   0.336588 0.492425 0.806209 0.001048
C3    C     C_2   0.581949 0.966476 0.487561 0.230281
C4    C     C_R   0.397872 0.487250 0.694189 0.579688
C5    C     C_2   0.434108 0.032601 0.492874 -0.143330
C6    C     C_R   0.456532 0.200062 0.495052 0.572419
C7    C     C_R   0.601172 0.507185 0.305811 0.520612
C8    C     C_R   0.808172 0.352311 0.049465 -0.127910
C9    C     C_R   0.656295 0.489587 0.194602 -0.004201
C10   C     C_R   0.195976 0.575791 0.847363 -0.152686
C11   C     C_R   0.168035 0.622803 0.949521 -0.141498
C12   C     C_R   0.423946 0.503859 0.973412 -0.012849
C13   C     C_R   0.282507 0.590989 0.011509 -0.122691
C14   C     C_3   0.403745 0.107246 0.775407 -0.112134
C15   C     C_3   0.859690 0.046129 0.374408 -0.113002
C16   C     C_R   0.440440 0.443532 0.871120 0.016738
C17   C     C_R   0.548899 0.474190 0.033431 0.010653
C18   C     C_R   0.683500 0.382041 0.991552 -0.006018
C19   C     C_R   0.685779 0.312871 0.894613 -0.112711
C20   C     C_R   0.559077 0.335081 0.836970 0.272150
C21   C     C_R   0.541862 0.529979 0.134921 -0.125859
C22   C     C_R   0.794658 0.405867 0.150696 -0.139463
Cu1   Cu    Cu3+1 0.321300 0.483160 0.488710 0.953138
Cu2   Cu    Cu3+1 0.678700 0.516840 0.511290 1.015087
H1    H     H_    0.883268 0.372871 0.196356 0.110135
H2    H     H_    0.291497 0.961989 0.498985 0.091789
H3    H     H_    0.262776 0.137502 0.800695 0.103438
H4    H     H_    0.432614 0.039071 0.835492 0.108699
H5    H     H_    0.399105 0.029306 0.706756 0.139100
H6    H     H_    0.793801 0.102883 0.323866 0.087594
H7    H     H_    0.862975 0.922688 0.348047 0.119850
H8    H     H_    0.008386 0.111362 0.366967 0.140951
H9    H     H_    0.009894 0.615363 0.580487 0.235631
H10   H     H_    0.990484 0.386005 0.418910 0.242512
H11   H     H_    0.780585 0.234679 0.864895 0.129501
H12   H     H_    0.911399 0.282308 0.017617 0.112470
H13   H     H_    0.441998 0.598790 0.172178 0.111077
H14   H     H_    0.114391 0.612587 0.799055 0.124934
H15   H     H_    0.254549 0.635607 0.088979 0.105782
H16   H     H_    0.060742 0.689267 0.980217 0.125642
N1    N     N_2   0.947230 0.542220 0.528320 -0.244977
N2    N     N_2   0.052770 0.457780 0.471680 -0.239333
O1    O     O_R   0.383920 0.714220 0.492660 -0.549340
O2    O     O_3   0.765713 0.053951 0.477799 -0.521858
O3    O     O_R   0.685730 0.742660 0.511730 -0.478961
O4    O     O_R   0.275440 0.478800 0.636790 -0.510076
O5    O     O_R   0.577250 0.507240 0.655860 -0.456898
O6    O     O_R   0.314270 0.257340 0.488270 -0.502360
O7    O     O_R   0.616080 0.285780 0.507340 -0.415750
O8    O     O_R   0.422750 0.492760 0.344140 -0.512473
O9    O     O_R   0.724560 0.521200 0.363210 -0.525747
O10   O     O_3   0.547254 0.243562 0.749201 -0.528717

loop_
_geom_bond_atom_site_label_1
_geom_bond_atom_site_label_2
_ccdc_geom_bond_type
C12   C17   A    
C8    C22   A    
Cu1   Cu2   S    
C15   H7    S    
C14   H3    S    
C2    C16   A    
N1    N2    D    
C2    C4    S    
C19   C20   A    
H10   N2    S    
C16   C20   A    
C10   H14   S    
H9    N1    S    
Cu2   O9    S    
C17   C18   A    
C7    O9    A    
C15   H8    S    
C20   O10   S    
Cu1   O4    S    
C4    O4    A    
Cu2   N1    S    
C11   C13   A    
C1    O3    A    
C11   H16   S    
Cu1   N2    S    
C6    O6    A    
Cu2   O3    S    
C14   O10   S    
C21   H13   S    
C15   O2    S    
C6    O7    A    
C5    C6    S    
C3    O2    S    
C17   C21   A    
C9    C22   A    
C13   H15   S    
C10   C11   A    
C14   H5    S    
C5    H2    S    
C9    C21   A    
C3    C5    D    
Cu1   O1    S    
C12   C13   A    
C15   H6    S    
C18   C19   A    
C8    H12   S    
Cu2   O7    S    
C7    C9    S    
C4    O5    A    
Cu1   O8    S    
C19   H11   S    
Cu1   O6    S    
C14   H4    S    
Cu2   O5    S    
C1    O1    A    
C8    C18   A    
C12   C16   A    
C7    O8    A    
C1    C3    S    
C22   H1    S    
C2    C10   A    
