data_mof_unit_55447.cif
_audit_creation_date              2012-10-26T20:03:45-0400
_audit_creation_method            fapswitch 2.2
_symmetry_space_group_name_H-M    P1
_symmetry_Int_Tables_number       1
_space_group_crystal_system       triclinic
_cell_length_a                    12.327541
_cell_length_b                    13.163006
_cell_length_c                    15.83578
_cell_angle_alpha                 77.765221
_cell_angle_beta                  101.155527
_cell_angle_gamma                 116.569498
_cell_volume                      2231.69938359

loop_
_atom_site_label
_atom_site_type_symbol
_atom_type_description
_atom_site_fract_x
_atom_site_fract_y
_atom_site_fract_z
_atom_type_partial_charge
C1    C     C_R   0.854870 0.286421 0.507726 0.528790
C2    C     C_R   0.228060 0.834740 0.470061 -0.000954
C3    C     C_R   0.815406 0.085192 0.566113 -0.136089
C4    C     C_R   0.999555 0.499862 0.659963 0.548862
C5    C     C_R   0.736957 0.969301 0.584449 -0.011768
C6    C     C_R   0.613134 0.932245 0.552971 -0.126216
C7    C     C_R   0.566833 0.008976 0.500565 0.017393
C8    C     C_R   0.650471 0.123028 0.474233 0.018976
C9    C     C_R   0.440218 0.975901 0.472567 0.029635
C10   C     C_R   0.401124 0.053007 0.412515 0.051832
C11   C     C_R   0.486771 0.159639 0.379531 -0.138382
C12   C     C_3   0.999236 0.501219 0.916869 0.049753
C13   C     C_R   0.609651 0.193485 0.408764 -0.118151
C14   C     C_R   0.350781 0.868607 0.502786 -0.135376
C15   C     C_R   0.190424 0.912279 0.412395 -0.135591
C16   C     C_R   0.145070 0.713467 0.487586 0.547372
C17   C     C_R   0.773064 0.163062 0.513374 -0.018268
C18   C     C_R   0.345166 0.326779 0.636953 -0.146964
C19   C     C_R   0.760879 0.647107 0.384346 0.051795
C20   C     C_R   0.665172 0.679848 0.359408 -0.163887
C21   C     C_R   0.561122 0.624241 0.402798 -0.145397
C22   C     C_R   0.551725 0.534864 0.472349 -0.012648
C23   C     C_3   0.115543 0.551995 0.035854 -0.096908
C24   C     C_R   0.652607 0.504654 0.495847 0.171382
C25   C     C_R   0.447001 0.475081 0.519803 -0.013802
C26   C     C_R   0.445759 0.386923 0.589389 0.037651
C27   C     C_R   0.545017 0.359387 0.611512 -0.176484
C28   C     C_R   0.000512 0.500338 0.339976 0.546431
C29   C     C_R   0.646165 0.417183 0.566104 -0.107967
C30   C     C_R   0.342571 0.498433 0.501640 0.041609
C31   C     C_R   0.245734 0.353932 0.615806 0.044802
C32   C     C_3   0.946583 0.392866 0.038945 -0.099462
C33   C     C_3   0.883978 0.450986 0.963287 -0.103367
C34   C     C_3   0.000308 0.501687 0.082337 0.053595
C35   C     C_1   0.999026 0.500195 0.749618 -0.042705
C36   C     C_1   0.001149 0.500793 0.250125 -0.037528
C37   C     C_3   0.061831 0.443139 0.990979 -0.096729
C38   C     C_R   0.783208 0.887407 0.639809 0.034685
C39   C     C_R   0.864260 0.918063 0.715631 -0.096685
C40   C     C_R   0.906496 0.840401 0.768122 -0.116266
C41   C     C_R   0.868483 0.731591 0.745641 -0.102857
C42   C     C_R   0.788444 0.700257 0.670503 -0.095176
C43   C     C_R   0.745873 0.777524 0.617715 -0.092384
C44   C     C_3   0.052920 0.610101 0.960179 -0.104920
C45   C     C_3   0.937679 0.559833 0.008214 -0.103404
C46   C     C_1   0.998963 0.500585 0.825190 -0.075546
C47   C     C_1   0.000974 0.501316 0.174316 -0.065617
C48   C     C_R   0.276649 0.021401 0.384252 -0.131183
Cu1   Cu    Cu3+1 0.098270 0.475420 0.519690 0.929518
Cu2   Cu    Cu3+1 0.901730 0.524580 0.480310 0.911726
H1    H     H_    0.788988 0.409639 0.932014 0.101819
H2    H     H_    0.841366 0.690858 0.350370 0.124489
H3    H     H_    0.902954 0.303708 0.072647 0.102417
H4    H     H_    0.490002 0.653304 0.380847 0.100861
H5    H     H_    0.671692 0.748624 0.306291 0.101245
H6    H     H_    0.718072 0.391086 0.589443 0.184513
H7    H     H_    0.886761 0.607800 0.016580 0.103343
H8    H     H_    0.096323 0.699217 0.926330 0.099181
H9    H     H_    0.210580 0.593457 0.067015 0.103549
H10   H     H_    0.112758 0.395234 0.982504 0.102640
H11   H     H_    0.095511 0.887014 0.386313 0.120968
H12   H     H_    0.373729 0.808279 0.551246 0.119489
H13   H     H_    0.458717 0.217311 0.330761 0.107727
H14   H     H_    0.246471 0.079903 0.338311 0.106333
H15   H     H_    0.893388 0.001307 0.735058 0.094729
H16   H     H_    0.968270 0.864393 0.826546 0.099205
H17   H     H_    0.900803 0.671510 0.786583 0.117535
H18   H     H_    0.759357 0.615978 0.653312 0.131949
H19   H     H_    0.684706 0.751891 0.559343 0.114147
H20   H     H_    0.910059 0.115094 0.593905 0.124924
H21   H     H_    0.555602 0.842613 0.569980 0.099831
H22   H     H_    0.672073 0.274563 0.377419 0.151876
H23   H     H_    0.167617 0.307717 0.652138 0.117778
H24   H     H_    0.544951 0.292568 0.665067 0.109456
H25   H     H_    0.343508 0.259198 0.690183 0.090090
H26   H     H_    0.335418 0.563710 0.449883 0.119594
N1    N     N_R   0.246280 0.438200 0.549540 -0.232193
N2    N     N_R   0.754330 0.561180 0.450980 -0.234599
O1    O     O_R   0.972510 0.318130 0.524770 -0.502179
O2    O     O_R   0.806530 0.359650 0.491510 -0.524983
O3    O     O_R   0.082970 0.479240 0.637550 -0.492735
O4    O     O_R   0.916990 0.520750 0.604290 -0.518423
O5    O     O_R   0.193470 0.640350 0.508490 -0.508849
O6    O     O_R   0.027490 0.681870 0.475230 -0.501704
O7    O     O_R   0.083010 0.479250 0.395710 -0.494781
O8    O     O_R   0.917030 0.520760 0.362450 -0.506367

loop_
_geom_bond_atom_site_label_1
_geom_bond_atom_site_label_2
_ccdc_geom_bond_type
C18   H25   S    
C27   C29   A    
C33   C45   S    
C41   C42   A    
C19   C20   A    
C18   C26   A    
Cu2   O6    S    
C7    C8    A    
C41   H17   S    
C23   H9    S    
C45   H7    S    
C26   C27   A    
C8    C13   A    
C5    C6    A    
C11   H13   S    
C21   H4    S    
C48   H14   S    
C14   H12   S    
C16   O6    A    
C36   C47   T    
Cu1   O3    S    
C12   C37   S    
C24   C29   A    
C30   N1    A    
C19   H2    S    
C4    O3    A    
C44   H8    S    
C22   C25   A    
C27   H24   S    
C2    C16   S    
C9    C10   A    
C4    C35   S    
C43   H19   S    
C40   H16   S    
C5    C38   S    
C42   H18   S    
C39   H15   S    
C15   C48   A    
C20   H5    S    
Cu2   N2    S    
C31   N1    A    
C6    H21   S    
Cu1   O7    S    
C3    H20   S    
C12   C46   S    
C39   C40   A    
C25   C26   A    
C23   C37   S    
C16   O5    A    
C23   C44   S    
Cu1   O1    S    
C32   C34   S    
C19   N2    A    
C9    C14   A    
C30   H26   S    
C23   C34   S    
C15   H11   S    
C34   C45   S    
C32   C37   S    
C2    C15   A    
C24   N2    A    
C40   C41   A    
C13   H22   S    
C28   O8    A    
C1    O1    A    
C22   C24   A    
C42   C43   A    
C32   H3    S    
C44   C45   S    
Cu2   O4    S    
C25   C30   A    
C7    C9    A    
C3    C5    A    
Cu2   O2    S    
C6    C7    A    
C34   C47   S    
C29   H6    S    
C33   H1    S    
C1    C17   S    
C8    C17   A    
C32   C33   S    
Cu1   O5    S    
C38   C43   A    
C12   C44   S    
C10   C48   A    
C11   C13   A    
C38   C39   A    
Cu1   N1    S    
C3    C17   A    
C2    C14   A    
C37   H10   S    
C31   H23   S    
C10   C11   A    
Cu2   O8    S    
C4    O4    A    
C20   C21   A    
C28   C36   S    
Cu1   Cu2   S    
C28   O7    A    
C1    O2    A    
C18   C31   A    
C12   C33   S    
C21   C22   A    
C35   C46   T    
