data_mof_unit_9164.cif
_audit_creation_date              2012-12-11T16:30:25-0500
_audit_creation_method            fapswitch 2.2
_symmetry_space_group_name_H-M    P1
_symmetry_Int_Tables_number       1
_space_group_crystal_system       triclinic
_cell_length_a                    6.9344
_cell_length_b                    14.446009
_cell_length_c                    16.005378
_cell_angle_alpha                 90.000338
_cell_angle_beta                  89.870517
_cell_angle_gamma                 90.000254
_cell_volume                      1603.32512062

loop_
_atom_site_label
_atom_site_type_symbol
_atom_type_description
_atom_site_fract_x
_atom_site_fract_y
_atom_site_fract_z
_atom_type_partial_charge
O1    O     O_R   0.611670 0.415650 0.164070 -0.538770
O2    O     O_R   0.388330 0.915650 0.835930 -0.538772
O3    O     O_R   0.940950 0.405490 0.337780 -0.545181
O4    O     O_R   0.059050 0.905490 0.662220 -0.545177
O5    O     O_R   0.111350 0.584350 0.338470 -0.519974
O6    O     O_R   0.888650 0.084350 0.661530 -0.519974
C1    C     C_R   0.771605 0.382782 0.366729 0.653683
C2    C     C_R   0.228397 0.882778 0.633274 0.653672
O7    O     O_R   0.941380 0.404630 0.164680 -0.539124
O8    O     O_R   0.058620 0.904630 0.835320 -0.539127
O9    O     O_R   0.111780 0.583470 0.164130 -0.534519
O10   O     O_R   0.888220 0.083470 0.835870 -0.534505
C3    C     C_R   0.772654 0.382568 0.136088 0.696008
C4    C     C_R   0.227346 0.882567 0.863911 0.695998
O11   O     O_R   0.611240 0.416530 0.338400 -0.544191
O12   O     O_R   0.388760 0.916530 0.661600 -0.544196
O13   O     O_3   0.778020 0.558680 0.251290 -0.352527
O14   O     O_3   0.221980 0.058680 0.748710 -0.352520
V1    V     V_3+5 0.052840 0.489110 0.251260 1.422406
V2    V     V_3+5 0.947160 0.989110 0.748740 1.422413
O15   O     O_R   0.441500 0.594510 0.164760 -0.536678
O16   O     O_R   0.558500 0.094510 0.835240 -0.536677
C5    C     C_R   0.272810 0.616313 0.135930 0.697391
C6    C     C_R   0.727189 0.116317 0.864067 0.697405
O17   O     O_R   0.441080 0.595370 0.337860 -0.546957
O18   O     O_R   0.558920 0.095370 0.662140 -0.546964
C7    C     C_R   0.271960 0.618263 0.366738 0.674482
C8    C     C_R   0.728042 0.118270 0.633268 0.674514
V3    V     V_3+5 0.552850 0.510890 0.251270 1.415086
V4    V     V_3+5 0.447150 0.010890 0.748730 1.415078
O19   O     O_3   0.277800 0.441320 0.251250 -0.372013
O20   O     O_3   0.722200 0.941320 0.748750 -0.372015
C9    C     C_3   0.159974 0.647031 0.515760 -0.338354
C10   C     C_3   0.839965 0.147029 0.484238 -0.338301
H1    H     H_    0.014806 0.619721 0.499817 0.132545
H2    H     H_    0.985189 0.119765 0.500154 0.132515
H3    H     H_    0.245219 0.586841 0.538506 0.128510
H4    H     H_    0.754768 0.086803 0.461536 0.128453
C11   C     C_3   0.142077 0.719737 0.587047 -0.333197
C12   C     C_3   0.857679 0.219701 0.412915 -0.333199
H5    H     H_    0.209628 0.691909 0.644803 0.127371
H6    H     H_    0.789831 0.191875 0.355223 0.127400
H7    H     H_    0.986855 0.731749 0.601172 0.139356
H8    H     H_    0.012856 0.231653 0.398665 0.139333
H9    H     H_    0.984175 0.866165 0.497953 0.144483
H10   H     H_    0.016124 0.365963 0.501960 0.144526
C13   C     C_3   0.150496 0.778850 0.409752 0.222538
C14   C     C_3   0.849588 0.278848 0.590243 0.222462
C15   C     C_3   0.465139 0.720410 0.465500 -0.398233
C16   C     C_3   0.534874 0.220451 0.534536 -0.398226
C17   C     C_3   0.260509 0.689268 0.437465 0.070137
C18   C     C_3   0.739500 0.189280 0.562544 0.070106
H11   H     H_    0.542011 0.752811 0.411884 0.154807
H12   H     H_    0.457993 0.252801 0.588175 0.154802
H13   H     H_    0.551488 0.659406 0.485614 0.148004
H14   H     H_    0.448530 0.159466 0.514371 0.148021
C19   C     C_3   0.240130 0.812464 0.562198 0.084377
C20   C     C_3   0.759877 0.312471 0.437808 0.084324
C21   C     C_3   0.137421 0.850055 0.483068 -0.362717
C22   C     C_3   0.862840 0.350006 0.516898 -0.362620
C23   C     C_3   0.453483 0.790843 0.538245 -0.320339
C24   C     C_3   0.546529 0.290951 0.461848 -0.320365
H15   H     H_    0.530973 0.762302 0.593375 0.144633
H16   H     H_    0.468784 0.262520 0.406738 0.144679
H17   H     H_    0.528906 0.855662 0.519509 0.138072
H18   H     H_    0.471350 0.355802 0.480677 0.138027
H19   H     H_    0.234699 0.811689 0.358438 0.087511
H20   H     H_    0.765350 0.311741 0.641520 0.087565
H21   H     H_    0.205682 0.916385 0.463548 0.097583
H22   H     H_    0.794885 0.416410 0.536412 0.097544
H23   H     H_    0.487646 0.587896 0.760704 0.108327
H24   H     H_    0.512746 0.087832 0.239328 0.108334
C25   C     C_R   0.103051 0.929249 0.031315 -0.147814
C26   C     C_R   0.896833 0.429272 0.968674 -0.147858
C27   C     C_R   0.044324 0.954228 0.111515 -0.132119
C28   C     C_R   0.955491 0.454264 0.888468 -0.132130
C29   C     C_R   0.056191 0.890841 0.176590 -0.128066
C30   C     C_R   0.943571 0.390885 0.823387 -0.128059
C31   C     C_R   0.127319 0.802063 0.161979 -0.131481
C32   C     C_R   0.872489 0.302098 0.838001 -0.131439
C33   C     C_R   0.187651 0.774516 0.081194 0.060027
C34   C     C_R   0.812256 0.274536 0.918795 0.060028
C35   C     C_R   0.175039 0.839383 0.014449 0.061720
C36   C     C_R   0.824888 0.339399 0.985542 0.061699
C37   C     C_R   0.262824 0.684586 0.066644 -0.187389
C38   C     C_R   0.737169 0.184590 0.933353 -0.187368
C39   C     C_R   0.325067 0.659438 0.985261 0.060484
C40   C     C_R   0.675016 0.159427 0.014744 0.060471
C41   C     C_R   0.312242 0.724277 0.918472 0.073736
C42   C     C_R   0.687851 0.224263 0.081534 0.073749
C43   C     C_R   0.237291 0.814233 0.933086 -0.186413
C44   C     C_R   0.762714 0.314234 0.066913 -0.186393
C45   C     C_R   0.397128 0.569599 0.968414 -0.151117
C46   C     C_R   0.603028 0.069575 0.031595 -0.151149
C47   C     C_R   0.455413 0.544547 0.888167 -0.114701
C48   C     C_R   0.544846 0.044504 0.111852 -0.114710
C49   C     C_R   0.443045 0.607843 0.823023 -0.141850
C50   C     C_R   0.557249 0.107795 0.177000 -0.141877
C51   C     C_R   0.372086 0.696660 0.837601 -0.144512
C52   C     C_R   0.628112 0.196628 0.162415 -0.144502
H25   H     H_    0.092844 0.981494 0.983110 0.116634
H26   H     H_    0.907065 0.481512 0.016883 0.116637
H27   H     H_    0.990591 0.023377 0.123315 0.136853
H28   H     H_    0.009206 0.523418 0.876669 0.136818
H29   H     H_    0.011115 0.910703 0.238867 0.135686
H30   H     H_    0.988575 0.410760 0.761104 0.135656
H31   H     H_    0.135745 0.755626 0.214790 0.130810
H32   H     H_    0.864025 0.255666 0.785188 0.130762
H33   H     H_    0.407655 0.517427 0.016672 0.115853
H34   H     H_    0.592485 0.017407 0.983334 0.115855
H35   H     H_    0.509142 0.475394 0.876378 0.135530
H36   H     H_    0.491177 0.975341 0.123645 0.135498
H37   H     H_    0.363420 0.742986 0.784650 0.095386
H38   H     H_    0.636792 0.242954 0.215366 0.095349
O21   O     O_3   0.966764 0.759027 0.377168 -0.653035
H39   H     H_    0.884766 0.736513 0.423662 0.291357
O22   O     O_3   0.033254 0.258999 0.622884 -0.653021
H40   H     H_    0.115284 0.236423 0.576426 0.291341

loop_
_geom_bond_atom_site_label_1
_geom_bond_atom_site_label_2
_ccdc_geom_bond_type
C28   H28   S    
C20   C24   S    
O11   V3    S    
O13   V3    S    
O4    C2    A    
V1    O19   S    
C11   H5    S    
H24   C50   S    
C13   O21   S    
C48   H36   S    
O9    V1    S    
C16   H12   S    
C26   C28   A    
C41   C51   A    
C10   C12   S    
C28   C30   A    
C14   C18   S    
O3    C1    A    
C30   C32   A    
C19   C21   S    
C20   C22   S    
O21   H39   S    
C11   C19   S    
C38   C40   A    
C42   C52   A    
C23   H15   S    
O7    C3    A    
C24   H16   S    
C33   C35   A    
O5    C7    A    
O7    V1    S    
O6    C8    A    
O8    V2    S    
C15   C17   S    
C48   C50   A    
C16   C18   S    
O3    V1    S    
O14   V4    S    
C41   C43   A    
C1    C20   S    
C10   H2    S    
C26   H26   S    
C1    O11   A    
C2    O12   A    
C27   H27   S    
C25   C27   A    
C13   H19   S    
C49   C51   A    
C7    C17   S    
C14   C22   S    
C29   C31   A    
O17   V3    S    
C40   C46   A    
C12   C20   S    
C15   C23   S    
C24   H18   S    
C37   C39   A    
C52   H38   S    
C32   C34   A    
O8    C4    A    
C31   C33   A    
O13   V1    S    
C13   C17   S    
C34   C38   A    
O15   V3    S    
C46   H34   S    
C16   H14   S    
C9    C17   S    
C2    C19   S    
H23   C49   S    
C42   C44   A    
C22   H22   S    
O10   V2    S    
O1    V3    S    
C31   H31   S    
C9    C11   S    
C14   H20   S    
C46   C48   A    
C27   C29   A    
C21   H21   S    
C40   C42   A    
O18   V4    S    
C34   C36   A    
O15   C5    A    
C3    C44   S    
C16   C24   S    
O16   C6    A    
O1    C3    A    
O6    V2    S    
V2    O20   S    
O10   C6    A    
H9    C21   S    
C25   H25   S    
O16   V4    S    
H10   C22   S    
C10   H4    S    
O18   C8    A    
C26   C36   A    
C12   H6    S    
C51   H37   S    
C11   H7    S    
C47   C49   A    
C19   C23   S    
C14   O22   S    
O5    V1    S    
O17   C7    A    
C35   C43   A    
C32   H32   S    
C10   C18   S    
O2    V4    S    
C30   H30   S    
C29   H29   S    
V3    O19   S    
C15   H13   S    
O22   H40   S    
V4    O20   S    
C8    C18   S    
C6    C38   S    
C15   H11   S    
C39   C45   A    
O9    C5    A    
C9    H1    S    
O14   V2    S    
O2    C4    A    
C50   C52   A    
C9    H3    S    
C4    C43   S    
C13   C21   S    
O4    V2    S    
C23   H17   S    
C12   H8    S    
C45   C47   A    
C5    C37   S    
C39   C41   A    
C47   H35   S    
C36   C44   A    
O12   V4    S    
C25   C35   A    
C33   C37   A    
C45   H33   S    
