data_mof_unit_25734.cif
_audit_creation_date              2012-10-26T20:37:30-0400
_audit_creation_method            fapswitch 2.2
_symmetry_space_group_name_H-M    P1
_symmetry_Int_Tables_number       1
_space_group_crystal_system       triclinic
_cell_length_a                    11.049945
_cell_length_b                    10.928754
_cell_length_c                    9.717324
_cell_angle_alpha                 90.720957
_cell_angle_beta                  103.327021
_cell_angle_gamma                 90.547589
_cell_volume                      1141.69913912

loop_
_atom_site_label
_atom_site_type_symbol
_atom_type_description
_atom_site_fract_x
_atom_site_fract_y
_atom_site_fract_z
_atom_type_partial_charge
C1    C     C_R   0.498932 0.265475 0.498442 0.582544
C2    C     C_2   0.127109 0.499845 0.409538 -0.135652
C3    C     C_2   0.067917 0.497842 0.515119 -0.105015
C4    C     C_2   0.872876 0.499212 0.591317 0.360892
C5    C     C_2   0.932841 0.499137 0.486099 -0.112105
C6    C     C_2   0.522472 0.933285 0.394575 0.371925
C7    C     C_3   0.656449 0.633031 0.918525 0.131320
C8    C     C_3   0.704088 0.729706 0.033911 -0.250917
C9    C     C_3   0.840469 0.762383 0.043862 -0.480724
C10   C     C_3   0.267965 0.309572 0.089913 0.008675
C11   C     C_3   0.127889 0.285703 0.042714 -0.226758
C12   C     C_2   0.525604 0.866449 0.510758 0.395356
C13   C     C_3   0.095027 0.152142 0.062781 -0.469413
C14   C     C_3   0.572940 0.130174 0.189029 0.039700
C15   C     C_3   0.672344 0.096314 0.109434 -0.267375
C16   C     C_3   0.622666 0.103525 0.949581 -0.413462
C17   C     C_2   0.539521 0.067029 0.403865 0.258216
C18   C     C_2   0.484847 0.133856 0.489795 0.372855
C19   C     C_2   0.424072 0.433222 0.901426 0.567800
C20   C     C_2   0.409135 0.453432 0.052088 0.472363
C21   C     C_R   0.262639 0.499756 0.442137 0.551977
C22   C     C_R   0.505776 0.734706 0.502239 0.564190
C23   C     C_R   0.737357 0.499950 0.557928 0.543892
Cu1   Cu    Cu3+1 0.500020 0.500020 0.638640 1.108179
Cu2   Cu    Cu3+1 0.499980 0.499980 0.361360 1.108335
F1    F     F_    0.612578 0.476418 0.133999 -0.617551
F2    F     F_    0.936287 0.498323 0.729251 -0.648991
F3    F     F_    0.507872 0.878449 0.265117 -0.662351
F4    F     F_    0.557530 0.918590 0.642459 -0.639614
F5    F     F_    0.402772 0.082709 0.558214 -0.601421
F6    F     F_    0.351250 0.347560 0.818195 -0.636831
H1    H     H_    0.881788 0.500167 0.376091 0.134476
H2    H     H_    0.852464 0.800070 0.942122 0.177417
H3    H     H_    0.299245 0.283922 0.202492 0.149963
H4    H     H_    0.315642 0.248757 0.026666 0.142083
H5    H     H_    0.078660 0.345050 0.105245 0.177282
H6    H     H_    0.095551 0.308952 0.929201 0.239878
H7    H     H_    0.141280 0.090992 0.999001 0.182140
H8    H     H_    0.992796 0.138095 0.027704 0.155810
H9    H     H_    0.124748 0.127607 0.176082 0.164964
H10   H     H_    0.546485 0.226501 0.164697 0.167191
H11   H     H_    0.487905 0.072758 0.148379 0.165495
H12   H     H_    0.119591 0.495502 0.624746 0.244189
H13   H     H_    0.753414 0.159804 0.142172 0.184577
H14   H     H_    0.704486 0.002015 0.137408 0.192521
H15   H     H_    0.542774 0.039229 0.913970 0.230429
H16   H     H_    0.697120 0.078151 0.895272 0.181451
H17   H     H_    0.592421 0.198074 0.919420 0.186120
H18   H     H_    0.075696 0.502212 0.299852 0.112197
H19   H     H_    0.667485 0.671976 0.817750 0.187194
H20   H     H_    0.714499 0.549586 0.942052 0.183308
H21   H     H_    0.647289 0.813347 0.009324 0.202251
H22   H     H_    0.693919 0.695741 0.137964 0.241190
H23   H     H_    0.899139 0.680094 0.069973 0.179294
H24   H     H_    0.871964 0.832588 0.128473 0.155711
N1    N     N_2   0.498650 0.498660 0.846590 -0.056862
N2    N     N_2   0.498620 0.498630 0.152710 0.045878
O1    O     O_R   0.500020 0.321960 0.617050 -0.444425
O2    O     O_3   0.291891 0.435893 0.076800 -0.556791
O3    O     O_3   0.623992 0.121241 0.336387 -0.576244
O4    O     O_R   0.499980 0.321920 0.382890 -0.547941
O5    O     O_R   0.320700 0.500020 0.574050 -0.461889
O6    O     O_R   0.320660 0.499980 0.339890 -0.476850
O7    O     O_R   0.500020 0.678080 0.617110 -0.482479
O8    O     O_R   0.499980 0.678040 0.382950 -0.458583
O9    O     O_R   0.679340 0.500020 0.660110 -0.528601
O10   O     O_R   0.679300 0.499980 0.425950 -0.488961
O11   O     O_3   0.529959 0.607737 0.913464 -0.473419

loop_
_geom_bond_atom_site_label_1
_geom_bond_atom_site_label_2
_ccdc_geom_bond_type
C8    H22   S    
C19   N1    D    
C22   O8    A    
C10   H4    S    
C18   F5    S    
C2    H18   S    
C12   F4    S    
Cu1   N1    S    
C14   O3    S    
C8    H21   S    
C19   C20   S    
Cu2   O10   S    
Cu1   O9    S    
C14   H11   S    
C5    H1    S    
C19   F6    S    
C16   H17   S    
C2    C21   S    
C10   O2    S    
C21   O5    A    
C7    H20   S    
C7    C8    S    
Cu1   O7    S    
Cu2   O4    S    
C1    O1    A    
C20   O2    S    
C9    H2    S    
C11   C13   S    
C3    H12   S    
C1    C18   S    
Cu2   N2    S    
C14   H10   S    
C9    H24   S    
C23   O9    A    
Cu1   O1    S    
C11   H5    S    
C13   H7    S    
C15   H13   S    
C17   C18   D    
C2    C3    D    
C6    C12   D    
F1    N2    S    
C13   H8    S    
C21   O6    A    
C10   C11   S    
C15   H14   S    
C17   O3    S    
C22   O7    A    
C15   C16   S    
C12   C22   S    
C4    F2    S    
Cu2   O8    S    
Cu1   Cu2   S    
C16   H16   S    
C8    C9    S    
C10   H3    S    
Cu2   O6    S    
C23   O10   A    
C4    C23   S    
C6    C17   S    
C14   C15   S    
C16   H15   S    
C13   H9    S    
Cu1   O5    S    
C9    H23   S    
C7    O11   S    
N1    O11   S    
C20   N2    D    
C11   H6    S    
C6    F3    S    
C7    H19   S    
C4    C5    D    
C3    C5    S    
C1    O4    A    
