data_mof_unit_22175.cif
_audit_creation_date              2012-12-11T17:07:59-0500
_audit_creation_method            fapswitch 2.2
_symmetry_space_group_name_H-M    P1
_symmetry_Int_Tables_number       1
_space_group_crystal_system       triclinic
_cell_length_a                    17.265016
_cell_length_b                    17.264869
_cell_length_c                    17.361147
_cell_angle_alpha                 89.996421
_cell_angle_beta                  90.001639
_cell_angle_gamma                 89.997395
_cell_volume                      5174.9801163

loop_
_atom_site_label
_atom_site_type_symbol
_atom_type_description
_atom_site_fract_x
_atom_site_fract_y
_atom_site_fract_z
_atom_type_partial_charge
C1    C     C_R   0.394682 0.301819 0.901351 0.737277
C2    C     C_R   0.669163 0.422202 0.856278 0.736561
C3    C     C_R   0.605321 0.698180 0.901343 0.737456
C4    C     C_R   0.330847 0.577794 0.856260 0.735545
C5    C     C_R   0.422203 0.669155 0.143730 0.736291
C6    C     C_R   0.698180 0.605322 0.098653 0.737513
C7    C     C_R   0.577796 0.330843 0.143735 0.735930
C8    C     C_R   0.301817 0.394677 0.098643 0.737541
C9    C     C_R   0.922199 0.830837 0.356276 0.736336
C10   C     C_R   0.198180 0.894674 0.401345 0.737649
C11   C     C_R   0.077794 0.169164 0.356268 0.736157
C12   C     C_R   0.801810 0.105336 0.401375 0.737929
C13   C     C_R   0.894680 0.198178 0.598663 0.737353
C14   C     C_R   0.169172 0.077799 0.643723 0.736453
C15   C     C_R   0.105345 0.801808 0.598621 0.738507
C16   C     C_R   0.830840 0.922200 0.643730 0.736387
C17   C     C_3   0.867625 0.317719 0.725286 0.413293
C18   C     C_3   0.678965 0.868515 0.722280 0.577868
C19   C     C_3   0.132483 0.681141 0.724240 0.413982
C20   C     C_3   0.321063 0.131642 0.722168 0.577924
C21   C     C_3   0.868546 0.678954 0.277689 0.577899
C22   C     C_3   0.681673 0.132407 0.275280 0.413595
C23   C     C_3   0.131299 0.321032 0.277527 0.578019
C24   C     C_3   0.317984 0.867610 0.274946 0.413407
C25   C     C_3   0.368623 0.821024 0.222393 0.577928
C26   C     C_3   0.181943 0.367616 0.224976 0.413581
C27   C     C_3   0.631016 0.178994 0.222740 0.578109
C28   C     C_3   0.817921 0.632371 0.225121 0.413376
C29   C     C_3   0.367641 0.182258 0.774750 0.413408
C30   C     C_3   0.179084 0.630449 0.776727 0.578543
C31   C     C_3   0.632378 0.817887 0.774846 0.413336
C32   C     C_3   0.821043 0.368335 0.777866 0.577786
C33   C     C_R   0.418711 0.672223 0.856750 -0.161423
C34   C     C_R   0.302201 0.390208 0.901496 -0.014405
C35   C     C_R   0.581288 0.327774 0.856761 -0.161438
C36   C     C_R   0.697796 0.609781 0.901475 -0.015404
C37   C     C_R   0.390212 0.302201 0.098513 -0.015105
C38   C     C_R   0.327770 0.581288 0.143241 -0.161549
C39   C     C_R   0.609782 0.697796 0.098520 -0.015231
C40   C     C_R   0.672226 0.418709 0.143246 -0.161409
C41   C     C_R   0.890212 0.197798 0.401478 -0.015556
C42   C     C_R   0.827768 0.918714 0.356759 -0.161540
C43   C     C_R   0.109784 0.802204 0.401473 -0.015157
C44   C     C_R   0.172229 0.081293 0.356757 -0.161402
C45   C     C_R   0.918718 0.827767 0.643245 -0.161753
C46   C     C_R   0.802204 0.109786 0.598525 -0.015024
C47   C     C_R   0.081295 0.172232 0.643239 -0.161337
C48   C     C_R   0.197796 0.890221 0.598535 -0.016254
C49   C     C_R   0.317660 0.313358 0.886259 -0.140148
C50   C     C_R   0.641093 0.361111 0.814018 -0.163470
C51   C     C_R   0.682341 0.686635 0.886238 -0.140042
C52   C     C_R   0.358917 0.638883 0.813976 -0.162844
C53   C     C_R   0.361108 0.641089 0.185993 -0.163288
C54   C     C_R   0.686635 0.682344 0.113758 -0.140082
C55   C     C_R   0.638886 0.358909 0.186007 -0.163157
C56   C     C_R   0.313359 0.317653 0.113749 -0.140120
C57   C     C_R   0.861104 0.858907 0.314012 -0.163390
C58   C     C_R   0.186635 0.817654 0.386234 -0.140169
C59   C     C_R   0.138887 0.141098 0.314001 -0.163350
C60   C     C_R   0.813352 0.182359 0.386258 -0.140161
C61   C     C_R   0.817660 0.186635 0.613764 -0.140082
C62   C     C_R   0.141106 0.138895 0.685983 -0.163551
C63   C     C_R   0.182370 0.813353 0.613760 -0.140182
C64   C     C_R   0.858913 0.861104 0.685995 -0.163389
C65   C     C_R   0.752674 0.355829 0.725233 0.007942
C66   C     C_R   0.703697 0.811149 0.823752 -0.063985
C67   C     C_R   0.247684 0.643741 0.724562 0.007413
C68   C     C_R   0.296348 0.188899 0.823689 -0.063949
C69   C     C_R   0.811160 0.703703 0.176230 -0.064035
C70   C     C_R   0.643931 0.247503 0.275132 0.007653
C71   C     C_R   0.188791 0.296262 0.176144 -0.064240
C72   C     C_R   0.355929 0.752592 0.274921 0.007842
C73   C     C_R   0.311177 0.796268 0.323804 -0.064043
C74   C     C_R   0.144036 0.252586 0.225028 0.007668
C75   C     C_R   0.688690 0.203822 0.324018 -0.064389
C76   C     C_R   0.855902 0.747374 0.225125 0.007767
C77   C     C_R   0.252683 0.144161 0.774788 0.007718
C78   C     C_R   0.203985 0.688519 0.675696 -0.064913
C79   C     C_R   0.747372 0.855893 0.774861 0.007883
C80   C     C_R   0.796342 0.311089 0.676337 -0.063839
C81   C     C_R   0.676104 0.334361 0.742463 0.070263
C82   C     C_R   0.735208 0.746155 0.859593 0.141018
C83   C     C_R   0.324073 0.665544 0.742263 0.070715
C84   C     C_R   0.264814 0.253844 0.859578 0.141050
C85   C     C_R   0.746154 0.735212 0.140402 0.141018
C86   C     C_R   0.665581 0.323986 0.257651 0.070529
C87   C     C_R   0.253837 0.264775 0.140378 0.141006
C88   C     C_R   0.334380 0.676061 0.257582 0.070344
C89   C     C_R   0.246154 0.764776 0.359597 0.141043
C90   C     C_R   0.165605 0.176061 0.242398 0.070439
C91   C     C_R   0.753815 0.235270 0.359685 0.140939
C92   C     C_R   0.834367 0.823920 0.242431 0.070346
C93   C     C_R   0.176114 0.165640 0.757543 0.070277
C94   C     C_R   0.235338 0.753815 0.640253 0.140905
C95   C     C_R   0.823923 0.834370 0.757573 0.070319
C96   C     C_R   0.764809 0.246151 0.640440 0.141041
C97   C     C_R   0.233974 0.684294 0.355231 -0.151116
C98   C     C_R   0.221979 0.139844 0.196279 -0.101946
C99   C     C_R   0.766068 0.315743 0.355229 -0.150999
C100  C     C_R   0.778027 0.860147 0.196269 -0.101994
C101  C     C_R   0.139876 0.221927 0.803744 -0.101837
C102  C     C_R   0.315780 0.766203 0.644854 -0.150889
C103  C     C_R   0.860149 0.778041 0.803747 -0.102119
C104  C     C_R   0.684317 0.234037 0.644738 -0.151228
C105  C     C_R   0.639868 0.278081 0.696253 -0.101883
C106  C     C_R   0.815696 0.733996 0.855261 -0.151204
C107  C     C_R   0.360234 0.722135 0.696356 -0.101966
C108  C     C_R   0.184322 0.265970 0.855264 -0.151014
C109  C     C_R   0.733984 0.815698 0.144751 -0.151128
C110  C     C_R   0.722015 0.360191 0.303711 -0.101908
C111  C     C_R   0.266032 0.184294 0.144768 -0.151040
C112  C     C_R   0.278024 0.639843 0.303721 -0.101939
H1    H     H_    0.916736 0.348056 0.696986 0.160444
H2    H     H_    0.686462 0.845154 0.663033 0.063885
H3    H     H_    0.083689 0.650677 0.695519 0.161050
H4    H     H_    0.313508 0.155046 0.662948 0.063927
H5    H     H_    0.845190 0.686427 0.336942 0.063936
H6    H     H_    0.651263 0.083456 0.303808 0.160742
H7    H     H_    0.154597 0.313612 0.336812 0.064035
H8    H     H_    0.348351 0.916649 0.303347 0.160591
H9    H     H_    0.345306 0.813583 0.163122 0.063906
H10   H     H_    0.151567 0.416641 0.196548 0.160544
H11   H     H_    0.654243 0.186283 0.163406 0.064096
H12   H     H_    0.848291 0.583309 0.196755 0.160475
H13   H     H_    0.416751 0.151915 0.803060 0.160376
H14   H     H_    0.186126 0.653490 0.836156 0.064333
H15   H     H_    0.583302 0.848248 0.803199 0.160441
H16   H     H_    0.813483 0.344925 0.837079 0.063803
H17   H     H_    0.454296 0.721097 0.840742 0.202902
H18   H     H_    0.245215 0.415313 0.908003 0.212513
H19   H     H_    0.545739 0.278871 0.840766 0.203060
H20   H     H_    0.754781 0.584679 0.907999 0.212846
H21   H     H_    0.415317 0.245216 0.091988 0.212660
H22   H     H_    0.278871 0.545731 0.159238 0.203111
H23   H     H_    0.584674 0.754782 0.092005 0.212770
H24   H     H_    0.721113 0.454277 0.159249 0.203012
H25   H     H_    0.915319 0.254780 0.408003 0.212789
H26   H     H_    0.778868 0.954277 0.340761 0.203189
H27   H     H_    0.084684 0.745220 0.407995 0.212902
H28   H     H_    0.221126 0.045731 0.340759 0.203083
H29   H     H_    0.954281 0.778867 0.659242 0.203372
H30   H     H_    0.745219 0.084687 0.592013 0.212852
H31   H     H_    0.045745 0.221138 0.659235 0.203077
H32   H     H_    0.254771 0.915332 0.591986 0.212969
H33   H     H_    0.185673 0.657356 0.384536 0.161122
H34   H     H_    0.237477 0.079803 0.205588 0.172730
H35   H     H_    0.814433 0.342663 0.384449 0.161120
H36   H     H_    0.762553 0.920199 0.205541 0.172883
H37   H     H_    0.079809 0.237358 0.794507 0.172658
H38   H     H_    0.342657 0.814684 0.615788 0.161192
H39   H     H_    0.920205 0.762578 0.794487 0.173078
H40   H     H_    0.657363 0.185791 0.615365 0.161115
H41   H     H_    0.579801 0.262659 0.705479 0.172714
H42   H     H_    0.842640 0.685713 0.884599 0.161106
H43   H     H_    0.420198 0.737807 0.705855 0.172593
H44   H     H_    0.157367 0.314221 0.884631 0.160994
H45   H     H_    0.685692 0.842642 0.115424 0.161088
H46   H     H_    0.737568 0.420208 0.294339 0.172686
H47   H     H_    0.314348 0.157358 0.115484 0.161065
H48   H     H_    0.262541 0.579798 0.294433 0.172793
N1    N     N_R   0.425360 0.368540 0.922560 -0.124425
N2    N     N_R   0.631460 0.425360 0.922560 -0.116083
N3    N     N_R   0.574640 0.631460 0.922560 -0.124460
N4    N     N_R   0.368540 0.574640 0.922560 -0.115891
N5    N     N_R   0.425360 0.631460 0.077440 -0.116031
N6    N     N_R   0.631460 0.574640 0.077440 -0.124463
N7    N     N_R   0.574640 0.368540 0.077440 -0.115979
N8    N     N_R   0.368540 0.425360 0.077440 -0.124478
N9    N     N_R   0.925360 0.868540 0.422560 -0.116014
N10   N     N_R   0.131460 0.925360 0.422560 -0.124487
N11   N     N_R   0.074640 0.131460 0.422560 -0.116001
N12   N     N_R   0.868540 0.074640 0.422560 -0.124521
N13   N     N_R   0.925360 0.131460 0.577440 -0.124469
N14   N     N_R   0.131460 0.074640 0.577440 -0.116031
N15   N     N_R   0.074640 0.868540 0.577440 -0.124603
N16   N     N_R   0.868540 0.925360 0.577440 -0.116032
N17   N     N_R   0.425340 0.631500 0.922560 -0.083373
N18   N     N_R   0.368500 0.425340 0.922560 -0.092703
N19   N     N_R   0.574660 0.368500 0.922560 -0.083449
N20   N     N_R   0.631500 0.574660 0.922560 -0.092850
N21   N     N_R   0.425340 0.368500 0.077440 -0.092777
N22   N     N_R   0.368500 0.574660 0.077440 -0.083444
N23   N     N_R   0.574660 0.631500 0.077440 -0.092814
N24   N     N_R   0.631500 0.425340 0.077440 -0.083407
N25   N     N_R   0.925340 0.131500 0.422560 -0.092836
N26   N     N_R   0.868500 0.925340 0.422560 -0.083439
N27   N     N_R   0.074660 0.868500 0.422560 -0.092831
N28   N     N_R   0.131500 0.074660 0.422560 -0.083411
N29   N     N_R   0.925340 0.868500 0.577440 -0.083438
N30   N     N_R   0.868500 0.074660 0.577440 -0.092839
N31   N     N_R   0.074660 0.131500 0.577440 -0.083447
N32   N     N_R   0.131500 0.925340 0.577440 -0.092898
Ni1   Ni    Ni4+2 0.500000 0.369720 0.000000 0.274925
Ni2   Ni    Ni4+2 0.630280 0.500000 0.000000 0.275028
Ni3   Ni    Ni4+2 0.500000 0.630280 0.000000 0.274980
Ni4   Ni    Ni4+2 0.369720 0.500000 0.000000 0.274846
Ni5   Ni    Ni4+2 1.000000 0.869720 0.500000 0.274970
Ni6   Ni    Ni4+2 0.130280 1.000000 0.500000 0.275003
Ni7   Ni    Ni4+2 1.000000 0.130280 0.500000 0.274941
Ni8   Ni    Ni4+2 0.869720 1.000000 0.500000 0.274978
F1    F     F_    0.427250 0.232809 0.919836 -0.735672
F2    F     F_    0.719089 0.476269 0.830961 -0.672721
F3    F     F_    0.572765 0.767188 0.919845 -0.735662
F4    F     F_    0.281104 0.523623 0.830897 -0.673316
F5    F     F_    0.476302 0.719025 0.169066 -0.672889
F6    F     F_    0.767187 0.572769 0.080142 -0.735631
F7    F     F_    0.523660 0.281024 0.169092 -0.673049
F8    F     F_    0.232816 0.427229 0.080100 -0.735800
F9    F     F_    0.976291 0.780944 0.330947 -0.672875
F10   F     F_    0.267186 0.927218 0.419868 -0.735571
F11   F     F_    0.023686 0.219038 0.330929 -0.672959
F12   F     F_    0.732819 0.072810 0.419985 -0.735695
F13   F     F_    0.927241 0.267191 0.580190 -0.735576
F14   F     F_    0.219114 0.023737 0.669032 -0.672886
F15   F     F_    0.072844 0.732829 0.579932 -0.735796
F16   F     F_    0.780972 0.976301 0.669078 -0.672818
F17   F     F_    0.887671 0.248539 0.760549 -0.698612
F18   F     F_    0.651850 0.944020 0.724808 -0.612351
F19   F     F_    0.111854 0.749964 0.759876 -0.699027
F20   F     F_    0.348237 0.056164 0.724619 -0.612446
F21   F     F_    0.944059 0.651854 0.275142 -0.612380
F22   F     F_    0.750677 0.112053 0.239817 -0.698762
F23   F     F_    0.055773 0.348080 0.274876 -0.612418
F24   F     F_    0.248885 0.887794 0.239588 -0.698695
F25   F     F_    0.444139 0.848089 0.225002 -0.612394
F26   F     F_    0.251023 0.387826 0.260356 -0.698591
F27   F     F_    0.555444 0.152063 0.225544 -0.612377
F28   F     F_    0.748794 0.612225 0.260448 -0.698583
F29   F     F_    0.387692 0.251436 0.739480 -0.698468
F30   F     F_    0.152411 0.554805 0.773589 -0.612426
F31   F     F_    0.612256 0.748752 0.739528 -0.698579
F32   F     F_    0.848214 0.443809 0.775432 -0.612410

loop_
_geom_bond_atom_site_label_1
_geom_bond_atom_site_label_2
_ccdc_geom_bond_type
C31   C66   S    
C105  H41   S    
C6    N6    A    
C67   C83   A    
C57   C92   S    
C29   H13   S    
C42   H26   S    
C3    F3    S    
C9    N9    A    
C28   C69   S    
C36   N20   A    
C31   H15   S    
C109  H45   S    
C18   H2    S    
C47   C62   A    
C32   F32   S    
N16   N29   A    
C61   C96   S    
N30   Ni8   S    
C12   N12   A    
C39   H23   S    
C26   F26   S    
C33   C52   A    
C11   N11   A    
C66   C79   A    
C22   F22   S    
C21   C76   S    
C14   F14   S    
C41   C60   A    
C21   F21   S    
C20   C77   S    
N27   Ni5   S    
N5    N22   A    
C49   C84   S    
C5    C53   A    
C10   C58   A    
N31   Ni7   S    
N9    N26   A    
C85   C109  A    
C36   H20   S    
C23   H7    S    
C32   H16   S    
C24   C73   S    
C4    F4    S    
C39   C54   A    
C87   C111  A    
C44   C59   A    
C21   H5    S    
C14   C62   A    
C47   H31   S    
N13   N30   A    
C48   H32   S    
C69   C76   A    
C16   F16   S    
C23   C26   S    
C13   F13   S    
C108  H44   S    
C8    F8    S    
C111  H47   S    
N15   Ni5   S    
N11   Ni7   S    
C8    N8    A    
C43   C58   A    
C11   F11   S    
C37   C56   A    
C10   F10   S    
C28   H12   S    
C9    F9    S    
C18   C79   S    
C106  H42   S    
C2    F2    S    
N10   N27   A    
N23   Ni3   S    
C4    N4    A    
C43   H27   S    
C98   C111  A    
C19   H3    S    
C80   C96   A    
N21   Ni1   S    
C41   H25   S    
C30   C67   S    
C110  H46   S    
C3    N3    A    
N14   N31   A    
C27   C70   S    
C42   N26   A    
C101  C108  A    
C38   H22   S    
N3    Ni3   S    
C1    N1    A    
C100  C109  A    
C44   H28   S    
C65   C80   A    
N20   Ni2   S    
C45   H29   S    
C26   C71   S    
N7    Ni1   S    
C13   C61   A    
C2    N2    A    
C67   C78   A    
C22   C75   S    
N16   Ni8   S    
C11   C59   A    
N5    Ni3   S    
C42   C57   A    
C104  C105  A    
C72   C88   A    
C5    F5    S    
C95   C103  A    
C20   F20   S    
C20   C29   S    
C24   F24   S    
C35   N19   A    
C81   C105  A    
C75   C91   A    
N14   Ni6   S    
C24   H8    S    
C46   C61   A    
C33   N17   A    
C68   C84   A    
C24   C25   S    
C12   F12   S    
C9    C57   A    
C7    F7    S    
C93   C101  A    
N15   N32   A    
C20   H4    S    
C97   C112  A    
C27   H11   S    
C56   C87   S    
C98   H34   S    
N10   Ni6   S    
C99   C110  A    
N18   Ni4   S    
C17   C80   S    
N13   Ni7   S    
C100  H36   S    
C48   N32   A    
C89   C97   A    
C59   C90   S    
C88   C112  A    
C19   C78   S    
C13   N13   A    
C79   C95   A    
C66   C82   A    
C29   C68   S    
C40   H24   S    
C65   C81   A    
N7    N24   A    
C63   C94   S    
N28   Ni6   S    
N12   N25   A    
C40   C55   A    
C37   N21   A    
N2    Ni2   S    
C35   C50   A    
C45   N29   A    
N1    Ni1   S    
C102  C107  A    
C102  H38   S    
C25   C72   S    
N25   Ni7   S    
C31   F31   S    
N26   Ni8   S    
C51   C82   S    
C94   C102  A    
N2    N19   A    
C17   H1    S    
C52   C83   S    
C76   C92   A    
C71   C87   A    
C7    C55   A    
N11   N28   A    
C15   F15   S    
C27   F27   S    
C21   C28   S    
C4    C52   A    
C53   C88   S    
C6    C54   A    
C5    N5    A    
C22   C27   S    
C96   C104  A    
C2    C50   A    
C33   H17   S    
C34   N18   A    
C19   F19   S    
C23   C74   S    
C40   N24   A    
C70   C86   A    
C28   F28   S    
C41   N25   A    
C69   C85   A    
C92   C100  A    
N9    Ni5   S    
N19   Ni1   S    
C60   C91   S    
N29   Ni5   S    
C68   C77   A    
C22   H6    S    
C7    N7    A    
C54   C85   S    
C34   C49   A    
C3    C51   A    
C99   H35   S    
N17   Ni3   S    
C86   C110  A    
C97   H33   S    
N6    N23   A    
N6    Ni2   S    
C64   C95   S    
C23   F23   S    
C72   C73   A    
C48   C63   A    
C43   N27   A    
C71   C74   A    
N4    Ni4   S    
C78   C94   A    
C103  H39   S    
C30   H14   S    
C10   N10   A    
C26   H10   S    
C1    F1    S    
C45   C64   A    
C36   C51   A    
C38   N22   A    
C15   N15   A    
C91   C99   A    
C30   F30   S    
C55   C86   S    
C35   H19   S    
C29   F29   S    
C14   N14   A    
C17   F17   S    
C77   C93   A    
C104  H40   S    
C8    C56   A    
C46   N30   A    
C38   C53   A    
C1    C49   A    
C44   N28   A    
N24   Ni2   S    
C74   C90   A    
C101  H37   S    
C46   H30   S    
C83   C107  A    
N12   Ni8   S    
C103  C106  A    
C37   H21   S    
C82   C106  A    
C47   N31   A    
C58   C89   S    
C39   N23   A    
C6    F6    S    
C16   N16   A    
C73   C89   A    
N32   Ni6   S    
C12   C60   A    
C112  H48   S    
C84   C108  A    
N22   Ni4   S    
C34   H18   S    
N8    N21   A    
N8    Ni4   S    
C62   C93   S    
C70   C75   A    
C17   C32   S    
C15   C63   A    
C18   C31   S    
C16   C64   A    
N3    N20   A    
N1    N18   A    
C19   C30   S    
C25   H9    S    
C90   C98   A    
C107  H43   S    
N4    N17   A    
C50   C81   S    
C32   C65   S    
C25   F25   S    
C18   F18   S    
