data_mof_unit_63158.cif
_audit_creation_date              2012-12-10T17:21:15-0500
_audit_creation_method            fapswitch 2.2
_symmetry_space_group_name_H-M    P1
_symmetry_Int_Tables_number       1
_space_group_crystal_system       triclinic
_cell_length_a                    10.131241
_cell_length_b                    10.656681
_cell_length_c                    10.734731
_cell_angle_alpha                 90.20945
_cell_angle_beta                  95.203436
_cell_angle_gamma                 81.262083
_cell_volume                      1140.74686509

loop_
_atom_site_label
_atom_site_type_symbol
_atom_type_description
_atom_site_fract_x
_atom_site_fract_y
_atom_site_fract_z
_atom_type_partial_charge
C1    C     C_R   0.444315 0.514555 0.267021 0.948145
C2    C     C_2   0.927354 0.510265 0.509894 -0.175261
C3    C     C_R   0.500081 0.257677 0.501903 1.030559
C4    C     C_R   0.555877 0.496810 0.733163 0.959644
C5    C     C_R   0.500684 0.742158 0.502498 1.024980
C6    C     C_3   0.530228 0.066335 0.373833 0.375253
C7    C     C_3   0.529910 0.922446 0.374464 -0.604953
C8    C     C_3   0.608889 0.057179 0.607366 1.078505
C9    C     C_3   0.359857 0.091899 0.533383 0.345277
C10   C     C_3   0.500413 0.121124 0.504761 -0.538622
C11   C     C_3   0.500784 0.878535 0.505289 -0.471764
C12   C     C_3   0.610626 0.911806 0.606007 1.042376
C13   C     C_3   0.360513 0.948889 0.534939 0.411053
C14   C     C_2   0.413483 0.537724 0.134406 -0.466253
C15   C     C_2   0.508754 0.567582 0.066253 0.677979
C16   C     C_2   0.586752 0.514281 0.865531 -0.210822
C17   C     C_2   0.486945 0.563415 0.932614 -0.191075
C18   C     C_2   0.073407 0.489477 0.489370 0.669802
F1    F     F_    0.653031 0.091246 0.340660 -0.538223
F2    F     F_    0.327410 0.910221 0.650084 -0.508758
F3    F     F_    0.580933 0.104870 0.724182 -0.564943
F4    F     F_    0.587725 0.869073 0.722988 -0.566170
F5    F     F_    0.630994 0.589265 0.118481 -0.608486
F6    F     F_    0.119388 0.403139 0.403881 -0.633877
F7    F     F_    0.734975 0.083723 0.585886 -0.545961
F8    F     F_    0.736347 0.851927 0.579280 -0.609536
F9    F     F_    0.323988 0.143487 0.646819 -0.497812
H1    H     H_    0.688639 0.487104 0.907958 0.204937
H2    H     H_    0.282361 0.134972 0.459098 0.116978
H3    H     H_    0.281930 0.926167 0.462492 0.097883
H4    H     H_    0.315279 0.524717 0.091106 0.152135
H5    H     H_    0.451623 0.111450 0.301605 0.122593
H6    H     H_    0.452045 0.898447 0.302031 0.185534
H7    H     H_    0.384552 0.589168 0.890643 0.171618
H8    H     H_    0.890972 0.579625 0.577944 0.178725
H9    H     H_    0.879689 0.382651 0.384913 0.257461
H10   H     H_    0.119162 0.616760 0.615177 0.147841
H11   H     H_    0.628257 0.872288 0.348988 0.321737
N1    N     N_2   0.157300 0.551950 0.551120 -0.220934
N2    N     N_2   0.842730 0.448000 0.448950 -0.151838
O1    O     O_R   0.568940 0.489540 0.307530 -0.546255
O2    O     O_R   0.348880 0.522880 0.340350 -0.590075
O3    O     O_R   0.610030 0.298130 0.483570 -0.524283
O4    O     O_R   0.389960 0.331470 0.516390 -0.556443
O5    O     O_R   0.651120 0.477120 0.659650 -0.605874
O6    O     O_R   0.431060 0.510460 0.692470 -0.605210
O7    O     O_R   0.610040 0.668530 0.483610 -0.580811
O8    O     O_R   0.389970 0.701870 0.516430 -0.600629
Zn1   Zn    Zn3+2 0.646940 0.477740 0.478080 1.111152
Zn2   Zn    Zn3+2 0.353060 0.522260 0.521920 1.082703

loop_
_geom_bond_atom_site_label_1
_geom_bond_atom_site_label_2
_ccdc_geom_bond_type
C2    H8    S    
C6    C10   S    
C6    H5    S    
C11   C12   S    
C4    C16   S    
C6    C7    S    
C6    F1    S    
C9    H2    S    
C8    C12   S    
C2    C18   S    
C11   C13   S    
C9    C10   S    
O6    Zn2   S    
C16   H1    S    
O5    Zn1   S    
C14   H4    S    
C18   N1    D    
O8    Zn2   S    
C8    F3    S    
H10   N1    S    
C3    C10   S    
C4    O6    A    
C7    C11   S    
C8    F7    S    
C7    H6    S    
C3    O3    A    
O2    Zn2   S    
C18   F6    S    
C15   F5    S    
C5    O7    A    
C7    H11   S    
C5    C11   S    
C4    O5    A    
C5    O8    A    
C3    O4    A    
C17   H7    S    
O4    Zn2   S    
N2    Zn1   S    
C2    N2    D    
C1    O2    A    
H9    N2    S    
N1    Zn2   S    
C12   F4    S    
C13   H3    S    
C9    F9    S    
O7    Zn1   S    
O1    Zn1   S    
C15   C17   S    
C9    C13   S    
C14   C15   D    
O3    Zn1   S    
C1    C14   S    
C13   F2    S    
C8    C10   S    
C1    O1    A    
C12   F8    S    
C16   C17   D    
