data_mof_unit_59049.cif
_audit_creation_date              2013-03-05T16:15:38-0500
_audit_creation_method            fapswitch 2.2
_symmetry_space_group_name_H-M    P1
_symmetry_Int_Tables_number       1
_space_group_crystal_system       triclinic
_cell_length_a                    24.766001
_cell_length_b                    28.955578
_cell_length_c                    8.653456
_cell_angle_alpha                 90.105306
_cell_angle_beta                  95.457756
_cell_angle_gamma                 90.161813
_cell_volume                      6177.34277868

loop_
_atom_site_label
_atom_site_type_symbol
_atom_site_description
_atom_site_fract_x
_atom_site_fract_y
_atom_site_fract_z
_atom_type_partial_charge
P1    P     P_3+3 0.888690 0.449140 0.046940 0.448079
P2    P     P_3+3 0.888690 0.550860 0.546940 0.458054
P3    P     P_3+3 0.388690 0.949140 0.046940 0.448076
P4    P     P_3+3 0.388690 0.050860 0.546940 0.458050
O1    O     O_2   0.893910 0.433590 0.874460 -0.345732
O2    O     O_2   0.893910 0.566410 0.374460 -0.353865
O3    O     O_2   0.393910 0.933590 0.874460 -0.345748
O4    O     O_2   0.393910 0.066410 0.374460 -0.353793
O5    O     O_3   0.938210 0.476710 0.126870 -0.456076
O6    O     O_3   0.938210 0.523290 0.626870 -0.425889
O7    O     O_3   0.438210 0.976710 0.126870 -0.456062
O8    O     O_3   0.438210 0.023290 0.626870 -0.425917
O9    O     O_3   0.981570 0.392580 0.636990 -0.376690
O10   O     O_3   0.981570 0.607420 0.136990 -0.378148
O11   O     O_3   0.481570 0.892580 0.636990 -0.376687
O12   O     O_3   0.481570 0.107420 0.136990 -0.378271
O13   O     O_2   0.891947 0.359561 0.736117 -0.389930
O14   O     O_2   0.880712 0.631693 0.181843 -0.369427
O15   O     O_2   0.391946 0.859560 0.736112 -0.389925
O16   O     O_2   0.380668 0.131614 0.181657 -0.369418
O17   O     O_3   0.830109 0.483170 0.033516 -0.562858
O18   O     O_3   0.831033 0.515570 0.531234 -0.561812
O19   O     O_3   0.330110 0.983172 0.033508 -0.562863
O20   O     O_3   0.331030 0.015573 0.531234 -0.561816
O21   O     O_3   0.950016 0.297711 0.628649 -0.527259
O22   O     O_3   0.948384 0.700186 0.176676 -0.518523
O23   O     O_3   0.450016 0.797710 0.628648 -0.527261
O24   O     O_3   0.448278 0.200158 0.176851 -0.518548
C1    C     C_3   0.941586 0.229835 0.470102 -1.023941
C2    C     C_3   0.954570 0.780715 0.112620 -0.989413
C3    C     C_3   0.441589 0.729834 0.470102 -1.023930
C4    C     C_3   0.454452 0.280716 0.113198 -0.989553
H1    H     H_    0.949434 0.209053 0.577480 0.263079
H2    H     H_    0.975342 0.789356 0.227766 0.252177
H3    H     H_    0.449437 0.709052 0.577479 0.263076
H4    H     H_    0.475320 0.289336 0.228233 0.252139
H5    H     H_    0.896999 0.232704 0.443223 0.237852
H6    H     H_    0.910246 0.785011 0.118428 0.243944
H7    H     H_    0.397002 0.732702 0.443220 0.237851
H8    H     H_    0.410141 0.284986 0.119360 0.244062
P5    P     P_3+3 0.111080 0.448680 0.642780 0.446045
P6    P     P_3+3 0.111080 0.551320 0.142780 0.432514
P7    P     P_3+3 0.611080 0.948680 0.642780 0.446020
P8    P     P_3+3 0.611080 0.051320 0.142780 0.432434
P9    P     P_3+3 0.070559 0.349719 0.084608 0.444349
P10   P     P_3+3 0.073259 0.648319 0.581508 0.426666
P11   P     P_3+3 0.570560 0.849720 0.084611 0.444353
P12   P     P_3+3 0.573259 0.148321 0.581524 0.426497
O25   O     O_2   0.105800 0.433150 0.815270 -0.337947
O26   O     O_2   0.105800 0.566850 0.315270 -0.339761
O27   O     O_2   0.605800 0.933150 0.815270 -0.337957
O28   O     O_2   0.605800 0.066850 0.315270 -0.339749
O29   O     O_3   0.018000 0.392500 0.052760 -0.403917
O30   O     O_3   0.018000 0.607500 0.552760 -0.388964
O31   O     O_3   0.518000 0.892500 0.052760 -0.403914
O32   O     O_3   0.518000 0.107500 0.552760 -0.388959
O33   O     O_2   0.114080 0.361150 0.973665 -0.355280
O34   O     O_2   0.107512 0.643937 0.442024 -0.384252
O35   O     O_2   0.614083 0.861152 0.973675 -0.355278
O36   O     O_2   0.607562 0.143895 0.442168 -0.384459
O37   O     O_3   0.166379 0.486648 0.669765 -0.580872
O38   O     O_3   0.162507 0.510355 0.181805 -0.587954
O39   O     O_3   0.666384 0.986645 0.669763 -0.580912
O40   O     O_3   0.662514 0.010361 0.181800 -0.587982
O41   O     O_3   0.046265 0.295848 0.017781 -0.549252
O42   O     O_3   0.048778 0.704805 0.561956 -0.553953
O43   O     O_3   0.546269 0.795849 0.017778 -0.549248
O44   O     O_3   0.548786 0.204804 0.561731 -0.553827
C5    C     C_3   0.990702 0.292262 0.036799 0.394735
C6    C     C_3   0.994026 0.706021 0.590844 0.322447
C7    C     C_3   0.490706 0.792260 0.036799 0.394731
C8    C     C_3   0.494055 0.206046 0.590842 0.322729
H9    H     H_    0.967130 0.310860 0.940878 0.171653
H10   H     H_    0.969103 0.686576 0.498561 0.152293
H11   H     H_    0.467132 0.810855 0.940876 0.171650
H12   H     H_    0.469082 0.186644 0.498560 0.152201
H13   H     H_    0.980952 0.306999 0.149347 0.001409
H14   H     H_    0.988263 0.691216 0.706600 0.004950
H15   H     H_    0.480955 0.806997 0.149346 0.001409
H16   H     H_    0.488319 0.191206 0.706566 0.004879
C9    C     C_3   0.975306 0.240978 0.032483 -0.457211
C10   C     C_3   0.976246 0.756594 0.588335 -0.446197
C11   C     C_3   0.475315 0.740975 0.032492 -0.457211
C12   C     C_3   0.476324 0.256632 0.588632 -0.446319
H17   H     H_    0.986878 0.224827 0.923924 0.217300
H18   H     H_    0.990019 0.773393 0.483910 0.223982
H19   H     H_    0.486890 0.724823 0.923939 0.217297
H20   H     H_    0.490134 0.273488 0.484358 0.223878
C13   C     C_3   0.196226 0.506915 0.060482 0.211050
C14   C     C_3   0.195181 0.486939 0.536753 0.299231
C15   C     C_3   0.696212 0.006902 0.060435 0.211067
C16   C     C_3   0.695163 0.986956 0.536710 0.299338
H21   H     H_    0.214926 0.472215 0.071090 0.092538
H22   H     H_    0.206392 0.523294 0.514566 0.077200
H23   H     H_    0.714918 0.972203 0.071077 0.092483
H24   H     H_    0.706377 0.023313 0.514569 0.077228
H25   H     H_    0.172945 0.507863 0.945390 0.124862
H26   H     H_    0.170977 0.474544 0.430920 0.077763
H27   H     H_    0.672913 0.007831 0.945371 0.124920
H28   H     H_    0.670940 0.974577 0.430892 0.077832
C17   C     C_3   0.242716 0.542708 0.069480 -0.477015
C18   C     C_3   0.247357 0.458105 0.557971 -0.468165
C19   C     C_3   0.742696 0.042698 0.069306 -0.476881
C20   C     C_3   0.747333 0.958112 0.557796 -0.468192
H29   H     H_    0.277463 0.527425 0.015440 0.172483
H30   H     H_    0.271499 0.465727 0.459467 0.126058
H31   H     H_    0.777418 0.027422 0.015135 0.172484
H32   H     H_    0.771441 0.965729 0.459214 0.126054
H33   H     H_    0.230173 0.573222 0.998170 0.187252
H34   H     H_    0.237597 0.420867 0.547294 0.195387
H35   H     H_    0.730125 0.073217 0.998055 0.187277
H36   H     H_    0.737562 0.920875 0.547153 0.195398
Ba1   Ba    Ba6+2 0.999910 0.466800 0.844920 1.500423
Ba2   Ba    Ba6+2 0.999910 0.533200 0.344920 1.494192
Ba3   Ba    Ba6+2 0.499910 0.966800 0.844920 1.500416
Ba4   Ba    Ba6+2 0.499910 0.033200 0.344920 1.494134
C21   C     C_3   0.841389 0.526247 0.972925 0.423434
C22   C     C_3   0.840865 0.475298 0.450071 0.443822
C23   C     C_3   0.341391 0.026243 0.972878 0.423441
C24   C     C_3   0.340862 0.975299 0.450078 0.443827
H37   H     H_    0.853058 0.521838 0.853220 0.099083
H38   H     H_    0.859206 0.483154 0.341207 0.114268
H39   H     H_    0.353069 0.021826 0.853186 0.099080
H40   H     H_    0.359202 0.983152 0.341212 0.114272
H41   H     H_    0.873614 0.543926 0.049566 0.132142
H42   H     H_    0.867908 0.452469 0.525401 0.093116
H43   H     H_    0.373612 0.043927 0.049516 0.132199
H44   H     H_    0.367906 0.952470 0.525411 0.093115
C25   C     C_3   0.790451 0.555678 0.966260 -0.949060
C26   C     C_3   0.786696 0.451191 0.408143 -0.977362
C27   C     C_3   0.290451 0.055673 0.966161 -0.948953
C28   C     C_3   0.286694 0.951191 0.408158 -0.977370
H45   H     H_    0.757288 0.538898 0.890610 0.259631
H46   H     H_    0.758003 0.475282 0.343396 0.273016
H47   H     H_    0.257293 0.038885 0.890516 0.259612
H48   H     H_    0.258000 0.975281 0.343406 0.273018
H49   H     H_    0.798529 0.590260 0.918466 0.235206
H50   H     H_    0.791727 0.420736 0.333460 0.225687
H51   H     H_    0.298529 0.090251 0.918333 0.235198
H52   H     H_    0.291725 0.920735 0.333481 0.225683
H53   H     H_    0.777427 0.560022 0.084766 0.266533
H54   H     H_    0.769225 0.439773 0.515329 0.259388
H55   H     H_    0.277421 0.060027 0.084655 0.266542
H56   H     H_    0.269222 0.939775 0.515347 0.259389
O45   O     O_3   0.061740 0.523180 0.062830 -0.442850
O46   O     O_3   0.061740 0.476820 0.562830 -0.424238
O47   O     O_3   0.561740 0.023180 0.062830 -0.442872
O48   O     O_3   0.561740 0.976820 0.562830 -0.424234
P13   P     P_3+3 0.928246 0.647051 0.089990 0.433315
P14   P     P_3+3 0.926140 0.354322 0.597168 0.426327
P15   P     P_3+3 0.428221 0.147031 0.089978 0.433237
P16   P     P_3+3 0.426140 0.854322 0.597164 0.426325
C29   C     C_3   0.966689 0.278090 0.491753 0.728599
C30   C     C_3   0.966333 0.731098 0.064965 0.727209
C31   C     C_3   0.466690 0.778090 0.491754 0.728597
C32   C     C_3   0.466203 0.231123 0.065265 0.727428
H57   H     H_    0.952758 0.297903 0.386020 -0.017209
H58   H     H_    0.943454 0.727484 0.949817 -0.022821
H59   H     H_    0.452760 0.797903 0.386019 -0.017211
H60   H     H_    0.443295 0.227557 0.950140 -0.022602
H61   H     H_    0.958436 0.211374 0.373144 0.226593
H62   H     H_    0.967829 0.805465 0.025694 0.220442
H63   H     H_    0.458439 0.711374 0.373144 0.226592
H64   H     H_    0.467609 0.305503 0.026237 0.220392
H65   H     H_    0.999303 0.223556 0.130527 0.172154
H66   H     H_    0.996359 0.774571 0.692058 0.189200
H67   H     H_    0.499311 0.723556 0.130543 0.172151
H68   H     H_    0.496433 0.274539 0.692501 0.189134
N1    N     N_R   0.240093 0.716795 0.181191 -0.080830
N2    N     N_R   0.240169 0.283021 0.682510 -0.077602
N3    N     N_R   0.740078 0.216806 0.181241 -0.080810
N4    N     N_R   0.740155 0.783014 0.682539 -0.077597
N5    N     N_R   0.774741 0.250319 0.232278 -0.083739
N6    N     N_R   0.775219 0.749792 0.731293 -0.081273
N7    N     N_R   0.274751 0.750311 0.232240 -0.083741
N8    N     N_R   0.275235 0.249800 0.731258 -0.081274
C33   C     C_2   0.903646 0.390357 0.299527 -0.513738
C34   C     C_2   0.900290 0.608659 0.798629 -0.403737
C35   C     C_2   0.403643 0.890358 0.299526 -0.513739
C36   C     C_2   0.400303 0.108666 0.798594 -0.403530
C37   C     C_3   0.878768 0.365110 0.415785 0.208915
C38   C     C_3   0.903117 0.651806 0.876803 0.113037
C39   C     C_3   0.378766 0.865107 0.415779 0.208918
C40   C     C_3   0.403131 0.151814 0.876772 0.112946
C41   C     C_2   0.846639 0.326229 0.356012 -0.270157
C42   C     C_2   0.854520 0.678684 0.842921 -0.235457
C43   C     C_2   0.346641 0.826225 0.355998 -0.270158
C44   C     C_2   0.354525 0.178684 0.842893 -0.235494
C45   C     C_2   0.825293 0.324375 0.197496 0.028497
C46   C     C_2   0.826469 0.676745 0.691808 0.012076
C47   C     C_2   0.325297 0.824371 0.197478 0.028490
C48   C     C_2   0.326482 0.176752 0.691770 0.012080
C49   C     C_2   0.842436 0.359297 0.096214 -0.276298
C50   C     C_2   0.839864 0.639603 0.593429 -0.273195
C51   C     C_2   0.342439 0.859296 0.096203 -0.276291
C52   C     C_2   0.339879 0.139611 0.593388 -0.273126
C53   C     C_1   0.877571 0.394652 0.152071 0.357523
C54   C     C_1   0.875345 0.604758 0.650186 0.328670
C55   C     C_1   0.377570 0.894652 0.152067 0.357527
C56   C     C_1   0.375354 0.104764 0.650157 0.328613
N9    N     N_R   0.759804 0.287724 0.993880 -0.078130
N10   N     N_R   0.759410 0.712515 0.492264 -0.072439
N11   N     N_R   0.259821 0.787714 0.993838 -0.078123
N12   N     N_R   0.259420 0.212520 0.492235 -0.072445
N13   N     N_R   0.225228 0.754198 0.942794 -0.080470
N14   N     N_R   0.224353 0.245690 0.443582 -0.077270
N15   N     N_R   0.725205 0.254211 0.942850 -0.080489
N16   N     N_R   0.724346 0.745686 0.443605 -0.077262
C57   C     C_R   0.214424 0.717771 0.034858 0.132154
C58   C     C_R   0.213821 0.281896 0.537105 0.138859
C59   C     C_R   0.714402 0.217785 0.034918 0.132190
C60   C     C_R   0.713813 0.781892 0.537127 0.138822
C61   C     C_R   0.785727 0.286610 0.139825 0.148784
C62   C     C_R   0.785695 0.713588 0.637650 0.145849
C63   C     C_R   0.285737 0.786603 0.139792 0.148789
C64   C     C_R   0.285709 0.213595 0.637614 0.145853
C65   C     C_R   0.162207 0.639947 0.078527 -0.295556
C66   C     C_R   0.162057 0.359628 0.583620 -0.315783
C67   C     C_R   0.662197 0.139954 0.078574 -0.295736
C68   C     C_R   0.662053 0.859627 0.583630 -0.315759
C69   C     C_R   0.130611 0.602070 0.017725 0.249584
C70   C     C_R   0.121087 0.392024 0.535522 0.282036
C71   C     C_R   0.630603 0.102077 0.017757 0.249654
C72   C     C_R   0.621085 0.892023 0.535526 0.282042
C73   C     C_R   0.119808 0.643058 0.766349 0.256073
C74   C     C_R   0.105108 0.347694 0.289871 0.189949
C75   C     C_R   0.619777 0.143080 0.766423 0.256190
C76   C     C_R   0.605106 0.847694 0.289877 0.189940
C77   C     C_R   0.152601 0.679907 0.826546 -0.284611
C78   C     C_R   0.145984 0.315913 0.338199 -0.293194
C79   C     C_R   0.652565 0.179931 0.826626 -0.284668
C80   C     C_R   0.645980 0.815912 0.338210 -0.293199
C81   C     C_R   0.176397 0.679263 0.974925 0.035998
C82   C     C_R   0.173179 0.318674 0.482298 0.054424
C83   C     C_R   0.676372 0.179280 0.974992 0.036024
C84   C     C_R   0.673173 0.818672 0.482312 0.054423
C85   C     C_R   0.115613 0.601309 0.862408 -0.254516
C86   C     C_R   0.089957 0.382728 0.403213 -0.159951
C87   C     C_R   0.615602 0.101322 0.862445 -0.254424
C88   C     C_R   0.589956 0.882728 0.403215 -0.159963
H69   H     H_    0.833951 0.300873 0.437498 0.151710
H70   H     H_    0.844696 0.705260 0.924284 0.148656
H71   H     H_    0.333954 0.800867 0.437478 0.151707
H72   H     H_    0.344687 0.205250 0.924273 0.148647
H73   H     H_    0.827188 0.359135 0.974494 0.171874
H74   H     H_    0.820762 0.637105 0.475526 0.170092
H75   H     H_    0.327193 0.859133 0.974482 0.171879
H76   H     H_    0.320783 0.137116 0.475480 0.170102
H77   H     H_    0.176251 0.640678 0.200686 0.176036
H78   H     H_    0.186422 0.364881 0.692694 0.168745
H79   H     H_    0.676251 0.140675 0.200727 0.176088
H80   H     H_    0.686419 0.864882 0.692701 0.168755
H81   H     H_    0.157880 0.709322 0.752378 0.166606
H82   H     H_    0.154885 0.288734 0.258495 0.167657
H83   H     H_    0.657837 0.209349 0.752468 0.166597
H84   H     H_    0.654881 0.788732 0.258509 0.167661
H85   H     H_    0.930244 0.418191 0.341617 0.137330
H86   H     H_    0.914897 0.578399 0.860660 0.105922
H87   H     H_    0.430240 0.918192 0.341620 0.137329
H88   H     H_    0.414897 0.078404 0.860632 0.105901
C89   C     C_3   0.028993 0.276735 0.501387 -0.381476
C90   C     C_3   0.055511 0.246028 0.630293 -0.763714
H89   H     H_    0.042231 0.256406 0.743761 0.289127
H90   H     H_    0.045518 0.209131 0.607216 0.234338
H91   H     H_    0.100255 0.250001 0.635951 0.244879
H92   H     H_    0.042127 0.265231 0.388250 0.157964
H93   H     H_    0.043980 0.312302 0.524213 0.194635
C91   C     C_3   0.026791 0.723891 0.042265 -0.461016
C92   C     C_3   0.063524 0.726337 0.193589 -0.647679
H94   H     H_    0.061750 0.760782 0.248991 0.225973
H95   H     H_    0.050987 0.699398 0.273010 0.312609
H96   H     H_    0.106096 0.719981 0.170765 0.226662
H97   H     H_    0.031886 0.689456 0.988593 0.165053
H98   H     H_    0.040254 0.750139 0.960439 0.175931
C93   C     C_3   0.528994 0.776736 0.501393 -0.381475
C94   C     C_3   0.555512 0.746029 0.630298 -0.763714
H99   H     H_    0.542231 0.756406 0.743765 0.289126
H100  H     H_    0.545520 0.709131 0.607220 0.234337
H101  H     H_    0.600257 0.750001 0.635961 0.244882
H102  H     H_    0.542130 0.765232 0.388256 0.157962
H103  H     H_    0.543980 0.812302 0.524221 0.194638
C95   C     C_3   0.526654 0.223942 0.042416 -0.462393
C96   C     C_3   0.563380 0.226100 0.193799 -0.645929
H104  H     H_    0.561532 0.260397 0.250147 0.226125
H105  H     H_    0.550898 0.198931 0.272441 0.312484
H106  H     H_    0.605968 0.219899 0.170799 0.226282
H107  H     H_    0.531716 0.189600 0.988067 0.164841
H108  H     H_    0.540149 0.250331 0.961136 0.176155
C97   C     C_3   0.262628 0.557821 0.235124 -0.166168
C98   C     C_3   0.306869 0.594602 0.234389 -0.958487
H109  H     H_    0.342295 0.580845 0.179578 0.264522
H110  H     H_    0.291132 0.625589 0.169560 0.272321
H111  H     H_    0.320383 0.605004 0.355519 0.253601
H112  H     H_    0.228622 0.572295 0.294411 0.213078
H113  H     H_    0.279330 0.527567 0.301416 0.175588
C99   C     C_3   0.282631 0.468293 0.710052 -0.182270
C100  C     C_3   0.274372 0.432103 0.833868 -0.895396
H114  H     H_    0.230824 0.429166 0.852644 0.278852
H115  H     H_    0.288860 0.397879 0.797089 0.254287
H116  H     H_    0.297851 0.441955 0.944768 0.228839
H117  H     H_    0.326088 0.467770 0.687606 0.175082
H118  H     H_    0.273964 0.503314 0.753807 0.183069
C101  C     C_3   0.762670 0.057800 0.234917 -0.166309
C102  C     C_3   0.806890 0.094596 0.234060 -0.958444
H119  H     H_    0.842285 0.080863 0.179047 0.264524
H120  H     H_    0.791106 0.125591 0.169366 0.272317
H121  H     H_    0.820465 0.104977 0.355170 0.253602
H122  H     H_    0.728687 0.072257 0.294350 0.213096
H123  H     H_    0.779412 0.027544 0.301119 0.175609
C103  C     C_3   0.782656 0.968297 0.709791 -0.182319
C104  C     C_3   0.774411 0.932126 0.833676 -0.895340
H124  H     H_    0.788861 0.897892 0.796891 0.254282
H125  H     H_    0.797927 0.941977 0.944515 0.228857
H126  H     H_    0.730871 0.929211 0.852571 0.278823
H127  H     H_    0.826101 0.967749 0.687229 0.175089
H128  H     H_    0.774029 0.003327 0.753531 0.183045
C105  C     C_3   0.079116 0.564609 0.792656 -0.222936
C106  C     C_3   0.022985 0.578556 0.836576 -0.554434
H129  H     H_    0.027012 0.586578 0.956052 0.233170
H130  H     H_    0.007194 0.612513 0.798172 0.157996
H131  H     H_    0.993696 0.551294 0.820451 0.256053
H132  H     H_    0.082387 0.560282 0.667294 0.231417
H133  H     H_    0.092031 0.529965 0.830957 0.212569
C107  C     C_3   0.042853 0.410882 0.351522 -0.416864
C108  C     C_3   0.063199 0.449327 0.252717 -0.425263
H134  H     H_    0.084724 0.476579 0.320651 0.234039
H135  H     H_    0.092760 0.438080 0.171851 0.214675
H136  H     H_    0.027775 0.463158 0.185726 0.297007
H137  H     H_    0.011293 0.387472 0.299382 0.161150
H138  H     H_    0.018207 0.423559 0.437795 0.243011
C109  C     C_3   0.579118 0.064616 0.792669 -0.223026
C110  C     C_3   0.522983 0.078554 0.836567 -0.554401
H139  H     H_    0.526999 0.086567 0.956045 0.233215
H140  H     H_    0.507193 0.112513 0.798177 0.158015
H141  H     H_    0.493698 0.051292 0.820412 0.256063
H142  H     H_    0.582397 0.060291 0.667310 0.231435
H143  H     H_    0.592035 0.029973 0.830965 0.212537
C111  C     C_3   0.542851 0.910883 0.351522 -0.416818
C112  C     C_3   0.563196 0.949328 0.252713 -0.425306
H144  H     H_    0.584715 0.976583 0.320643 0.234029
H145  H     H_    0.592762 0.938081 0.171860 0.214662
H146  H     H_    0.527773 0.963156 0.185712 0.297018
H147  H     H_    0.511291 0.887473 0.299382 0.161144
H148  H     H_    0.518204 0.923561 0.437793 0.243009
C113  C     C_3   0.914874 0.232359 0.047497 -0.389682
C114  C     C_3   0.879576 0.241872 0.896591 -0.765618
H149  H     H_    0.877767 0.279439 0.872659 0.279238
H150  H     H_    0.895515 0.223568 0.797840 0.260503
H151  H     H_    0.837837 0.229079 0.907008 0.234858
H152  H     H_    0.909439 0.195513 0.078552 0.218012
H153  H     H_    0.900975 0.253698 0.142621 0.214444
C115  C     C_3   0.914681 0.761495 0.586275 -0.328885
C116  C     C_3   0.897157 0.811743 0.565726 -0.859552
H154  H     H_    0.916586 0.833241 0.662072 0.255963
H155  H     H_    0.908546 0.825297 0.453240 0.260188
H156  H     H_    0.852436 0.814136 0.566534 0.252179
H157  H     H_    0.894010 0.740672 0.489872 0.228872
H158  H     H_    0.901901 0.748926 0.697853 0.203295
C117  C     C_3   0.414882 0.732353 0.047497 -0.389681
C118  C     C_3   0.379587 0.741861 0.896583 -0.765624
H159  H     H_    0.377774 0.779428 0.872646 0.279240
H160  H     H_    0.395530 0.723557 0.797839 0.260499
H161  H     H_    0.337849 0.729065 0.906993 0.234856
H162  H     H_    0.409449 0.695507 0.078558 0.218006
H163  H     H_    0.400980 0.753693 0.142614 0.214444
C119  C     C_3   0.414759 0.261565 0.586503 -0.328926
C120  C     C_3   0.397287 0.311837 0.566375 -0.859669
H164  H     H_    0.416714 0.333250 0.662946 0.255976
H165  H     H_    0.408718 0.325474 0.454043 0.260190
H166  H     H_    0.352565 0.314251 0.567117 0.252184
H167  H     H_    0.394088 0.240826 0.489885 0.228881
H168  H     H_    0.401940 0.248914 0.697932 0.203276

loop_
_geom_bond_atom_site_label_1
_geom_bond_atom_site_label_2
_geom_bond_distance
_ccdc_geom_bond_type
C28   H56   1.110639 S    
O25   Ba1   2.834443 S    
C98   H111  1.110405 S    
C73   C85   1.477328 S    
P5    O37   1.751738 S    
P7    O39   1.751757 S    
P15   C40   1.895393 S    
N2    N8    1.339404 A    
P8    O40   1.752541 S    
N3    N5    1.339884 A    
P9    O33   1.545625 D    
C95   C96   1.523149 S    
O5    Ba2   2.827878 S    
N11   C63   1.361711 A    
C30   H58   1.103066 S    
C1    H1    1.109798 S    
C2    H6    1.110977 S    
O17   C21   1.391767 S    
C34   H86   1.073913 S    
C102  H121  1.110401 S    
P11   C76   1.897922 S    
C93   C94   1.527666 S    
C85   C105  1.482921 S    
C107  C108  1.518708 S    
C6    H10   1.112806 S    
P12   O36   1.545083 D    
P4    O8    1.570346 S    
P6    C69   1.914632 S    
C7    C11   1.531589 S    
O8    Ba3   2.836871 S    
O1    Ba1   2.827718 S    
C52   H76   1.085211 S    
C66   H78   1.081082 S    
C26   H46   1.110851 S    
P1    Ba1   3.437447 S    
P5    O25   1.576874 D    
C116  H155  1.110910 S    
O29   Ba1   2.816086 S    
P14   C37   1.895052 S    
C65   C69   1.416604 A    
O20   C24   1.394105 S    
C65   C81   1.511506 S    
C42   H70   1.085699 S    
C103  H128  1.110381 S    
O10   Ba2   2.815432 S    
C51   H75   1.084606 S    
Ba3   O48   3.016434 S    
C69   C85   1.360056 D    
O26   Ba2   2.829671 S    
Ba1   O46   3.016434 S    
C42   C46   1.422116 A    
N5    C61   1.364257 A    
C12   H68   1.111953 S    
N11   N13   1.338898 A    
C101  C102  1.526295 S    
O44   C8    1.402560 S    
C115  C116  1.525355 S    
O32   Ba4   2.809096 S    
P8    C71   1.914559 S    
N10   C62   1.360683 A    
C66   C82   1.514876 S    
C34   C38   1.418028 A    
O6    Ba1   2.836871 S    
C25   H45   1.110623 S    
C99   C100  1.527250 S    
C68   H80   1.081091 S    
P13   C38   1.895411 S    
O11   Ba3   2.808416 S    
C2    H62   1.111253 S    
C26   H50   1.106645 S    
C27   H55   1.110919 S    
O18   C22   1.394101 S    
C106  H131  1.070458 S    
C13   C17   1.543305 S    
O22   P13   1.760363 S    
C12   H20   1.108504 S    
C15   C19   1.543286 S    
Ba4   O47   3.016406 S    
C23   H39   1.108818 S    
O4    Ba4   2.832435 S    
O16   P15   1.546509 D    
C117  H163  1.109537 S    
C9    C113  1.534341 S    
C93   H102  1.111418 S    
C89   H92   1.111419 S    
C71   C87   1.360024 D    
P2    Ba2   3.438803 S    
O42   C6    1.402535 S    
O30   Ba2   2.809096 S    
O10   P13   1.770429 S    
C59   C83   1.515957 S    
C78   C82   1.361792 D    
O12   P15   1.770511 S    
C6    C10   1.529945 S    
P3    O7    1.565526 S    
C16   C20   1.536879 S    
P11   O35   1.545625 D    
C2    C30   1.530367 S    
C25   H53   1.110919 S    
P8    Ba4   3.438993 S    
C50   H74   1.085212 S    
C91   H98   1.111608 S    
C117  C118  1.526706 S    
C19   H31   1.110371 S    
O40   C15   1.405820 S    
P6    O45   1.570740 S    
C119  H167  1.112075 S    
C12   C119  1.530142 S    
C36   C40   1.418049 A    
C75   C79   1.407815 A    
C113  H153  1.109536 S    
O23   P16   1.757103 S    
C115  H158  1.106199 S    
C5    H13   1.110274 S    
C7    H15   1.110275 S    
C99   H118  1.110429 S    
C97   H113  1.107414 S    
C35   C55   1.380201 A    
C4    H4    1.104908 S    
C48   C64   1.515022 S    
C76   C88   1.483344 S    
O19   C23   1.391768 S    
C89   C90   1.527668 S    
O41   C5    1.404927 S    
C111  H147  1.096696 S    
C80   C84   1.361795 D    
C22   H38   1.107748 S    
C113  H152  1.111641 S    
C108  H135  1.108910 S    
C14   C18   1.536902 S    
C106  H130  1.099446 S    
C4    C32   1.530361 S    
C105  H132  1.102436 S    
P6    Ba2   3.438993 S    
P5    O46   1.575632 S    
C20   C103  1.536396 S    
C117  H162  1.111641 S    
C120  H166  1.110613 S    
C21   C25   1.521012 S    
C109  H142  1.102437 S    
P6    O38   1.752531 S    
P5    C70   1.911715 S    
C101  H123  1.107417 S    
P8    O28   1.575521 D    
C102  H120  1.110813 S    
P9    O29   1.801932 S    
C95   H107  1.111727 S    
C33   C53   1.380203 A    
P10   O34   1.545123 D    
C96   H106  1.106886 S    
N15   C59   1.364147 A    
C100  H115  1.111144 S    
C65   H77   1.081117 S    
C118  H159  1.107934 S    
C60   C84   1.513035 S    
N4    N6    1.339402 A    
C51   C55   1.397107 A    
C2    H2    1.104956 S    
C31   H59   1.108289 S    
C67   C83   1.511511 S    
C32   H60   1.103077 S    
C110  H139  1.054558 S    
C20   H36   1.106113 S    
C35   H87   1.080008 S    
C109  H143  1.096029 S    
C18   C99   1.536407 S    
C107  H137  1.096691 S    
C74   C78   1.404516 A    
C11   H67   1.111245 S    
P2    O18   1.748134 S    
C36   C56   1.375706 A    
N14   C58   1.364053 A    
C114  H150  1.109337 S    
N2    C58   1.361468 A    
C28   H48   1.110851 S    
C97   C98   1.526284 S    
C25   H49   1.109007 S    
P16   C39   1.895071 S    
C72   C88   1.344422 D    
C45   C61   1.517854 S    
P6    O26   1.575521 D    
C104  H125  1.110091 S    
P9    O41   1.747802 S    
C1    H5    1.109995 S    
O37   C14   1.410626 S    
C114  H151  1.108871 S    
N1    N7    1.339883 A    
P1    C53   1.855585 S    
Ba2   O45   3.016406 S    
N12   N14   1.338131 A    
C41   C45   1.423227 A    
C90   H89   1.106110 S    
N12   C64   1.360683 A    
C44   C48   1.422109 A    
C8    H16   1.111738 S    
C32   C95   1.543267 S    
C50   C54   1.398610 A    
C33   C37   1.429769 A    
C4    H64   1.111244 S    
P5    Ba1   3.440380 S    
P10   C73   1.887272 S    
C13   H21   1.107863 S    
C93   H103  1.104758 S    
C47   C51   1.429172 A    
C27   H51   1.109007 S    
C15   H23   1.107879 S    
C45   C49   1.429174 A    
P4    C56   1.843073 S    
C112  H146  1.082681 S    
C94   H99   1.106109 S    
O24   P15   1.760328 S    
C96   H104  1.108522 S    
C79   C83   1.361061 D    
C15   H27   1.102725 S    
C21   H41   1.111122 S    
C118  H161  1.108870 S    
C9    H17   1.110719 S    
C23   H43   1.111109 S    
C11   H19   1.110719 S    
O13   P14   1.542593 D    
C110  H141  1.070423 S    
C90   H91   1.110203 S    
C17   C97   1.533397 S    
C116  H154  1.110953 S    
P1    O17   1.750933 S    
P1    O1    1.575345 D    
C48   C52   1.429607 A    
C1    C29   1.531629 S    
O9    P14   1.769300 S    
P10   O42   1.748847 S    
P3    O3    1.575345 D    
P4    O20   1.748136 S    
C96   H105  1.103696 S    
C17   H33   1.106820 S    
O38   C13   1.405826 S    
Ba3   O47   2.826836 S    
P8    O47   1.570740 S    
C19   H35   1.106800 S    
C98   H109  1.110798 S    
C38   C42   1.441964 A    
Ba1   O45   2.826836 S    
C119  C120  1.525351 S    
P7    O48   1.575632 S    
C47   C63   1.517873 S    
C5    H9    1.109496 S    
C79   H83   1.082483 S    
C8    H12   1.112794 S    
C67   H79   1.081121 S    
C92   H94   1.108614 S    
O12   Ba4   2.815432 S    
O11   P16   1.769315 S    
C14   H22   1.109661 S    
C103  H127  1.111798 S    
O28   Ba4   2.829671 S    
O23   C31   1.410137 S    
O21   C29   1.410138 S    
P1    O5    1.565526 S    
C43   H71   1.085242 S    
Ba4   O48   2.835820 S    
C41   H69   1.085240 S    
C10   H18   1.108520 S    
O27   Ba3   2.834443 S    
N6    C62   1.364300 A    
C88   C111  1.460509 S    
C109  C110  1.530685 S    
C22   C26   1.523086 S    
C39   C43   1.443153 A    
C112  H144  1.090282 S    
C94   H101  1.110203 S    
C75   C87   1.477304 S    
P10   O30   1.804664 S    
N9    N15   1.338892 A    
C120  H165  1.110901 S    
P12   O44   1.748837 S    
O7    Ba4   2.827878 S    
N9    C61   1.361706 A    
C101  H122  1.109757 S    
C31   C93   1.537956 S    
C3    H3    1.109797 S    
C44   H72   1.085700 S    
C119  H168  1.106175 S    
C20   H32   1.108925 S    
C116  H156  1.110607 S    
Ba1   Ba2   4.737905 S    
C10   H66   1.111961 S    
C103  C104  1.527249 S    
P4    Ba4   3.438803 S    
C78   H82   1.082390 S    
C3    C31   1.531632 S    
C24   H44   1.109726 S    
C28   H52   1.106648 S    
C27   H47   1.110623 S    
C97   H112  1.109746 S    
P3    Ba3   3.437447 S    
P7    O27   1.576874 D    
O31   Ba3   2.816088 S    
C111  H148  1.073133 S    
O43   C7    1.404924 S    
P9    C74   1.897925 S    
C58   C82   1.513033 S    
C29   H57   1.108290 S    
C108  H134  1.090301 S    
C73   C77   1.407831 A    
C5    C9    1.531590 S    
C67   C71   1.416611 A    
C36   H88   1.073918 S    
C91   C92   1.523172 S    
C92   H96   1.106829 S    
C87   C109  1.482928 S    
C49   H73   1.084607 S    
C33   H85   1.080007 S    
Ba3   Ba4   4.737905 S    
N7    C63   1.364254 A    
C104  H124  1.111089 S    
C95   H108  1.111541 S    
C74   C86   1.483346 S    
C6    H14   1.111737 S    
C100  H114  1.108911 S    
P3    O19   1.750930 S    
C120  H164  1.110942 S    
C80   H84   1.082392 S    
C16   H24   1.109668 S    
C52   C56   1.398601 A    
C118  H160  1.109336 S    
C110  H140  1.099443 S    
C89   H93   1.104759 S    
C30   C91   1.543249 S    
C107  H138  1.073131 S    
P2    C54   1.843103 S    
C76   C80   1.404521 A    
O3    Ba3   2.827718 S    
C21   H37   1.108817 S    
P7    Ba3   3.440380 S    
O2    Ba2   2.832435 S    
O39   C16   1.410617 S    
P3    C55   1.855579 S    
N8    C64   1.364299 A    
O14   P13   1.546527 D    
C43   C47   1.423239 A    
N16   C60   1.364054 A    
C19   C101  1.533396 S    
C34   C54   1.375723 A    
N10   N16   1.338134 A    
C115  H157  1.112080 S    
C77   C81   1.361067 D    
P2    O2    1.576703 D    
C26   H54   1.110639 S    
P11   O43   1.747802 S    
C66   C70   1.417438 A    
C35   C39   1.429764 A    
C17   H29   1.110385 S    
C99   H117  1.111799 S    
C3    H63   1.109074 S    
C1    H61   1.109075 S    
C10   C115  1.530122 S    
Ba2   O46   2.835820 S    
P12   C75   1.887212 S    
C37   C41   1.443138 A    
C90   H90   1.109454 S    
C70   C86   1.344422 D    
C40   C44   1.442001 A    
C13   H25   1.102754 S    
O21   P14   1.757100 S    
C91   H97   1.111747 S    
C108  H136  1.082682 S    
C106  H129  1.054590 S    
N3    C59   1.362176 A    
C105  H133  1.096040 S    
C23   C27   1.521009 S    
N13   C57   1.364150 A    
N1    C57   1.362181 A    
O15   P16   1.542595 D    
C8    C12   1.529961 S    
C46   C62   1.515032 S    
C11   C117  1.534340 S    
C102  H119  1.110784 S    
C112  H145  1.108912 S    
C94   H100  1.109455 S    
C86   C107  1.460497 S    
C100  H116  1.110110 S    
O22   C30   1.419815 S    
P2    O6    1.570346 S    
C68   C72   1.417436 A    
C29   C89   1.537959 S    
C16   H28   1.104505 S    
P11   O31   1.801932 S    
P12   O32   1.804714 S    
C24   C28   1.523085 S    
C68   C84   1.514877 S    
N4    C60   1.361470 A    
C77   H81   1.082486 S    
P4    O4    1.576703 D    
C92   H95   1.103811 S    
P7    C72   1.911690 S    
C7    H11   1.109494 S    
C114  H149  1.107931 S    
C49   C53   1.397107 A    
C3    H7    1.109994 S    
C18   H30   1.108904 S    
C98   H110  1.110822 S    
C4    H8    1.110982 S    
C105  C106  1.530722 S    
C57   C81   1.515972 S    
C18   H34   1.106126 S    
C46   C50   1.429624 A    
C111  C112  1.518710 S    
C104  H126  1.108906 S    
O24   C32   1.419800 S    
C9    H65   1.111244 S    
C22   H42   1.109722 S    
C113  C114  1.526706 S    
C14   H26   1.104539 S    
O9    Ba1   2.808416 S    
C24   H40   1.107750 S    
