data_mof_unit_34944.cif
_audit_creation_date              2012-12-10T16:46:43-0500
_audit_creation_method            fapswitch 2.2
_symmetry_space_group_name_H-M    P1
_symmetry_Int_Tables_number       1
_space_group_crystal_system       triclinic
_cell_length_a                    15.873254
_cell_length_b                    8.686686
_cell_length_c                    7.465669
_cell_angle_alpha                 103.131564
_cell_angle_beta                  93.524149
_cell_angle_gamma                 92.219824
_cell_volume                      999.125533723

loop_
_atom_site_label
_atom_site_type_symbol
_atom_type_description
_atom_site_fract_x
_atom_site_fract_y
_atom_site_fract_z
_atom_type_partial_charge
C1    C     C_R   0.497470 0.199780 0.453218 0.878154
C2    C     C_3   0.947607 0.369738 0.592227 0.224039
C3    C     C_3   0.916296 0.495281 0.486711 -0.034533
C4    C     C_3   0.955848 0.659710 0.591905 -0.589833
C5    C     C_3   0.053858 0.654990 0.615403 0.168746
C6    C     C_1   0.823994 0.497283 0.484875 0.083725
C7    C     C_1   0.175764 0.496571 0.510265 0.061930
C8    C     C_1   0.251262 0.498560 0.510388 -0.100794
C9    C     C_2   0.496240 0.031723 0.427110 -0.350619
C10   C     C_2   0.503666 0.968272 0.572895 -0.355001
C11   C     C_R   0.340504 0.499708 0.503428 0.813584
C12   C     C_R   0.502488 0.800218 0.546784 0.879012
C13   C     C_R   0.659501 0.500120 0.496501 0.810123
C14   C     C_3   0.045514 0.354011 0.583328 0.656276
C15   C     C_3   0.047120 0.471869 0.292976 0.233735
C16   C     C_3   0.946887 0.451874 0.286152 0.144668
C17   C     C_1   0.748678 0.498734 0.488434 -0.137333
C18   C     C_3   0.082983 0.493237 0.501189 -0.115581
Cu1   Cu    Cu3+1 0.509300 0.517380 0.684380 0.977466
Cu2   Cu    Cu3+1 0.490700 0.482620 0.315620 0.986680
H1    H     H_    0.932762 0.411915 0.739266 0.155917
H2    H     H_    0.938916 0.752090 0.516795 0.231384
H3    H     H_    0.489236 0.959877 0.286753 0.183239
H4    H     H_    0.510663 0.040118 0.713252 0.181610
H5    H     H_    0.434920 0.377196 0.949246 0.232789
H6    H     H_    0.565071 0.622819 0.050759 0.228838
H7    H     H_    0.926025 0.325480 0.231643 0.202431
H8    H     H_    0.081810 0.753970 0.563191 0.198142
H9    H     H_    0.928591 0.696428 0.728048 0.216805
N1    N     N_2   0.476670 0.456430 0.038530 -0.207878
N2    N     N_2   0.523330 0.543570 0.961470 -0.211598
O1    O     O_R   0.506050 0.286130 0.619770 -0.586747
O2    O     O_R   0.490330 0.256780 0.308370 -0.583650
O3    O     O_R   0.387300 0.514690 0.655770 -0.581490
O4    O     O_R   0.371580 0.485340 0.344370 -0.551375
O5    O     O_R   0.509670 0.743220 0.691630 -0.583420
O6    O     O_R   0.493950 0.713870 0.380230 -0.584450
O7    O     O_R   0.628420 0.514660 0.655630 -0.569942
O8    O     O_R   0.612700 0.485310 0.344230 -0.581940
O9    O     O_3   0.903367 0.222646 0.520800 -0.700111
H10   H     H_    0.912146 0.158533 0.614197 0.356988
O10   O     O_3   0.080264 0.362730 0.764362 -0.696333
H11   H     H_    0.140797 0.338989 0.759377 0.349887
O11   O     O_3   0.060708 0.204389 0.472151 -0.703551
H12   H     H_    0.122705 0.194055 0.470844 0.325665
C19   C     C_2   0.078019 0.614132 0.220247 0.927669
O12   O     O_2   0.146612 0.611902 0.153399 -0.514731
O13   O     O_R   0.031764 0.750069 0.237585 -0.793471
H13   H     H_    0.061245 0.836428 0.189326 0.361398
O14   O     O_3   0.081773 0.338522 0.180349 -0.677099
H14   H     H_    0.043757 0.242394 0.161428 0.360431
O15   O     O_3   0.906612 0.530633 0.161320 -0.716651
H15   H     H_    0.884849 0.630631 0.230139 0.365120
O16   O     O_3   0.084262 0.684865 0.801746 -0.651449
H16   H     H_    0.043439 0.635148 0.869325 0.383130

loop_
_geom_bond_atom_site_label_1
_geom_bond_atom_site_label_2
_ccdc_geom_bond_type
C15   C16   S    
C15   C18   S    
O9    H10   S    
Cu1   O7    S    
C2    O9    S    
C12   O5    A    
C5    H8    S    
C4    H2    S    
C9    C10   D    
C14   C18   S    
Cu1   Cu2   S    
C13   C17   S    
C14   O10   S    
C7    C18   S    
Cu1   N2    S    
C3    C6    S    
C16   H7    S    
C11   O4    A    
C2    C3    S    
C1    O2    A    
H6    N2    S    
Cu2   N1    S    
O11   H12   S    
Cu2   O6    S    
C13   O7    A    
C10   C12   S    
C2    H1    S    
C8    C11   S    
Cu1   O1    S    
O13   H13   S    
O14   H14   S    
Cu1   O5    S    
C11   O3    A    
N1    N2    D    
C2    C14   S    
C19   O13   S    
C13   O8    A    
O10   H11   S    
Cu2   O2    S    
C3    C4    S    
C16   O15   S    
C5    O16   S    
C7    C8    T    
C1    C9    S    
O15   H15   S    
C14   O11   S    
C12   O6    A    
C15   O14   S    
H5    N1    S    
C6    C17   T    
Cu2   O8    S    
O16   H16   S    
C9    H3    S    
C5    C18   S    
C15   C19   S    
C10   H4    S    
C19   O12   D    
Cu2   O4    S    
C1    O1    A    
C3    C16   S    
C4    H9    S    
C4    C5    S    
Cu1   O3    S    
