data_mof_unit_68392.cif
_audit_creation_date              2013-03-05T16:05:29-0500
_audit_creation_method            fapswitch 2.2
_symmetry_space_group_name_H-M    P1
_symmetry_Int_Tables_number       1
_space_group_crystal_system       triclinic
_cell_length_a                    10.983695
_cell_length_b                    9.665808
_cell_length_c                    10.778534
_cell_angle_alpha                 91.066072
_cell_angle_beta                  94.257131
_cell_angle_gamma                 92.497067
_cell_volume                      1139.80217748

loop_
_atom_site_label
_atom_site_type_symbol
_atom_site_description
_atom_site_fract_x
_atom_site_fract_y
_atom_site_fract_z
_atom_type_partial_charge
O1    O     O_R   0.319640 0.618740 0.499990 -0.542210
O2    O     O_R   0.680360 0.381260 0.500010 -0.537473
O3    O     O_R   0.680360 0.618740 0.500010 -0.553179
O4    O     O_R   0.319640 0.381260 0.499990 -0.528321
C1    C     C_R   0.872007 0.507777 0.493106 -0.362970
C2    C     C_R   0.128321 0.490169 0.507615 -0.325714
C3    C     C_R   0.262431 0.496530 0.501727 0.912546
C4    C     C_R   0.737682 0.503027 0.498294 0.866252
O5    O     O_R   0.499970 0.618770 0.316850 -0.549547
O6    O     O_R   0.500030 0.381230 0.683150 -0.537610
O7    O     O_R   0.500030 0.618770 0.683150 -0.533989
O8    O     O_R   0.499970 0.381230 0.316850 -0.531681
C5    C     C_R   0.500028 0.498597 0.260107 0.919160
C6    C     C_R   0.498960 0.501685 0.739697 0.968161
Cu1   Cu    Cu3+1 0.500000 0.640660 0.500000 1.139741
Cu2   Cu    Cu3+1 0.500000 0.359340 0.500000 1.156195
N1    N     N_R   0.500000 0.852070 0.500000 -0.315962
N2    N     N_R   0.500000 0.147930 0.500000 -0.310372
C7    C     C_3   0.390152 0.531280 0.035226 0.143313
C8    C     C_3   0.609595 0.471239 0.963059 0.134624
C9    C     C_3   0.472877 0.627636 0.963463 0.242986
C10   C     C_3   0.527253 0.373566 0.035299 0.147633
C11   C     C_3   0.415554 0.409002 0.948247 0.286274
C12   C     C_3   0.584416 0.592729 0.050892 0.310011
C13   C     C_3   0.498642 0.506254 0.875450 -0.321965
C14   C     C_3   0.500985 0.495880 0.124168 -0.401374
C15   C     C_R   0.432146 0.067147 0.409922 0.344494
C16   C     C_R   0.567479 0.932895 0.590697 0.304677
C17   C     C_R   0.572812 0.080415 0.585210 0.313344
C18   C     C_R   0.426703 0.919644 0.415337 0.317657
C19   C     C_R   0.052275 0.381537 0.450513 0.251025
C20   C     C_R   0.948451 0.614098 0.553559 0.225846
C21   C     C_R   0.925685 0.395189 0.436943 0.225762
C22   C     C_R   0.075037 0.602219 0.563817 0.231211
N3    N     N_R   0.376738 0.127064 0.299928 0.166697
O9    O     O_R   0.308509 0.232035 0.305967 -0.290950
O10   O     O_R   0.384264 0.067260 0.192041 -0.287059
N4    N     N_R   0.623140 0.873039 0.701003 0.186857
O11   O     O_R   0.688257 0.765672 0.695200 -0.242535
O12   O     O_R   0.618647 0.933874 0.808979 -0.201106
N5    N     N_R   0.665579 0.156866 0.661406 0.180175
O13   O     O_R   0.641397 0.202079 0.770444 -0.234835
O14   O     O_R   0.779369 0.143441 0.639627 -0.247178
N6    N     N_R   0.331805 0.843610 0.341647 0.182230
O15   O     O_R   0.352129 0.797671 0.231624 -0.235023
O16   O     O_R   0.219209 0.854979 0.368774 -0.266605
O17   O     O_3   0.328140 0.317878 0.882937 -0.548885
C23   C     C_3   0.261922 0.237400 0.965188 0.156966
H1    H     H_    0.279605 0.268479 0.064907 0.203206
H2    H     H_    0.286778 0.127810 0.955209 0.244201
C24   C     C_3   0.125781 0.245772 0.929562 -0.523944
H3    H     H_    0.104293 0.208188 0.832030 0.267184
H4    H     H_    0.072857 0.180573 0.992236 0.252500
H5    H     H_    0.098339 0.354588 0.938149 0.273856
O18   O     O_3   0.666922 0.700228 0.098821 -0.493494
C25   C     C_3   0.766937 0.645520 0.167850 0.101666
H6    H     H_    0.825163 0.588972 0.106151 0.221311
H7    H     H_    0.736592 0.575505 0.241043 0.115609
C26   C     C_3   0.844803 0.764265 0.230863 -0.496466
H8    H     H_    0.788829 0.824944 0.291958 0.272162
H9    H     H_    0.923000 0.722923 0.287681 0.204317
H10   H     H_    0.880743 0.833570 0.159711 0.282676
N7    N     N_R   0.269424 0.562850 0.073322 0.175634
O19   O     O_R   0.224107 0.497849 0.165150 -0.351990
O20   O     O_R   0.207963 0.659293 0.018509 -0.205368
N8    N     N_R   0.729676 0.442012 0.922286 0.159411
O21   O     O_R   0.783893 0.528465 0.851101 -0.293928
O22   O     O_R   0.787492 0.336247 0.964954 -0.223550
N9    N     N_R   0.444727 0.769575 0.933319 0.229465
O23   O     O_R   0.461122 0.865613 0.019425 -0.166601
O24   O     O_R   0.390423 0.798898 0.826597 -0.246720
N10   N     N_R   0.556881 0.232927 0.067892 0.214389
O25   O     O_R   0.538807 0.134365 0.984303 -0.184166
O26   O     O_R   0.618065 0.208583 0.172312 -0.230915
N11   N     N_R   0.100115 0.252733 0.413852 0.202232
O27   O     O_R   0.145957 0.172822 0.499507 -0.256465
O28   O     O_R   0.070347 0.200158 0.303061 -0.221763
N12   N     N_R   0.900467 0.735052 0.606064 0.204160
O29   O     O_R   0.864014 0.832316 0.532147 -0.288104
O30   O     O_R   0.926340 0.765414 0.723591 -0.182165
N13   N     N_R   0.852694 0.300034 0.356220 0.173001
O31   O     O_R   0.837835 0.328171 0.238812 -0.306214
O32   O     O_R   0.829279 0.174292 0.391429 -0.222752
N14   N     N_R   0.148837 0.694311 0.646622 0.184036
O33   O     O_R   0.195635 0.646449 0.750541 -0.283560
O34   O     O_R   0.156776 0.826635 0.626642 -0.210150

loop_
_geom_bond_atom_site_label_1
_geom_bond_atom_site_label_2
_geom_bond_distance
_ccdc_geom_bond_type
N8    O22   1.300226 A    
O18   C25   1.408509 S    
N7    O20   1.299954 A    
N5    O13   1.296199 A    
N3    O9    1.290882 A    
N13   O31   1.299257 A    
C12   O18   1.412884 S    
C8    N8    1.458234 S    
C16   C17   1.427052 A    
C7    C9    1.532554 S    
N14   O34   1.301220 A    
N4    O11   1.288943 A    
O7    C6    1.295373 A    
N12   O30   1.302706 A    
C8    C13   1.538954 S    
Cu1   Cu2   2.719185 S    
C25   H6    1.109097 S    
N9    O24   1.297810 A    
C7    C14   1.547033 S    
O5    C5    1.302688 A    
O7    Cu1   1.989283 S    
C23   C24   1.521987 S    
O8    Cu2   1.989284 S    
C7    N7    1.459981 S    
C1    C21   1.408098 A    
C19   C21   1.399510 A    
O1    Cu1   1.983109 S    
O2    Cu2   1.983108 S    
C1    C20   1.415751 A    
C23   H2    1.110630 S    
C2    C19   1.414995 A    
C26   H8    1.110301 S    
C15   C18   1.426842 A    
N1    C18   1.366172 A    
N5    O14   1.300222 A    
C18   N6    1.430406 S    
C22   N14   1.430444 S    
O4    C3    1.303293 A    
C10   N10   1.454853 S    
N13   O32   1.300686 A    
N6    O16   1.300527 A    
C26   H9    1.110561 S    
C11   O17   1.412823 S    
C24   H3    1.110987 S    
C8    C12   1.541920 S    
N14   O33   1.298987 A    
N10   O26   1.298102 A    
O3    C4    1.307680 A    
O6    C6    1.305008 A    
N12   O29   1.300857 A    
C15   N3    1.435447 S    
C2    C22   1.402116 A    
C9    N9    1.456727 S    
C24   H4    1.110686 S    
C20   C22   1.396472 A    
O4    Cu2   2.001467 S    
C7    C11   1.542729 S    
N11   O27   1.301500 A    
C19   N11   1.432412 S    
O17   C23   1.411442 S    
C16   N4    1.438952 S    
N2    C17   1.366645 A    
N11   O28   1.302365 A    
C23   H1    1.111360 S    
C8    C10   1.540467 S    
C5    C14   1.465790 S    
O3    Cu1   2.001466 S    
N6    O15   1.296799 A    
N3    O10   1.298712 A    
Cu1   N1    2.043448 S    
C9    C13   1.543994 S    
C26   H10   1.110749 S    
C17   N5    1.430506 S    
O1    C3    1.314704 A    
N1    C16   1.388844 A    
O2    C4    1.311479 A    
N2    C15   1.386171 A    
C12   C14   1.549217 S    
N10   O25   1.297608 A    
C1    C4    1.479337 S    
C2    C3    1.477750 S    
C25   C26   1.519651 S    
C24   H5    1.110785 S    
O5    Cu1   1.981452 S    
O6    Cu2   1.981451 S    
N4    O12   1.299333 A    
C25   H7    1.109372 S    
N8    O21   1.299982 A    
C11   C13   1.546338 S    
C6    C13   1.463331 S    
N9    O23   1.297718 A    
C20   N12   1.427675 S    
N7    O19   1.300453 A    
O8    C5    1.298785 A    
Cu2   N2    2.043449 S    
C10   C14   1.557928 S    
C9    C12   1.542474 S    
C10   C11   1.542918 S    
C21   N13   1.431122 S    
