data_mof_unit_65682.cif
_audit_creation_date              2013-03-05T16:30:27-0500
_audit_creation_method            fapswitch 2.2
_symmetry_space_group_name_H-M    P1
_symmetry_Int_Tables_number       1
_space_group_crystal_system       triclinic
_cell_length_a                    18.362197
_cell_length_b                    18.375349
_cell_length_c                    39.691882
_cell_angle_alpha                 89.979777
_cell_angle_beta                  90.056473
_cell_angle_gamma                 90.023055
_cell_volume                      13392.5000671

loop_
_atom_site_label
_atom_site_type_symbol
_atom_site_description
_atom_site_fract_x
_atom_site_fract_y
_atom_site_fract_z
_atom_type_partial_charge
Zn1   Zn    Zn3+2 0.500000 0.913220 0.028040 1.157188
Zn2   Zn    Zn3+2 0.086780 0.500000 0.028040 1.156772
Zn3   Zn    Zn3+2 0.500000 0.086780 0.028040 1.146151
Zn4   Zn    Zn3+2 0.913220 0.500000 0.028040 1.152634
Zn5   Zn    Zn3+2 1.000000 0.413220 0.528040 1.160810
Zn6   Zn    Zn3+2 0.586780 0.000000 0.528040 1.130642
Zn7   Zn    Zn3+2 0.000000 0.586780 0.528040 1.139411
Zn8   Zn    Zn3+2 0.413220 0.000000 0.528040 1.148381
Zn9   Zn    Zn3+2 0.586730 0.000000 0.971990 1.145908
Zn10  Zn    Zn3+2 0.000000 0.586730 0.971990 1.154442
Zn11  Zn    Zn3+2 0.413270 0.000000 0.971990 1.155198
Zn12  Zn    Zn3+2 0.000000 0.413270 0.971990 1.150749
Zn13  Zn    Zn3+2 0.086730 0.500000 0.471990 1.150667
Zn14  Zn    Zn3+2 0.500000 0.086730 0.471990 1.145585
Zn15  Zn    Zn3+2 0.913270 0.500000 0.471990 1.142079
Zn16  Zn    Zn3+2 0.500000 0.913270 0.471990 1.148724
O1    O     O_3   0.500000 0.000000 0.000020 -0.593473
O2    O     O_3   0.000000 0.500000 0.000020 -0.593961
O3    O     O_3   1.000000 0.500000 0.500020 -0.592189
O4    O     O_3   0.500000 0.000000 0.500020 -0.588911
O5    O     O_R   0.439230 0.000000 0.925200 -0.583019
O6    O     O_R   0.000000 0.439230 0.925200 -0.584401
O7    O     O_R   0.560770 0.000000 0.925200 -0.591699
O8    O     O_R   1.000000 0.560770 0.925200 -0.595074
O9    O     O_R   0.939230 0.500000 0.425200 -0.593194
O10   O     O_R   0.500000 0.939230 0.425200 -0.591884
O11   O     O_R   0.060770 0.500000 0.425200 -0.588488
O12   O     O_R   0.500000 0.060770 0.425200 -0.589799
O13   O     O_R   0.500000 0.939250 0.074840 -0.586847
O14   O     O_R   0.060750 0.500000 0.074840 -0.582067
O15   O     O_R   0.500000 0.060750 0.074840 -0.595113
O16   O     O_R   0.939250 0.500000 0.074840 -0.599508
O17   O     O_R   0.000000 0.439250 0.574840 -0.582401
O18   O     O_R   0.560750 0.000000 0.574840 -0.602244
O19   O     O_R   0.000000 0.560750 0.574840 -0.597747
O20   O     O_R   0.439250 0.000000 0.574840 -0.590112
O21   O     O_R   0.646140 0.914530 0.980400 -0.596838
O22   O     O_R   0.085470 0.646140 0.980400 -0.595893
O23   O     O_R   0.353860 0.085470 0.980400 -0.600818
O24   O     O_R   0.914530 0.353860 0.980400 -0.593221
O25   O     O_R   0.646140 0.085470 0.980400 -0.598230
O26   O     O_R   0.085470 0.353860 0.980400 -0.601426
O27   O     O_R   0.353860 0.914530 0.980400 -0.594676
O28   O     O_R   0.914530 0.646140 0.980400 -0.597819
O29   O     O_R   0.146140 0.414530 0.480400 -0.588379
O30   O     O_R   0.585470 0.146140 0.480400 -0.605724
O31   O     O_R   0.853860 0.585470 0.480400 -0.592355
O32   O     O_R   0.414530 0.853860 0.480400 -0.589068
O33   O     O_R   0.146140 0.585470 0.480400 -0.608246
O34   O     O_R   0.585470 0.853860 0.480400 -0.589495
O35   O     O_R   0.853860 0.414530 0.480400 -0.591734
O36   O     O_R   0.414530 0.146140 0.480400 -0.589545
O37   O     O_R   0.414550 0.146130 0.019630 -0.594966
O38   O     O_R   0.853870 0.414550 0.019630 -0.597104
O39   O     O_R   0.585450 0.853870 0.019630 -0.597728
O40   O     O_R   0.146130 0.585450 0.019630 -0.594244
O41   O     O_R   0.414550 0.853870 0.019630 -0.592538
O42   O     O_R   0.853870 0.585450 0.019630 -0.595603
O43   O     O_R   0.585450 0.146130 0.019630 -0.596421
O44   O     O_R   0.146130 0.414550 0.019630 -0.596067
O45   O     O_R   0.914550 0.646130 0.519630 -0.607970
O46   O     O_R   0.353870 0.914550 0.519630 -0.604613
O47   O     O_R   0.085450 0.353870 0.519630 -0.593026
O48   O     O_R   0.646130 0.085450 0.519630 -0.604998
O49   O     O_R   0.914550 0.353870 0.519630 -0.598860
O50   O     O_R   0.353870 0.085450 0.519630 -0.593665
O51   O     O_R   0.085450 0.646130 0.519630 -0.593272
O52   O     O_R   0.646130 0.914550 0.519630 -0.600611
C1    C     C_R   0.499981 0.999888 0.909199 0.925371
C2    C     C_R   0.999915 0.499999 0.909169 0.927979
C3    C     C_R   0.999985 0.499820 0.409148 0.919538
C4    C     C_R   0.500048 0.000105 0.409159 0.919821
C5    C     C_R   0.500051 0.999865 0.090870 0.967106
C6    C     C_R   0.000101 0.499943 0.090869 0.967481
C7    C     C_R   0.000056 0.499921 0.590875 0.962851
C8    C     C_R   0.499903 0.999444 0.591041 0.945209
C9    C     C_R   0.639445 0.859216 0.999594 0.928703
C10   C     C_R   0.139312 0.640562 0.000536 0.928880
C11   C     C_R   0.360573 0.140789 0.999545 0.934775
C12   C     C_R   0.860715 0.359439 0.000534 0.927742
C13   C     C_R   0.640697 0.139130 0.000601 0.906450
C14   C     C_R   0.140751 0.360514 0.999633 0.920848
C15   C     C_R   0.359270 0.860880 0.000606 0.912225
C16   C     C_R   0.859163 0.639375 0.999532 0.945031
C17   C     C_R   0.140308 0.360483 0.500334 0.931812
C18   C     C_R   0.641057 0.139132 0.499460 0.915112
C19   C     C_R   0.859558 0.639633 0.500492 0.907710
C20   C     C_R   0.359039 0.860698 0.499450 0.929842
C21   C     C_R   0.139212 0.640963 0.499524 0.927474
C22   C     C_R   0.640375 0.860157 0.500195 0.913349
C23   C     C_R   0.860564 0.359141 0.499520 0.928772
C24   C     C_R   0.360588 0.140451 0.500364 0.934963
C25   C     C_R   0.255771 0.796266 0.975518 -0.153592
C26   C     C_R   0.185725 0.238833 0.984669 -0.122512
C27   C     C_R   0.744052 0.203844 0.975495 -0.154026
C28   C     C_R   0.813615 0.760578 0.983977 -0.123568
C29   C     C_R   0.238797 0.185868 0.984581 -0.125004
C30   C     C_R   0.204769 0.743370 0.975212 -0.136094
C31   C     C_R   0.760667 0.813642 0.984035 -0.121535
C32   C     C_R   0.795115 0.256687 0.975199 -0.138408
C33   C     C_R   0.741214 0.311310 0.481553 -0.117670
C34   C     C_R   0.706158 0.759008 0.473102 -0.151448
C35   C     C_R   0.258098 0.688565 0.482020 -0.143031
C36   C     C_R   0.288793 0.236969 0.473411 -0.142863
C37   C     C_R   0.758563 0.705264 0.473354 -0.152719
C38   C     C_R   0.688354 0.258181 0.482095 -0.138745
C39   C     C_R   0.236798 0.288836 0.473393 -0.142692
C40   C     C_R   0.311068 0.741573 0.481366 -0.117518
C41   C     C_R   0.300822 0.808372 0.002913 -0.142576
C42   C     C_R   0.200216 0.308477 0.996859 -0.133937
C43   C     C_R   0.699114 0.191694 0.002892 -0.140479
C44   C     C_R   0.799477 0.691136 0.996517 -0.137196
C45   C     C_R   0.308676 0.200336 0.996585 -0.136351
C46   C     C_R   0.192359 0.698562 0.002671 -0.135796
C47   C     C_R   0.691325 0.799617 0.996728 -0.134499
C48   C     C_R   0.807660 0.301441 0.002659 -0.137251
C49   C     C_R   0.809154 0.299104 0.496319 -0.141485
C50   C     C_R   0.699824 0.807934 0.499756 -0.140197
C51   C     C_R   0.190390 0.701121 0.496522 -0.139934
C52   C     C_R   0.307455 0.198414 0.502118 -0.128630
C53   C     C_R   0.805973 0.697611 0.500565 -0.134651
C54   C     C_R   0.701253 0.190240 0.496319 -0.140065
C55   C     C_R   0.197863 0.307005 0.502027 -0.131226
C56   C     C_R   0.298846 0.809456 0.496109 -0.143737
C57   C     C_R   0.287937 0.766780 0.032556 0.221904
C58   C     C_R   0.273282 0.327601 0.004309 0.214361
C59   C     C_R   0.712123 0.233254 0.032529 0.225266
C60   C     C_R   0.726577 0.672176 0.004395 0.210504
C61   C     C_R   0.327889 0.273341 0.004040 0.210978
C62   C     C_R   0.233591 0.711790 0.032420 0.215933
C63   C     C_R   0.672316 0.726785 0.004629 0.216066
C64   C     C_R   0.766497 0.288212 0.032397 0.219268
C65   C     C_R   0.827597 0.227029 0.505945 0.211285
C66   C     C_R   0.753485 0.806838 0.525553 0.207980
C67   C     C_R   0.172332 0.773220 0.506105 0.214003
C68   C     C_R   0.271992 0.217313 0.532711 0.209337
C69   C     C_R   0.805460 0.751088 0.526296 0.216185
C70   C     C_R   0.773541 0.172198 0.505730 0.204197
C71   C     C_R   0.216472 0.271206 0.532578 0.218463
C72   C     C_R   0.226752 0.827692 0.505852 0.207100
C73   C     C_3   0.186249 0.754748 0.938815 0.713308
C74   C     C_3   0.185882 0.126872 0.993850 0.661010
C75   C     C_3   0.813599 0.245265 0.938823 0.714312
C76   C     C_3   0.814150 0.872741 0.992459 0.658234
C77   C     C_3   0.126884 0.185731 0.993942 0.658257
C78   C     C_3   0.245221 0.815087 0.939221 0.714172
C79   C     C_3   0.873015 0.813728 0.992395 0.660956
C80   C     C_3   0.754555 0.184996 0.939212 0.714858
C81   C     C_3   0.627952 0.311475 0.487467 0.656407
C82   C     C_3   0.708670 0.650852 0.457182 0.703027
C83   C     C_3   0.371199 0.686879 0.485970 0.683159
C84   C     C_3   0.241231 0.301051 0.436161 0.708223
C85   C     C_3   0.650545 0.710452 0.456959 0.700552
C86   C     C_3   0.686275 0.371106 0.486383 0.683817
C87   C     C_3   0.300934 0.241471 0.436178 0.708516
C88   C     C_3   0.311754 0.628374 0.487182 0.660106
C89   C     C_R   0.052215 0.462152 0.818553 0.227555
C90   C     C_R   0.554280 0.955754 0.819567 0.208885
C91   C     C_R   0.954093 0.552354 0.819232 0.218228
C92   C     C_R   0.463243 0.053144 0.818693 0.222025
C93   C     C_R   0.459390 0.949384 0.318422 0.217397
C94   C     C_R   0.039705 0.550520 0.318448 0.227258
C95   C     C_R   0.552415 0.044891 0.319201 0.227339
C96   C     C_R   0.946246 0.455450 0.319196 0.217639
C97   C     C_R   0.048793 0.457209 0.853902 0.191134
C98   C     C_R   0.548840 0.952029 0.854900 0.205184
C99   C     C_R   0.951217 0.547905 0.854651 0.200686
C100  C     C_R   0.457386 0.048962 0.853968 0.191220
C101  C     C_R   0.455845 0.951396 0.353874 0.201138
C102  C     C_R   0.044523 0.547030 0.353801 0.189439
C103  C     C_R   0.548294 0.047405 0.354560 0.190842
C104  C     C_R   0.950572 0.452505 0.354618 0.202161
C105  C     C_R   0.998794 0.500401 0.872022 -0.294187
C106  C     C_R   0.500550 0.998944 0.872125 -0.282701
C107  C     C_R   0.500431 0.000455 0.371995 -0.295932
C108  C     C_R   0.999568 0.498615 0.371979 -0.293929
C109  C     C_R   0.004586 0.509492 0.801356 -0.204358
C110  C     C_R   0.511522 0.006312 0.801666 -0.209555
C111  C     C_R   0.507536 0.996247 0.301275 -0.204822
C112  C     C_R   0.990751 0.504488 0.301289 -0.205136
C113  C     C_1   0.003354 0.509480 0.765073 0.220342
C114  C     C_1   0.511943 0.005280 0.765467 0.208219
C115  C     C_1   0.506721 0.998488 0.265034 0.221815
C116  C     C_1   0.990669 0.503246 0.265011 0.222136
C117  C     C_1   0.505894 0.000224 0.234780 0.313868
C118  C     C_1   0.991352 0.502239 0.234735 0.313963
C119  C     C_1   0.002360 0.508721 0.734793 0.314034
C120  C     C_1   0.511008 0.004007 0.735241 0.305498
C121  C     C_R   0.550355 0.954350 0.180792 0.622796
C122  C     C_R   0.037808 0.451790 0.181868 0.606460
C123  C     C_R   0.457136 0.047731 0.181588 0.593562
C124  C     C_R   0.951632 0.551668 0.180382 0.609778
C125  C     C_R   0.953187 0.460783 0.681891 0.605108
C126  C     C_R   0.561416 0.965125 0.681082 0.596780
C127  C     C_R   0.050643 0.549764 0.680456 0.608337
C128  C     C_R   0.450374 0.035824 0.682548 0.603807
C129  C     C_R   0.548041 0.952720 0.145605 0.151736
C130  C     C_R   0.042006 0.452176 0.146660 0.154736
C131  C     C_R   0.453775 0.047005 0.146232 0.166130
C132  C     C_R   0.954866 0.553103 0.145046 0.158871
C133  C     C_R   0.953629 0.456616 0.646681 0.157291
C134  C     C_R   0.557602 0.961333 0.645830 0.150481
C135  C     C_R   0.052121 0.546560 0.645120 0.163485
C136  C     C_R   0.445397 0.033206 0.647379 0.139518
C137  C     C_R   0.499858 0.999293 0.127989 -0.393208
C138  C     C_R   0.000095 0.502654 0.127951 -0.388540
C139  C     C_R   0.002851 0.499987 0.627981 -0.390844
C140  C     C_R   0.500084 0.996974 0.628438 -0.402515
C141  C     C_R   0.504874 0.001309 0.198671 -0.307025
C142  C     C_R   0.993084 0.501450 0.198607 -0.306788
C143  C     C_R   0.001598 0.506924 0.698659 -0.304803
C144  C     C_R   0.508165 0.002342 0.699207 -0.311107
N1    N     N_R   0.325917 0.783050 0.063255 0.244439
O53   O     O_R   0.321186 0.847608 0.076532 -0.303858
O54   O     O_R   0.367677 0.734503 0.077241 -0.208444
N2    N     N_R   0.292690 0.401819 0.010902 0.245661
O55   O     O_R   0.310298 0.421957 0.041246 -0.205159
O56   O     O_R   0.284216 0.450816 0.987558 -0.301781
N3    N     N_R   0.674262 0.216964 0.063226 0.243976
O57   O     O_R   0.679116 0.152424 0.076537 -0.319507
O58   O     O_R   0.632542 0.265496 0.077196 -0.216274
N4    N     N_R   0.706961 0.597879 0.010891 0.243251
O59   O     O_R   0.679599 0.579218 0.039843 -0.210926
O60   O     O_R   0.719653 0.548056 0.988363 -0.298793
N5    N     N_R   0.402419 0.293016 0.010071 0.243635
O61   O     O_R   0.421782 0.321320 0.038739 -0.210713
O62   O     O_R   0.451764 0.279443 0.987424 -0.312789
N6    N     N_R   0.217594 0.673386 0.062978 0.244187
O63   O     O_R   0.154373 0.681079 0.077309 -0.299477
O64   O     O_R   0.263251 0.625520 0.074673 -0.208539
N7    N     N_R   0.598199 0.707568 0.011658 0.245625
O65   O     O_R   0.578748 0.690615 0.042167 -0.205937
O66   O     O_R   0.548652 0.715378 0.988486 -0.300164
N8    N     N_R   0.782605 0.326570 0.062956 0.243810
O67   O     O_R   0.845844 0.318784 0.077320 -0.318605
O68   O     O_R   0.736999 0.374428 0.074644 -0.215945
N9    N     N_R   0.901049 0.208608 0.514717 0.246786
O69   O     O_R   0.918476 0.197082 0.546039 -0.211093
O70   O     O_R   0.952042 0.212122 0.492042 -0.289425
N10   N     N_R   0.752007 0.857420 0.553009 0.250036
O71   O     O_R   0.737216 0.834180 0.583179 -0.210010
O72   O     O_R   0.780932 0.921528 0.549240 -0.210726
N11   N     N_R   0.099062 0.791967 0.515015 0.248232
O73   O     O_R   0.082800 0.807223 0.546105 -0.206181
O74   O     O_R   0.047296 0.786591 0.492750 -0.320081
N12   N     N_R   0.296377 0.187059 0.564062 0.247928
O75   O     O_R   0.364980 0.190323 0.572150 -0.317441
O76   O     O_R   0.250475 0.156569 0.584623 -0.188455
N13   N     N_R   0.853675 0.746741 0.554723 0.255224
O77   O     O_R   0.845358 0.695171 0.576867 -0.285013
O78   O     O_R   0.899918 0.798895 0.560578 -0.203328
N14   N     N_R   0.792851 0.098657 0.513967 0.249298
O79   O     O_R   0.820191 0.083066 0.543331 -0.204495
O80   O     O_R   0.782207 0.046839 0.492174 -0.313788
N15   N     N_R   0.183350 0.292860 0.563677 0.244383
O81   O     O_R   0.194180 0.358125 0.575350 -0.297760
O82   O     O_R   0.134531 0.251451 0.577683 -0.211170
N16   N     N_R   0.207893 0.901253 0.514224 0.244423
O83   O     O_R   0.185467 0.917451 0.544372 -0.216513
O84   O     O_R   0.216550 0.952846 0.492124 -0.293922
N17   N     N_R   0.202716 0.692756 0.916908 0.195256
O85   O     O_R   0.196006 0.699820 0.884448 -0.225338
O86   O     O_R   0.219997 0.629541 0.929379 -0.336884
N18   N     N_R   0.176850 0.071084 0.967782 0.209138
O87   O     O_R   0.132451 0.017064 0.972964 -0.169147
O88   O     O_R   0.215072 0.072647 0.940181 -0.236325
N19   N     N_R   0.797196 0.307266 0.916877 0.197741
O89   O     O_R   0.803835 0.300162 0.884424 -0.221698
O90   O     O_R   0.780071 0.370528 0.929307 -0.325830
N20   N     N_R   0.822103 0.927771 0.965962 0.210112
O91   O     O_R   0.866927 0.981764 0.970386 -0.166861
O92   O     O_R   0.782523 0.925603 0.938745 -0.242837
N21   N     N_R   0.070810 0.176880 0.967944 0.208870
O93   O     O_R   0.016783 0.132501 0.973169 -0.170715
O94   O     O_R   0.072169 0.215190 0.940352 -0.237575
N22   N     N_R   0.309899 0.800709 0.918626 0.178107
O95   O     O_R   0.329561 0.847317 0.895696 -0.230559
O96   O     O_R   0.350687 0.744044 0.924300 -0.310628
N23   N     N_R   0.927895 0.821691 0.965844 0.209455
O97   O     O_R   0.982180 0.866177 0.970274 -0.167147
O98   O     O_R   0.925309 0.782429 0.938568 -0.245738
N24   N     N_R   0.689884 0.199447 0.918559 0.176749
O99   O     O_R   0.670209 0.152910 0.895598 -0.243390
O100  O     O_R   0.649150 0.256145 0.924189 -0.314249
N25   N     N_R   0.575280 0.312292 0.459671 0.214098
O101  O     O_R   0.506142 0.318756 0.466104 -0.173713
O102  O     O_R   0.596282 0.303016 0.428640 -0.246939
N26   N     N_R   0.732749 0.627011 0.423759 0.203913
O103  O     O_R   0.692772 0.581717 0.406656 -0.176535
O104  O     O_R   0.796052 0.646075 0.411922 -0.328337
N27   N     N_R   0.420345 0.680946 0.457053 0.226605
O105  O     O_R   0.465531 0.626584 0.455298 -0.164771
O106  O     O_R   0.420674 0.729988 0.433379 -0.246291
N28   N     N_R   0.174774 0.281706 0.417729 0.184199
O107  O     O_R   0.173018 0.288931 0.385142 -0.212876
O108  O     O_R   0.116077 0.261278 0.433495 -0.334703
N29   N     N_R   0.627741 0.734635 0.423369 0.203503
O109  O     O_R   0.581658 0.695589 0.406248 -0.176833
O110  O     O_R   0.648285 0.797384 0.411450 -0.328183
N30   N     N_R   0.679955 0.420679 0.457620 0.225960
O111  O     O_R   0.625266 0.465518 0.456000 -0.164528
O112  O     O_R   0.728941 0.421693 0.433941 -0.246807
N31   N     N_R   0.281633 0.175056 0.417768 0.183953
O113  O     O_R   0.288837 0.173333 0.385185 -0.213459
O114  O     O_R   0.261226 0.116380 0.433551 -0.335703
N32   N     N_R   0.312302 0.575934 0.459338 0.212523
O115  O     O_R   0.319220 0.506834 0.465689 -0.172398
O116  O     O_R   0.302284 0.597083 0.428359 -0.248616
F1    F     F_    0.116054 0.780578 0.934350 -0.507043
F2    F     F_    0.199730 0.097214 0.025326 -0.554361
F3    F     F_    0.883762 0.219345 0.934427 -0.504436
F4    F     F_    0.801825 0.903311 0.023861 -0.560071
F5    F     F_    0.097490 0.199190 0.025484 -0.560693
F6    F     F_    0.217544 0.884610 0.934796 -0.495940
F7    F     F_    0.903811 0.801049 0.023750 -0.553935
F8    F     F_    0.782145 0.115441 0.934832 -0.498261
F9    F     F_    0.595209 0.304243 0.518773 -0.562729
F10   F     F_    0.692519 0.593089 0.478327 -0.531992
F11   F     F_    0.408455 0.695349 0.516095 -0.551471
F12   F     F_    0.266490 0.369929 0.428155 -0.501881
F13   F     F_    0.592102 0.696076 0.477975 -0.532971
F14   F     F_    0.694822 0.407865 0.516610 -0.551841
F15   F     F_    0.369809 0.266818 0.428175 -0.501732
F16   F     F_    0.305153 0.595410 0.518480 -0.551000
N33   N     N_R   0.103594 0.418302 0.800190 0.251711
O117  O     O_R   0.111341 0.349577 0.807238 -0.203962
O118  O     O_R   0.143875 0.447188 0.776773 -0.265015
N34   N     N_R   0.601087 0.906125 0.801804 0.255191
O119  O     O_R   0.598087 0.836634 0.807975 -0.214678
O120  O     O_R   0.646442 0.930112 0.779207 -0.228875
N35   N     N_R   0.903697 0.598303 0.801390 0.253804
O121  O     O_R   0.834344 0.595105 0.807938 -0.213257
O122  O     O_R   0.926825 0.643062 0.778347 -0.262330
N36   N     N_R   0.419310 0.104363 0.800218 0.261167
O123  O     O_R   0.350298 0.111333 0.806886 -0.194333
O124  O     O_R   0.448355 0.145160 0.777034 -0.250485
N37   N     N_R   0.411898 0.901769 0.299820 0.252595
O125  O     O_R   0.342391 0.900605 0.306157 -0.215224
O126  O     O_R   0.437824 0.859832 0.276306 -0.262910
N38   N     N_R   0.085275 0.600367 0.300043 0.251278
O127  O     O_R   0.154308 0.605757 0.307044 -0.202618
O128  O     O_R   0.057697 0.641580 0.276616 -0.269091
N39   N     N_R   0.601846 0.092332 0.301579 0.251518
O129  O     O_R   0.605932 0.160967 0.309407 -0.201442
O130  O     O_R   0.643929 0.066855 0.278010 -0.270696
N40   N     N_R   0.898686 0.406521 0.301380 0.253682
O131  O     O_R   0.899789 0.337140 0.307937 -0.213967
O132  O     O_R   0.854573 0.431003 0.278342 -0.264257
N41   N     N_R   0.100092 0.412297 0.871495 0.234957
O133  O     O_R   0.168914 0.429082 0.871209 -0.251137
O134  O     O_R   0.079771 0.349546 0.883411 -0.221127
N42   N     N_R   0.592713 0.900722 0.873254 0.258861
O135  O     O_R   0.662767 0.898096 0.868492 -0.204522
O136  O     O_R   0.562727 0.856239 0.894667 -0.313737
N43   N     N_R   0.900034 0.591953 0.872931 0.258453
O137  O     O_R   0.896931 0.661808 0.867739 -0.206446
O138  O     O_R   0.856009 0.562302 0.894643 -0.308057
N44   N     N_R   0.411572 0.099492 0.871476 0.233442
O139  O     O_R   0.427530 0.168468 0.871366 -0.256094
O140  O     O_R   0.348852 0.078298 0.883120 -0.216810
N45   N     N_R   0.406800 0.903566 0.371375 0.261466
O141  O     O_R   0.407813 0.833941 0.365428 -0.198538
O142  O     O_R   0.360003 0.929633 0.392809 -0.305605
N46   N     N_R   0.091343 0.596707 0.371321 0.234774
O143  O     O_R   0.076679 0.665954 0.371207 -0.271309
O144  O     O_R   0.153808 0.574418 0.382856 -0.215351
N47   N     N_R   0.596815 0.094090 0.372828 0.235597
O145  O     O_R   0.665956 0.078953 0.374045 -0.275163
O146  O     O_R   0.573964 0.156766 0.383773 -0.212651
N48   N     N_R   0.904961 0.402657 0.372897 0.260342
O147  O     O_R   0.835000 0.401606 0.367672 -0.201052
O148  O     O_R   0.933340 0.357509 0.394497 -0.308270
F17   F     F_    0.596573 0.909340 0.197585 -0.524364
F18   F     F_    0.078247 0.403445 0.199822 -0.534260
F19   F     F_    0.411980 0.091776 0.199449 -0.534657
F20   F     F_    0.909925 0.600852 0.197134 -0.524268
F21   F     F_    0.905996 0.418973 0.699813 -0.538437
F22   F     F_    0.615681 0.930169 0.697859 -0.519901
F23   F     F_    0.098717 0.592835 0.697229 -0.527493
F24   F     F_    0.397807 0.070242 0.700629 -0.523624
N49   N     N_R   0.596635 0.905095 0.128037 0.257095
O149  O     O_R   0.666519 0.915942 0.129937 -0.223741
O150  O     O_R   0.572561 0.843500 0.116327 -0.229048
N50   N     N_R   0.087023 0.399323 0.130225 0.254655
O151  O     O_R   0.075857 0.330380 0.135603 -0.212110
O152  O     O_R   0.147217 0.419732 0.115778 -0.240291
N51   N     N_R   0.401577 0.092578 0.129312 0.275367
O153  O     O_R   0.389354 0.158396 0.139981 -0.180880
O154  O     O_R   0.360874 0.066171 0.105395 -0.307595
N52   N     N_R   0.914071 0.607369 0.126930 0.273665
O155  O     O_R   0.848914 0.625333 0.136738 -0.180833
O156  O     O_R   0.944251 0.643764 0.102512 -0.312754
N53   N     N_R   0.902089 0.410016 0.630238 0.252498
O157  O     O_R   0.832765 0.419815 0.635190 -0.230582
O158  O     O_R   0.924122 0.349815 0.616362 -0.241048
N54   N     N_R   0.610471 0.918293 0.628198 0.282353
O159  O     O_R   0.678856 0.921534 0.636687 -0.167823
O160  O     O_R   0.589242 0.868898 0.606844 -0.311003
N55   N     N_R   0.105374 0.588719 0.627052 0.273946
O161  O     O_R   0.121357 0.654447 0.636763 -0.190391
O162  O     O_R   0.142979 0.559312 0.602844 -0.313222
N56   N     N_R   0.384987 0.068701 0.631524 0.277817
O163  O     O_R   0.371624 0.136455 0.638720 -0.181278
O164  O     O_R   0.333286 0.029395 0.618412 -0.227252

loop_
_geom_bond_atom_site_label_1
_geom_bond_atom_site_label_2
_geom_bond_distance
_ccdc_geom_bond_type
N15   O82   1.300671 A    
C130  C138  1.415262 A    
N27   O105  1.300747 A    
C49   C65   1.419313 A    
N37   O125  1.301261 A    
C113  C119  1.202061 T    
N31   O114  1.301933 A    
C102  C108  1.411943 A    
C90   C98   1.407712 A    
N24   O99   1.300779 A    
C16   C44   1.456228 S    
C82   N26   1.465990 S    
N54   O160  1.301471 A    
C78   N22   1.466584 S    
C125  C143  1.396647 A    
C127  C135  1.404105 A    
C92   N36   1.439879 S    
C28   C31   1.377245 A    
C131  C137  1.418179 A    
C125  C133  1.399686 A    
N24   O100  1.302290 A    
O49   C23   1.275778 A    
C67   N11   1.433613 S    
Zn12  O26   1.940708 S    
C7    C139  1.473663 S    
O34   C22   1.282791 A    
Zn14  O36   1.941374 S    
C136  C140  1.420999 A    
O52   C22   1.267089 A    
O41   C15   1.271080 A    
Zn15  O35   1.940891 S    
C128  C136  1.399665 A    
N56   O164  1.300943 A    
Zn4   O2    1.944109 S    
C26   C77   1.501546 S    
C62   N6    1.433637 S    
O47   C17   1.271773 A    
C46   C62   1.423004 A    
N8    O68   1.300575 A    
C40   C56   1.396328 A    
N6    O63   1.301043 A    
C88   F16   1.387306 S    
N1    O54   1.300509 A    
C98   C106  1.413898 A    
C136  N56   1.432068 S    
N38   O127  1.301175 A    
N52   O156  1.301540 A    
O22   C10   1.274842 A    
C26   C29   1.377566 A    
O46   C20   1.276936 A    
C78   F6    1.386126 S    
Zn12  O24   1.940531 S    
C76   N20   1.466078 S    
C126  F22   1.359328 S    
C40   C83   1.504319 S    
N48   O148  1.301441 A    
N31   O113  1.300559 A    
Zn16  O4    1.943940 S    
N42   O135  1.301249 A    
Zn1   O13   1.918340 S    
N32   O115  1.300685 A    
Zn3   O15   1.918012 S    
C34   C85   1.499290 S    
C92   C110  1.409024 A    
C110  C114  1.436983 S    
C72   N16   1.434719 S    
Zn5   O49   1.939215 S    
C119  C143  1.434677 S    
Zn7   O3    1.944467 S    
N7    O66   1.301007 A    
N49   O149  1.300651 A    
C117  C141  1.433450 S    
N51   O153  1.301231 A    
O11   C3    1.284655 A    
N30   O111  1.300737 A    
C121  C129  1.397542 A    
N55   O162  1.301541 A    
C28   C79   1.501258 S    
C79   F7    1.386184 S    
C73   N17   1.465122 S    
Zn16  O34   1.940708 S    
N50   O152  1.300726 A    
C123  F19   1.359148 S    
N53   O157  1.300813 A    
Zn9   O25   1.940710 S    
Zn10  O22   1.940130 S    
C90   C110  1.408316 A    
C97   N41   1.433472 S    
N25   O102  1.302309 A    
Zn13  O29   1.941231 S    
C120  C144  1.431523 S    
C103  C107  1.412714 A    
Zn10  O2    1.943294 S    
C91   C99   1.409222 A    
C17   C55   1.444897 S    
N23   O98   1.302029 A    
C122  C142  1.396653 A    
C29   C74   1.501407 S    
C30   C46   1.384694 A    
C126  C144  1.394125 A    
C128  C144  1.393095 A    
C35   C88   1.495436 S    
C87   N31   1.465853 S    
C9    C47   1.456347 S    
C36   C39   1.349296 A    
C112  C116  1.440102 S    
N26   O104  1.302013 A    
N14   O79   1.300509 A    
C127  F23   1.359216 S    
C90   N34   1.438662 S    
N41   O133  1.300757 A    
O27   C15   1.274485 A    
C84   N28   1.465869 S    
C124  F20   1.359217 S    
C20   C56   1.457669 S    
N48   O147  1.301221 A    
O8    C2    1.285445 A    
C100  C106  1.411138 A    
N13   O77   1.301333 A    
N27   O106  1.301725 A    
N2    O56   1.301005 A    
C70   N14   1.434772 S    
O16   C6    1.285250 A    
N17   O85   1.300597 A    
O14   C6    1.283124 A    
Zn15  O9    1.917837 S    
C87   F15   1.384734 S    
Zn6   O48   1.939973 S    
N55   O161  1.301245 A    
C55   C71   1.420840 A    
N20   O92   1.302028 A    
O40   C10   1.270822 A    
N46   O143  1.300726 A    
C75   N19   1.465121 S    
C4    C107  1.475156 S    
C53   C69   1.417589 A    
N33   O118  1.301314 A    
O45   C19   1.268607 A    
C81   F9    1.387277 S    
O17   C7    1.283916 A    
C129  N49   1.431976 S    
C116  C118  1.201934 T    
N18   O87   1.300700 A    
Zn5   O17   1.918340 S    
C57   N1    1.434862 S    
Zn3   O1    1.944467 S    
O9    C3    1.285265 A    
C93   C111  1.409427 A    
C94   C112  1.409245 A    
C50   C66   1.420463 A    
C93   C101  1.409232 A    
C124  C132  1.404085 A    
C86   N30   1.464831 S    
N9    O69   1.300754 A    
N29   O110  1.302009 A    
C102  N46   1.433387 S    
C76   C79   1.531391 S    
Zn9   O21   1.941231 S    
N21   O93   1.300701 A    
C75   C80   1.549576 S    
Zn10  O28   1.941374 S    
C12   C48   1.446104 S    
C89   C97   1.407452 A    
N36   O123  1.301185 A    
Zn9   O7    1.916927 S    
O50   C24   1.273179 A    
Zn10  O8    1.917630 S    
Zn11  O5    1.917837 S    
O5    C1    1.284194 A    
O31   C19   1.279774 A    
N44   O140  1.300841 A    
Zn1   O41   1.939215 S    
C80   F8    1.386097 S    
C89   C109  1.409441 A    
N40   O132  1.301245 A    
C48   C64   1.423058 A    
C38   C54   1.390307 A    
C23   C49   1.457181 S    
C68   N12   1.434084 S    
C25   C78   1.493940 S    
C114  C120  1.200049 T    
N4    O60   1.301226 A    
C94   N38   1.439774 S    
C42   C58   1.417698 A    
N43   O138  1.301433 A    
C123  C141  1.398156 A    
C73   F1    1.384936 S    
N39   O130  1.301315 A    
C95   C111  1.408202 A    
C96   C104  1.409164 A    
C96   N40   1.438630 S    
C86   F14   1.385780 S    
C60   C63   1.414408 A    
N56   O163  1.300958 A    
C63   N7    1.433521 S    
C33   C38   1.376561 A    
C5    C137  1.473372 S    
N12   O75   1.301026 A    
N34   O119  1.301260 A    
N51   O154  1.301505 A    
C75   F3    1.384967 S    
N19   O89   1.300590 A    
C76   F4    1.386173 S    
C15   C41   1.445845 S    
C99   N43   1.437788 S    
O29   C17   1.274099 A    
Zn2   O14   1.918546 S    
C11   C45   1.455904 S    
N16   O83   1.300524 A    
Zn1   O39   1.940455 S    
Zn2   O40   1.939973 S    
Zn3   O37   1.939792 S    
C33   C86   1.504386 S    
C109  C113  1.440296 S    
N10   O71   1.300154 A    
N5    O62   1.301233 A    
C36   C87   1.497007 S    
Zn7   O51   1.939613 S    
C8    C140  1.485008 S    
N22   O95   1.300771 A    
C61   N5    1.435240 S    
C121  F17   1.359277 S    
O6    C2    1.285028 A    
C104  C108  1.414465 A    
O18   C8    1.289713 A    
O10   C4    1.286918 A    
C129  C137  1.415292 A    
C32   C48   1.384650 A    
C39   C55   1.384329 A    
C66   C69   1.400667 A    
N6    O64   1.300576 A    
C59   N3    1.434820 S    
Zn14  O30   1.940130 S    
O12   C4    1.283946 A    
N1    O53   1.301202 A    
C92   C100  1.406438 A    
Zn15  O3    1.941783 S    
C37   C82   1.499864 S    
N45   O142  1.301412 A    
C101  N45   1.437413 S    
C22   C50   1.453846 S    
N38   O128  1.301316 A    
C31   C47   1.393689 A    
N28   O107  1.300573 A    
Zn2   O44   1.940875 S    
C122  F18   1.359217 S    
N11   O73   1.300587 A    
C126  C134  1.402657 A    
Zn5   O47   1.940455 S    
C34   C37   1.379163 A    
Zn8   O20   1.917634 S    
C98   N42   1.437911 S    
Zn7   O45   1.939792 S    
O35   C23   1.275306 A    
C21   C51   1.455525 S    
Zn8   O46   1.939796 S    
C82   C85   1.529549 S    
N42   O136  1.301441 A    
C18   C54   1.455547 S    
N32   O116  1.302327 A    
N23   O97   1.300700 A    
O32   C20   1.275716 A    
C95   C103  1.406343 A    
C96   C112  1.408921 A    
C99   C105  1.414063 A    
C65   C70   1.414079 A    
C74   C77   1.531128 S    
C10   C46   1.445988 S    
C74   N18   1.466038 S    
C68   C71   1.421563 A    
O48   C18   1.273581 A    
N37   O126  1.301257 A    
N30   O112  1.301708 A    
O38   C12   1.271480 A    
Zn16  O10   1.917304 S    
C67   C72   1.414127 A    
C93   N37   1.438645 S    
Zn13  O3    1.943580 S    
Zn14  O4    1.943294 S    
C31   C76   1.501440 S    
N54   O159  1.301142 A    
C54   C70   1.417970 A    
N3    O57   1.301193 A    
C19   C53   1.450514 S    
C27   C32   1.349592 A    
C88   N32   1.466567 S    
C26   C42   1.393757 A    
C51   C67   1.418026 A    
Zn6   O18   1.918546 S    
C52   C68   1.421684 A    
O23   C11   1.275233 A    
C71   N15   1.433154 S    
N35   O121  1.301266 A    
N25   O101  1.300693 A    
C125  F21   1.359209 S    
C28   C44   1.393870 A    
C94   C102  1.407368 A    
C84   C87   1.549643 S    
O25   C13   1.275140 A    
C83   F11   1.385768 S    
C133  C139  1.415381 A    
C84   F12   1.384743 S    
C83   C88   1.532521 S    
Zn9   O1    1.943580 S    
C45   C61   1.418204 A    
C73   C78   1.549565 S    
C118  C142  1.434478 S    
O36   C24   1.273310 A    
C1    C106  1.471708 S    
C131  N51   1.438726 S    
C122  C130  1.399711 A    
N14   O80   1.301202 A    
Zn11  O1    1.941783 S    
Zn4   O42   1.940314 S    
Zn1   O1    1.943824 S    
C56   C72   1.419759 A    
Zn12  O2    1.943940 S    
O43   C13   1.271932 A    
O28   C16   1.275583 A    
C32   C75   1.498381 S    
C69   N13   1.435711 S    
N52   O155  1.301255 A    
Zn5   O3    1.943824 S    
Zn6   O4    1.942310 S    
C91   N35   1.438646 S    
C58   C61   1.414382 A    
C33   C49   1.396001 A    
C121  C141  1.395652 A    
N19   O90   1.301784 A    
C95   N39   1.439861 S    
Zn7   O19   1.918012 S    
N46   O144  1.300857 A    
C83   N27   1.464873 S    
C24   C52   1.446433 S    
N33   O117  1.301186 A    
C44   C60   1.418236 A    
C65   N9    1.433273 S    
N18   O88   1.301954 A    
C130  N50   1.433250 S    
N49   O150  1.300791 A    
N20   O91   1.300693 A    
C97   C105  1.411509 A    
C36   C52   1.384405 A    
N39   O129  1.301133 A    
Zn8   O50   1.940314 S    
Zn12  O6    1.917304 S    
Zn2   O2    1.942310 S    
N29   O109  1.300511 A    
O7    C1    1.283706 A    
N47   O145  1.300644 A    
O26   C14   1.275368 A    
Zn15  O31   1.941790 S    
C81   C86   1.532487 S    
N50   O151  1.300848 A    
Zn16  O32   1.940531 S    
C47   C63   1.418029 A    
C3    C108  1.475506 S    
N53   O158  1.300753 A    
O19   C7    1.286058 A    
Zn8   O4    1.944109 S    
C80   N24   1.466590 S    
C14   C42   1.455973 S    
O37   C11   1.275119 A    
C123  C131  1.404674 A    
C115  C117  1.201348 T    
O39   C9    1.275350 A    
N36   O124  1.301313 A    
O15   C5    1.286870 A    
O13   C5    1.282936 A    
C100  N44   1.433529 S    
O51   C21   1.273618 A    
C59   C64   1.419843 A    
C85   N29   1.465937 S    
O20   C8    1.285539 A    
N21   O94   1.301957 A    
O44   C14   1.275136 A    
C57   C62   1.419885 A    
N43   O137  1.301239 A    
C77   F5    1.386191 S    
N11   O74   1.301010 A    
O24   C12   1.275672 A    
Zn11  O27   1.940891 S    
C35   C40   1.376497 A    
C132  N52   1.439300 S    
C34   C50   1.393568 A    
C128  F24   1.359754 S    
Zn6   O52   1.940875 S    
N41   O134  1.300834 A    
C38   C81   1.495355 S    
C134  C140  1.421176 A    
N44   O139  1.300769 A    
C91   C109  1.409133 A    
C111  C115  1.439123 S    
C101  C107  1.413834 A    
N12   O76   1.300391 A    
N13   O78   1.300984 A    
C13   C43   1.445967 S    
N2    O55   1.300587 A    
N34   O120  1.301227 A    
C60   N4    1.435143 S    
N17   O86   1.301781 A    
C81   N25   1.466539 S    
C135  C139  1.418541 A    
C58   N2    1.433546 S    
C77   N21   1.466072 S    
C127  C143  1.397516 A    
O42   C16   1.275602 A    
N3    O58   1.300504 A    
C124  C142  1.397537 A    
N10   O72   1.300648 A    
N5    O61   1.300449 A    
C37   C53   1.393651 A    
Zn4   O16   1.917634 S    
Zn11  O23   1.941790 S    
N35   O122  1.301249 A    
C133  N53   1.432973 S    
Zn13  O33   1.940710 S    
C39   C84   1.496968 S    
C41   C57   1.422750 A    
N22   O96   1.302294 A    
C89   N33   1.439761 S    
N9    O70   1.300982 A    
C30   C73   1.498450 S    
C43   C59   1.422679 A    
C29   C45   1.393819 A    
N15   O81   1.300943 A    
N16   O84   1.301194 A    
C85   F13   1.385149 S    
C6    C138  1.472707 S    
C135  N55   1.439101 S    
O21   C9    1.276003 A    
C132  C138  1.418344 A    
Zn4   O38   1.939796 S    
C66   N10   1.432834 S    
C35   C51   1.389950 A    
C27   C80   1.494003 S    
O33   C21   1.277900 A    
C79   N23   1.466082 S    
C82   F10   1.385114 S    
N45   O141  1.301206 A    
C104  N48   1.437694 S    
N26   O103  1.300516 A    
C27   C43   1.383735 A    
N28   O108  1.301931 A    
N40   O131  1.301265 A    
C74   F2    1.386190 S    
C134  N54   1.435285 S    
N47   O146  1.300885 A    
N4    O59   1.300496 A    
C2    C105  1.474582 S    
N8    O67   1.301029 A    
C25   C41   1.383620 A    
N7    O65   1.300612 A    
Zn13  O11   1.916927 S    
C103  N47   1.433178 S    
Zn14  O12   1.917630 S    
C64   N8    1.433606 S    
C25   C30   1.349521 A    
O30   C18   1.276429 A    
Zn3   O43   1.939613 S    
