data_mof_unit_37974.cif
_audit_creation_date              2013-03-05T15:42:25-0500
_audit_creation_method            fapswitch 2.2
_symmetry_space_group_name_H-M    P1
_symmetry_Int_Tables_number       1
_space_group_crystal_system       triclinic
_cell_length_a                    11.01578
_cell_length_b                    10.993072
_cell_length_c                    18.809317
_cell_angle_alpha                 90.137485
_cell_angle_beta                  89.936372
_cell_angle_gamma                 60.0199
_cell_volume                      1972.97799707

loop_
_atom_site_label
_atom_site_type_symbol
_atom_site_description
_atom_site_fract_x
_atom_site_fract_y
_atom_site_fract_z
_atom_type_partial_charge
O1    O     O_R   0.507340 0.255690 0.581430 -0.507598
O2    O     O_R   0.280360 0.527380 0.578910 -0.517526
C1    C     C_R   0.240289 0.643343 0.610961 0.534086
O3    O     O_R   0.260600 0.739610 0.584580 -0.525944
O4    O     O_R   0.532370 0.695050 0.573830 -0.431546
C2    C     C_R   0.626919 0.586312 0.608728 0.567373
O5    O     O_R   0.744850 0.503430 0.576380 -0.522396
O6    O     O_R   0.699080 0.276500 0.571950 -0.539113
C3    C     C_R   0.631623 0.223372 0.600971 0.552867
O7    O     O_R   0.498860 0.256520 0.419860 -0.533455
O8    O     O_R   0.272490 0.528150 0.429140 -0.496774
C4    C     C_R   0.284032 0.623613 0.392477 0.561330
O9    O     O_R   0.252110 0.740440 0.423010 -0.533296
O10   O     O_R   0.524510 0.695820 0.424050 -0.515553
C5    C     C_R   0.645999 0.621117 0.392339 0.559539
O11   O     O_R   0.736370 0.504260 0.414810 -0.528335
O12   O     O_R   0.691220 0.277270 0.422180 -0.500257
C6    C     C_R   0.615660 0.226892 0.395684 0.554949
Cr1   Cr    Cr6+3 0.392940 0.397950 0.502230 1.014826
Cr2   Cr    Cr6+3 0.398400 0.708500 0.501260 1.038930
Cr3   Cr    Cr6+3 0.708640 0.393530 0.496460 1.000434
O13   O     O_3   0.499990 0.499990 0.499980 -0.298713
C7    C     C_3   0.525252 0.711892 0.805383 -0.294343
H1    H     H_    0.460478 0.826128 0.817230 0.124408
H2    H     H_    0.489247 0.656333 0.841621 0.113827
C8    C     C_3   0.503443 0.683776 0.726536 -0.245106
H3    H     H_    0.462746 0.609559 0.725668 0.103528
H4    H     H_    0.423225 0.782575 0.701603 0.189047
H5    H     H_    0.644881 0.859963 0.774281 0.143138
C9    C     C_3   0.721523 0.746809 0.765683 0.111889
C10   C     C_3   0.762356 0.499920 0.799609 -0.231330
C11   C     C_3   0.682599 0.660031 0.817557 0.017244
H6    H     H_    0.876187 0.447914 0.810898 0.202020
H7    H     H_    0.721337 0.446037 0.833902 0.102290
C12   C     C_3   0.644264 0.615859 0.684057 -0.001454
C13   C     C_3   0.714034 0.708498 0.687593 0.122534
C14   C     C_3   0.742161 0.475329 0.721488 -0.276590
H8    H     H_    0.694359 0.407628 0.718347 0.124342
H9    H     H_    0.846489 0.419784 0.695072 0.165899
H10   H     H_    0.822764 0.643828 0.666348 0.164927
H11   H     H_    0.491970 0.145214 0.684172 0.196775
C15   C     C_R   0.697483 0.135606 0.818901 0.016740
C16   C     C_R   0.805854 0.140907 0.780265 0.046699
C17   C     C_R   0.802394 0.138998 0.704433 0.035912
C18   C     C_R   0.582544 0.140134 0.708910 -0.101755
C19   C     C_R   0.590699 0.130575 0.780814 -0.147134
C20   C     C_R   0.916236 0.149161 0.813677 -0.102299
C21   C     C_R   0.025303 0.144094 0.773764 -0.154317
C22   C     C_R   0.027289 0.130256 0.700206 -0.151113
C23   C     C_R   0.917819 0.126299 0.665721 -0.083901
C24   C     C_R   0.681010 0.154284 0.669916 0.033237
H12   H     H_    0.918375 0.164583 0.870150 0.129429
H13   H     H_    0.512891 0.113105 0.805954 0.146672
H14   H     H_    0.110155 0.147603 0.800463 0.107739
H15   H     H_    0.114807 0.120014 0.669423 0.120653
H16   H     H_    0.926316 0.109965 0.608825 0.146311
H17   H     H_    0.172689 0.860331 0.694736 0.149371
C25   C     C_R   0.194686 0.665385 0.837488 0.017561
C26   C     C_R   0.231320 0.536903 0.803805 0.061446
C27   C     C_R   0.224032 0.532291 0.728074 0.066837
C28   C     C_R   0.182652 0.771211 0.723441 -0.122879
C29   C     C_R   0.182549 0.776894 0.796540 -0.115242
C30   C     C_R   0.257216 0.418620 0.844271 -0.063392
C31   C     C_R   0.256042 0.305307 0.812482 -0.111517
C32   C     C_R   0.238015 0.303984 0.739525 -0.132507
C33   C     C_R   0.223103 0.414793 0.697479 -0.058202
C34   C     C_R   0.204023 0.650990 0.687395 0.012522
H18   H     H_    0.273970 0.415159 0.901098 0.099737
H19   H     H_    0.162972 0.874123 0.820957 0.148365
H20   H     H_    0.271029 0.217304 0.844584 0.091847
H21   H     H_    0.239097 0.214782 0.714947 0.113214
H22   H     H_    0.200141 0.409595 0.642336 0.149654
H23   H     H_    0.568055 0.868446 0.324313 0.121401
C35   C     C_R   0.662037 0.676603 0.170943 0.007318
C36   C     C_R   0.722113 0.540805 0.199582 0.025186
C37   C     C_R   0.754186 0.523882 0.272317 0.037518
C38   C     C_R   0.616474 0.776765 0.290099 -0.161730
C39   C     C_R   0.619451 0.792632 0.216787 -0.137501
C40   C     C_R   0.772485 0.421056 0.155278 -0.082810
C41   C     C_R   0.883039 0.293504 0.177394 -0.116510
C42   C     C_R   0.932706 0.279527 0.246311 -0.150169
C43   C     C_R   0.868349 0.391940 0.293837 -0.085372
C44   C     C_R   0.676553 0.642615 0.318600 0.003506
H24   H     H_    0.736692 0.429190 0.100949 0.113019
H25   H     H_    0.583974 0.896710 0.195749 0.150706
H26   H     H_    0.931658 0.206089 0.140595 0.122031
H27   H     H_    0.020185 0.180356 0.263278 0.108334
H28   H     H_    0.918899 0.375255 0.344777 0.143401
H29   H     H_    0.858767 0.090488 0.323983 0.133509
C45   C     C_R   0.655869 0.152740 0.177381 -0.001986
C46   C     C_R   0.523291 0.207297 0.209113 0.018451
C47   C     C_R   0.517977 0.190335 0.282580 0.031944
C48   C     C_R   0.766277 0.116860 0.292735 -0.151858
C49   C     C_R   0.776933 0.099917 0.220104 -0.139734
C50   C     C_R   0.398139 0.264984 0.168910 -0.085300
C51   C     C_R   0.276058 0.279295 0.198374 -0.126481
C52   C     C_R   0.273982 0.247087 0.269360 -0.156446
C53   C     C_R   0.394094 0.198714 0.310501 -0.096139
C54   C     C_R   0.636810 0.166784 0.324611 0.007232
H30   H     H_    0.394684 0.295893 0.114039 0.125248
H31   H     H_    0.881421 0.045352 0.197585 0.158043
H32   H     H_    0.182906 0.315848 0.166167 0.121602
H33   H     H_    0.180263 0.256386 0.292729 0.101569
H34   H     H_    0.389171 0.161399 0.362890 0.145064
H35   H     H_    0.136164 0.521169 0.329085 0.147742
C55   C     C_R   0.175756 0.654342 0.175332 -0.001475
C56   C     C_R   0.258668 0.710977 0.198034 0.026656
C57   C     C_R   0.272052 0.724905 0.271325 0.017384
C58   C     C_R   0.170027 0.575723 0.293457 -0.131710
C59   C     C_R   0.129471 0.589898 0.223383 -0.148496
C60   C     C_R   0.306910 0.775607 0.149477 -0.083652
C61   C     C_R   0.323016 0.886636 0.171817 -0.109263
C62   C     C_R   0.315008 0.916762 0.243737 -0.149146
C63   C     C_R   0.302542 0.830116 0.293312 -0.107108
C64   C     C_R   0.242045 0.641870 0.318391 0.006759
H36   H     H_    0.315684 0.751962 0.093115 0.113838
H37   H     H_    0.056972 0.555374 0.207453 0.144381
H38   H     H_    0.344995 0.947007 0.133828 0.125551
H39   H     H_    0.333526 0.998164 0.261908 0.121179
H40   H     H_    0.310590 0.855466 0.347464 0.165631
O14   O     O_R   0.089570 0.825450 0.930590 -0.533627
O15   O     O_R   0.818700 0.054260 0.929860 -0.498752
C65   C     C_R   0.704556 0.097686 0.894575 0.558352
O16   O     O_R   0.606310 0.077010 0.915520 -0.536735
O17   O     O_R   0.646730 0.806540 0.917560 -0.510871
C66   C     C_R   0.716820 0.682967 0.891410 0.565487
O18   O     O_R   0.837290 0.593240 0.915240 -0.489704
O19   O     O_R   0.065320 0.635310 0.931580 -0.467065
C67   C     C_R   0.122879 0.704100 0.907195 0.570107
O20   O     O_R   0.068470 0.828620 0.091850 -0.532066
O21   O     O_R   0.799150 0.057200 0.079350 -0.518360
C68   C     C_R   0.676074 0.105888 0.104151 0.526065
O22   O     O_R   0.585220 0.080180 0.076770 -0.533963
O23   O     O_R   0.627170 0.809480 0.067050 -0.517388
C69   C     C_R   0.696669 0.691239 0.097905 0.522822
O24   O     O_R   0.816200 0.596410 0.076500 -0.529173
O25   O     O_R   0.045770 0.638240 0.081070 -0.519916
C70   C     C_R   0.098218 0.705939 0.110285 0.526324
Cr4   Cr    Cr6+3 0.937880 0.938320 0.007620 1.001854
Cr5   Cr    Cr6+3 0.625560 0.937220 0.994510 0.998540
Cr6   Cr    Cr6+3 0.938080 0.625010 0.001190 1.027873
O26   O     O_3   0.833840 0.833520 0.001110 -0.231298
N1    N     N_R   0.860509 0.724556 0.780144 0.063215
O27   O     O_R   0.880569 0.829928 0.790699 -0.341419
O28   O     O_R   0.965455 0.597757 0.781117 -0.379653
N2    N     N_R   0.643194 0.835187 0.643490 0.074081
O29   O     O_R   0.712966 0.856884 0.594086 -0.323979
O30   O     O_R   0.510188 0.924250 0.651273 -0.408629

loop_
_geom_bond_atom_site_label_1
_geom_bond_atom_site_label_2
_geom_bond_distance
_ccdc_geom_bond_type
C25   C29   1.398108 A    
C61   H38   1.082643 S    
C48   C49   1.375270 A    
C51   H32   1.082523 S    
C50   C51   1.388121 A    
C3    C24   1.465556 S    
C16   C17   1.427284 A    
O19   C67   1.290143 A    
C42   C43   1.395193 A    
C47   C53   1.420978 A    
C69   O24   1.267909 A    
O4    Cr2   1.962237 S    
C38   C39   1.392748 A    
C21   H14   1.079047 S    
O8    Cr1   1.953117 S    
C8    H3    1.110136 S    
C66   O18   1.276791 A    
C57   C64   1.425128 A    
C12   C14   1.545041 S    
C14   H8    1.107334 S    
Cr5   O26   1.991592 S    
O15   Cr4   1.956581 S    
C62   C63   1.389358 A    
O23   Cr5   1.954037 S    
C40   H24   1.083431 S    
Cr4   O26   1.993734 S    
C43   H28   1.077832 S    
N1    O27   1.298023 A    
C55   C70   1.438639 S    
C55   C56   1.404287 A    
C18   C24   1.380607 A    
C25   C67   1.478013 S    
C11   C66   1.493261 S    
C5    O11   1.243134 A    
C52   C53   1.390447 A    
C2    C12   1.486611 S    
C59   H37   1.083769 S    
C15   C19   1.402398 A    
C7    C8    1.557406 S    
C57   C63   1.416970 A    
C15   C16   1.422829 A    
C41   H26   1.082136 S    
C62   H39   1.067854 S    
C33   H22   1.075996 S    
C60   C61   1.382725 A    
C27   C34   1.433336 A    
C68   O22   1.276666 A    
C56   C57   1.402712 A    
C10   H6    1.108613 S    
C60   H36   1.083563 S    
C31   H20   1.082210 S    
C8    H4    1.106616 S    
C16   C20   1.411875 A    
O19   Cr6   1.961374 S    
C48   C54   1.381651 A    
C4    C64   1.451229 S    
C45   C68   1.446868 S    
C27   C33   1.417506 A    
C26   C27   1.428988 A    
Cr3   O13   1.991950 S    
C51   C52   1.385270 A    
O20   Cr4   2.077072 S    
C37   C44   1.438819 A    
C61   C62   1.384146 A    
C15   C65   1.475279 S    
C45   C49   1.411438 A    
C2    O5    1.304100 A    
N2    O30   1.300734 A    
O17   Cr5   1.966594 S    
O1    Cr1   2.073344 S    
C35   C36   1.404994 A    
C30   C31   1.386323 A    
O10   Cr2   1.964535 S    
C65   O16   1.274150 A    
Cr1   O13   1.993187 S    
O1    C3    1.285035 A    
C49   H31   1.082472 S    
C37   C43   1.424842 A    
C46   C47   1.399884 A    
C50   H30   1.082103 S    
O6    C3    1.274995 A    
C5    C44   1.474078 S    
C25   C26   1.408773 A    
C32   H21   1.077771 S    
C23   H16   1.080902 S    
C9    N1    1.450804 S    
C10   C14   1.529909 S    
C29   H19   1.080248 S    
C12   C13   1.553792 S    
C36   C37   1.402754 A    
H5    C9    1.111499 S    
C28   C34   1.395036 A    
C20   C21   1.393236 A    
C13   H10   1.116369 S    
O7    Cr1   2.085787 S    
C7    H1    1.112928 S    
C35   C69   1.456017 S    
O12   C6    1.306967 A    
C10   H7    1.113451 S    
C42   H27   1.082316 S    
H11   C18   1.077308 S    
C52   H33   1.078324 S    
O18   Cr6   2.087366 S    
C17   C24   1.419710 A    
C13   N2    1.468855 S    
C21   C22   1.390501 A    
Cr2   O13   1.985709 S    
C32   C33   1.393279 A    
O17   C66   1.277170 A    
C6    C54   1.455759 S    
C1    O3    1.286519 A    
O20   C70   1.267777 A    
C39   H25   1.083519 S    
N2    O29   1.301481 A    
C55   C59   1.393463 A    
C17   C23   1.409414 A    
N1    O28   1.292083 A    
O25   Cr6   1.965005 S    
C30   H18   1.082414 S    
H23   C38   1.083192 S    
O9    Cr2   2.080564 S    
O2    Cr1   1.966054 S    
C56   C60   1.414475 A    
O16   Cr5   2.073624 S    
C10   C11   1.560412 S    
C1    C34   1.482623 S    
O14   C67   1.271018 A    
C41   C42   1.386292 A    
O6    Cr3   1.956074 S    
O8    C4    1.315160 A    
O11   Cr3   2.076824 S    
H17   C28   1.076382 S    
C20   H12   1.077402 S    
O25   C70   1.272049 A    
O23   C69   1.273802 A    
C26   C30   1.409255 A    
C9    C13   1.540641 S    
C31   C32   1.387853 A    
O14   Cr4   2.084444 S    
O2    C1    1.271496 A    
C14   H9    1.111962 S    
C22   H15   1.080438 S    
Cr6   O26   1.985479 S    
C7    C11   1.547808 S    
C9    C11   1.567890 S    
C45   C46   1.403500 A    
O4    C2    1.305977 A    
H35   C58   1.082992 S    
O7    C6    1.243980 A    
C53   H34   1.079944 S    
O5    Cr3   2.086304 S    
C19   H13   1.076650 S    
O24   Cr6   2.080328 S    
C7    H2    1.112843 S    
H29   C48   1.083740 S    
C28   C29   1.376175 A    
O12   Cr3   1.964541 S    
O21   Cr4   1.963325 S    
C58   C64   1.397786 A    
C46   C50   1.416163 A    
C40   C41   1.385503 A    
O3    Cr2   2.085813 S    
C18   C19   1.356389 A    
C8    C12   1.561765 S    
C4    O9    1.283567 A    
O22   Cr5   2.085701 S    
C22   C23   1.389551 A    
C35   C39   1.409390 A    
C38   C44   1.389014 A    
O10   C5    1.310992 A    
O15   C65   1.285646 A    
C58   C59   1.376160 A    
C36   C40   1.413836 A    
C63   H40   1.070748 S    
O21   C68   1.270595 A    
C47   C54   1.438823 A    
