data_mof_unit_49208.cif
_audit_creation_date              2012-12-10T17:53:22-0500
_audit_creation_method            fapswitch 2.2
_symmetry_space_group_name_H-M    P1
_symmetry_Int_Tables_number       1
_space_group_crystal_system       triclinic
_cell_length_a                    23.36719
_cell_length_b                    10.675853
_cell_length_c                    10.012347
_cell_angle_alpha                 91.408055
_cell_angle_beta                  89.062854
_cell_angle_gamma                 93.410457
_cell_volume                      2492.27300501

loop_
_atom_site_label
_atom_site_type_symbol
_atom_type_description
_atom_site_fract_x
_atom_site_fract_y
_atom_site_fract_z
_atom_type_partial_charge
C1    C     C_R   0.506214 0.261331 0.498354 0.963182
C2    C     C_R   0.118557 0.533848 0.606214 0.515985
C3    C     C_R   0.242441 0.619480 0.479724 0.481093
C4    C     C_R   0.389804 0.499657 0.500644 0.921909
C5    C     C_R   0.302103 0.616894 0.481138 0.049209
C6    C     C_R   0.327674 0.502029 0.500515 -0.205465
C7    C     C_R   0.293594 0.388779 0.512505 0.004357
C8    C     C_R   0.233794 0.391172 0.509593 0.487755
C9    C     C_R   0.208424 0.506682 0.494022 0.003336
C10   C     C_R   0.762121 0.411615 0.471820 -0.089921
C11   C     C_R   0.702628 0.400055 0.475606 0.392732
C12   C     C_R   0.971735 0.497421 0.236889 0.165489
C13   C     C_R   0.671898 0.509683 0.496123 -0.134513
C14   C     C_R   0.701237 0.628977 0.511211 0.100828
C15   C     C_R   0.760934 0.637022 0.506265 -0.100671
C16   C     C_R   0.494621 0.739282 0.501738 0.873473
C17   C     C_R   0.791073 0.529125 0.486447 0.168221
C18   C     C_R   0.546713 0.119615 0.730122 0.401804
C19   C     C_R   0.535359 0.067952 0.857566 0.283828
C20   C     C_R   0.499314 0.959828 0.867607 -0.244231
C21   C     C_R   0.476535 0.898645 0.754055 0.452743
C22   C     C_R   0.492501 0.944061 0.625123 -0.181236
C23   C     C_R   0.030509 0.473095 0.242145 0.155499
C24   C     C_R   0.518185 0.065011 0.616892 -0.090711
C25   C     C_R   0.514155 0.127572 0.494982 -0.150198
C26   C     C_R   0.502748 0.060672 0.374854 0.342862
C27   C     C_R   0.487645 0.932901 0.379877 0.318556
C28   C     C_R   0.610008 0.500895 0.498947 0.847856
C29   C     C_R   0.486371 0.873283 0.504103 -0.199663
C30   C     C_R   0.427900 0.312852 0.122261 0.484526
C31   C     C_R   0.402621 0.217910 0.034983 -0.068222
C32   C     C_R   0.397922 0.245176 0.898459 0.393420
C33   C     C_R   0.413436 0.367117 0.860974 0.214346
C34   C     C_R   0.060890 0.498400 0.362967 -0.054660
C35   C     C_R   0.460286 0.425971 0.926772 -0.089195
C36   C     C_R   0.463367 0.414695 0.068347 0.008644
C37   C     C_R   0.537295 0.577435 0.072296 0.221979
C38   C     C_R   0.537768 0.576078 0.928935 0.250638
C39   C     C_R   0.880810 0.565421 0.597454 0.545656
C40   C     C_R   0.879949 0.515012 0.363891 0.532725
C41   C     C_R   0.940537 0.517790 0.357784 -0.061895
C42   C     C_R   0.970513 0.537859 0.478821 -0.055626
C43   C     C_R   0.940388 0.565278 0.598407 -0.088162
C44   C     C_3   0.944434 0.511575 0.101934 -0.743445
C45   C     C_R   0.030530 0.531045 0.481269 -0.097626
C46   C     C_3   0.671127 0.749625 0.530943 -0.861201
C47   C     C_3   0.581334 0.663738 0.143247 -0.783105
C48   C     C_3   0.058515 0.409818 0.122341 -0.691529
C49   C     C_3   0.376536 0.095526 0.088642 -0.858819
C50   C     C_3   0.362342 0.446722 0.851340 -0.740947
C51   C     C_3   0.580797 0.664200 0.858604 -0.783801
C52   C     C_3   0.336746 0.739191 0.459499 -0.707289
C53   C     C_3   0.319264 0.262892 0.526697 -0.691006
C54   C     C_R   0.059861 0.553532 0.603648 -0.118400
C55   C     C_R   0.029203 0.591352 0.719747 0.446136
C56   C     C_R   0.969986 0.592527 0.716726 -0.168786
C57   C     C_R   0.121073 0.495465 0.370242 0.530878
H1    H     H_    0.784285 0.727425 0.517147 0.167460
H2    H     H_    0.683103 0.793794 0.628893 0.254817
H3    H     H_    0.684621 0.815305 0.450483 0.254000
H4    H     H_    0.486383 0.074395 0.184360 0.369129
H5    H     H_    0.615865 0.217428 0.784481 0.350083
H6    H     H_    0.562421 0.215097 0.960777 0.346524
H7    H     H_    0.411981 0.791747 0.692309 0.334513
H8    H     H_    0.503229 0.883170 0.197444 0.334359
H9    H     H_    0.577043 0.762384 0.115256 0.211772
H10   H     H_    0.578042 0.664740 0.251277 0.288164
H11   H     H_    0.625138 0.635857 0.116365 0.226580
H12   H     H_    0.487912 0.923920 0.965178 0.188463
H13   H     H_    0.084230 0.332399 0.155374 0.251580
H14   H     H_    0.026751 0.363157 0.053488 0.217424
H15   H     H_    0.085762 0.479446 0.065674 0.302903
H16   H     H_    0.373852 0.279587 0.265109 0.322769
H17   H     H_    0.384153 0.084494 0.196603 0.263004
H18   H     H_    0.329533 0.089400 0.072724 0.263522
H19   H     H_    0.395970 0.015084 0.036788 0.252068
H20   H     H_    0.364685 0.080927 0.840574 0.360370
H21   H     H_    0.332549 0.408171 0.773749 0.261952
H22   H     H_    0.338488 0.447618 0.948349 0.212870
H23   H     H_    0.947303 0.618670 0.807471 0.203907
H24   H     H_    0.375437 0.546070 0.830150 0.268488
H25   H     H_    0.575278 0.668484 0.751704 0.286297
H26   H     H_    0.576623 0.762156 0.894724 0.213745
H27   H     H_    0.624988 0.636121 0.876022 0.228069
H28   H     H_    0.087913 0.689955 0.813014 0.373505
H29   H     H_    0.176688 0.724549 0.462538 0.345088
H30   H     H_    0.383291 0.728784 0.456159 0.199428
H31   H     H_    0.325215 0.778763 0.362652 0.273733
H32   H     H_    0.327310 0.807483 0.541184 0.242341
H33   H     H_    0.366617 0.268931 0.534009 0.224527
H34   H     H_    0.786228 0.328632 0.457092 0.175391
H35   H     H_    0.301497 0.217504 0.618084 0.298428
H36   H     H_    0.307486 0.201182 0.439354 0.238712
H37   H     H_    0.160212 0.292688 0.520245 0.347957
H38   H     H_    0.919074 0.424229 0.072806 0.266357
H39   H     H_    0.917045 0.593112 0.104352 0.264243
H40   H     H_    0.976820 0.533575 0.022595 0.247318
H41   H     H_    0.634795 0.283551 0.461141 0.350023
H42   H     H_    0.623784 0.736408 0.528669 0.221079
N1    N     N_R   0.852153 0.538472 0.482085 -0.340051
N2    N     N_R   0.147526 0.509848 0.490389 -0.362764
N3    N     N_R   0.499460 0.498800 0.142780 -0.090732
N4    N     N_R   0.499440 0.498720 0.857170 -0.096426
O1    O     O_R   0.500000 0.316780 0.614690 -0.591722
O2    O     O_R   0.583850 0.500050 0.614640 -0.598232
O3    O     O_R   0.583840 0.500030 0.385310 -0.634790
O4    O     O_2   0.851386 0.589440 0.711560 -0.551130
O5    O     O_3   0.676977 0.280665 0.459007 -0.725010
O6    O     O_3   0.507965 0.122023 0.254696 -0.693552
O7    O     O_3   0.587981 0.216086 0.711017 -0.752758
O8    O     O_3   0.555946 0.123709 0.974250 -0.740913
O9    O     O_3   0.435018 0.803294 0.774290 -0.740091
O10   O     O_3   0.472606 0.865538 0.265034 -0.751068
O11   O     O_3   0.414813 0.307958 0.254959 -0.698108
O12   O     O_2   0.848476 0.484886 0.254791 -0.550562
O13   O     O_3   0.368691 0.167349 0.807272 -0.777474
O14   O     O_3   0.055377 0.630537 0.836982 -0.747162
O15   O     O_3   0.218998 0.734178 0.462638 -0.732944
O16   O     O_3   0.201626 0.278690 0.522034 -0.730784
O17   O     O_2   0.153706 0.482092 0.259063 -0.537960
O18   O     O_2   0.146897 0.536806 0.722720 -0.513774
O19   O     O_R   0.500000 0.316750 0.385360 -0.500206
O20   O     O_R   0.416160 0.499970 0.614690 -0.618377
O21   O     O_R   0.416150 0.499950 0.385360 -0.549973
O22   O     O_R   0.500000 0.683250 0.614640 -0.615365
O23   O     O_R   0.500000 0.683220 0.385310 -0.577972
Zn1   Zn    Zn3+2 0.500000 0.500020 0.653130 0.986070
Zn2   Zn    Zn3+2 0.500000 0.499980 0.346870 1.031530

loop_
_geom_bond_atom_site_label_1
_geom_bond_atom_site_label_2
_ccdc_geom_bond_type
C55   C56   A    
C22   C29   A    
C46   H2    S    
C27   C29   A    
C41   C42   A    
C19   C20   A    
C46   H42   S    
H4    O6    S    
C50   H22   S    
C7    C8    A    
C14   C46   S    
C39   O4    S    
C12   C23   A    
C26   C27   A    
C12   C41   A    
C3    C9    A    
C37   C38   A    
C48   H15   S    
C35   N4    A    
C55   O14   S    
C5    C6    A    
H7    O9    S    
C40   O12   S    
C10   C17   A    
O3    Zn2   S    
H41   O5    S    
C4    O21   A    
C36   N3    A    
C18   C19   A    
C44   H40   S    
C1    O19   A    
C35   C36   A    
C28   O3    A    
C8    C9    A    
H5    O7    S    
C34   C57   A    
C49   H18   S    
C13   C28   S    
C37   C47   S    
H20   O13   S    
N4    Zn1   S    
C16   O22   A    
C47   H9    S    
O21   Zn2   S    
C13   C14   A    
C1    C25   S    
C52   H32   S    
C26   O6    S    
C31   C49   S    
C50   H21   S    
C47   H10   S    
C25   C26   A    
O2    Zn1   S    
C53   H36   S    
C52   H31   S    
C24   C25   A    
C4    C6    S    
C2    C54   A    
H6    O8    S    
C39   C43   A    
C38   C51   S    
C37   N3    A    
C2    N2    A    
C16   C29   S    
H16   O11   S    
C4    O20   A    
C42   C45   A    
C40   N1    A    
C38   N4    A    
C44   H39   S    
C3    O15   S    
H37   O16   S    
O20   Zn1   S    
C31   C32   A    
C51   H25   S    
C28   O2    A    
C23   C34   A    
C53   H35   S    
C49   H19   S    
H29   O15   S    
C34   C45   A    
C32   O13   S    
H28   O14   S    
C1    O1    A    
C57   O17   S    
C27   O10   S    
C40   C41   A    
C45   C54   A    
C15   H1    S    
C18   C24   A    
C20   H12   S    
C42   C43   A    
C7    C53   S    
C48   H14   S    
C51   H26   S    
C47   H11   S    
C11   O5    S    
C21   O9    S    
C30   O11   S    
C2    O18   S    
C15   C17   A    
C54   C55   A    
O23   Zn2   S    
C23   C48   S    
C5    C52   S    
C46   H3    S    
C49   H17   S    
H8    O10   S    
C52   H30   S    
C18   O7    S    
C48   H13   S    
C3    C5    A    
C10   H34   S    
C6    C7    A    
C19   O8    S    
C57   N2    A    
N3    Zn2   S    
C56   H23   S    
C30   C36   A    
C32   C33   A    
C33   C50   S    
C12   C44   S    
C44   H38   S    
C11   C13   A    
C39   N1    A    
C30   C31   A    
O1    Zn1   S    
C33   C35   A    
C22   C24   A    
O19   Zn2   S    
C17   N1    S    
C10   C11   A    
C43   C56   A    
C20   C21   A    
C50   H24   S    
C9    N2    S    
C53   H33   S    
O22   Zn1   S    
C14   C15   A    
C21   C22   A    
C16   O23   A    
C51   H27   S    
C8    O16   S    
