data_mof_unit_25562.cif
_audit_creation_date              2012-12-10T16:52:16-0500
_audit_creation_method            fapswitch 2.2
_symmetry_space_group_name_H-M    P1
_symmetry_Int_Tables_number       1
_space_group_crystal_system       triclinic
_cell_length_a                    11.060516
_cell_length_b                    10.91718
_cell_length_c                    9.710829
_cell_angle_alpha                 91.019319
_cell_angle_beta                  103.262413
_cell_angle_gamma                 90.154641
_cell_volume                      1141.09766456

loop_
_atom_site_label
_atom_site_type_symbol
_atom_type_description
_atom_site_fract_x
_atom_site_fract_y
_atom_site_fract_z
_atom_type_partial_charge
C1    C     C_R   0.494189 0.265711 0.497432 0.708808
C2    C     C_2   0.518279 0.866326 0.511179 -0.249097
C3    C     C_2   0.530127 0.066103 0.407338 -0.257714
C4    C     C_2   0.473027 0.134069 0.489827 0.327029
C5    C     C_2   0.418143 0.442433 0.901284 -0.069480
C6    C     C_2   0.434937 0.421156 0.060300 0.565350
C7    C     C_R   0.262616 0.498286 0.441954 0.730045
C8    C     C_R   0.504582 0.734559 0.502459 0.815812
C9    C     C_R   0.737322 0.500126 0.557885 0.847131
C10   C     C_2   0.126654 0.493485 0.407576 0.270541
C11   C     C_2   0.066769 0.500020 0.513199 -0.264146
C12   C     C_2   0.872717 0.500596 0.590659 -0.386379
C13   C     C_2   0.931708 0.499177 0.484881 -0.113010
C14   C     C_2   0.519349 0.932653 0.397154 -0.146175
Cu1   Cu    Cu3+1 0.500020 0.500020 0.638640 0.966338
Cu2   Cu    Cu3+1 0.499980 0.499980 0.361360 0.984432
H1    H     H_    0.879655 0.497163 0.375352 0.225811
H2    H     H_    0.519651 0.581584 0.115947 0.183729
H3    H     H_    0.117962 0.505268 0.623082 0.149500
H4    H     H_    0.924058 0.502076 0.700511 0.156510
H5    H     H_    0.517128 0.888896 0.295248 0.159378
H6    H     H_    0.531710 0.908993 0.615468 0.191454
H7    H     H_    0.583006 0.109913 0.340103 0.142686
H8    H     H_    0.334899 0.408160 0.828980 0.073631
N1    N     N_2   0.498650 0.498660 0.846590 -0.011622
N2    N     N_2   0.498620 0.498630 0.152710 -0.284467
O1    O     O_R   0.500020 0.321960 0.617050 -0.564164
O2    O     O_R   0.499980 0.321920 0.382890 -0.540293
O3    O     O_R   0.320700 0.500020 0.574050 -0.623881
O4    O     O_R   0.320660 0.499980 0.339890 -0.529937
O5    O     O_R   0.500020 0.678080 0.617110 -0.606482
O6    O     O_R   0.499980 0.678040 0.382950 -0.585734
O7    O     O_R   0.679340 0.500020 0.660110 -0.560446
O8    O     O_R   0.679300 0.499980 0.425950 -0.579198
O9    O     O_3   0.612321 0.513422 0.933334 -0.499319
C15   C     C_3   0.647317 0.637573 0.928430 0.170089
H9    H     H_    0.570557 0.700429 0.939010 0.106402
H10   H     H_    0.674876 0.657763 0.828820 0.186781
C16   C     C_3   0.758949 0.665344 0.049560 -0.854146
H11   H     H_    0.839204 0.608755 0.037367 0.274025
H12   H     H_    0.785081 0.763567 0.048798 0.205783
H13   H     H_    0.736719 0.645374 0.152759 0.254845
O10   O     O_3   0.378265 0.323266 0.112694 -0.556845
C17   C     C_3   0.324082 0.235291 0.007941 -0.002506
H14   H     H_    0.389212 0.207955 0.940836 0.163364
H15   H     H_    0.236450 0.271625 0.941502 0.140044
C18   C     C_3   0.291876 0.120280 0.078520 -0.774594
H16   H     H_    0.232257 0.142901 0.152899 0.232176
H17   H     H_    0.241284 0.054452 0.996821 0.200494
H18   H     H_    0.378094 0.076218 0.137133 0.248614
O11   O     O_3   0.061418 0.489120 0.267312 -0.569409
C19   C     C_3   0.062267 0.367422 0.215820 0.047822
H19   H     H_    0.017736 0.303971 0.278442 0.133033
H20   H     H_    0.158638 0.336497 0.219592 0.176361
C20   C     C_3   0.989769 0.360428 0.062506 -0.763802
H21   H     H_    0.030860 0.424185 0.997569 0.241760
H22   H     H_    0.993247 0.265720 0.019979 0.196821
H23   H     H_    0.891252 0.385228 0.055414 0.265668
O12   O     O_3   0.397878 0.079917 0.569095 -0.578960
C21   C     C_3   0.280568 0.137346 0.544185 0.070012
H24   H     H_    0.241268 0.150340 0.428911 0.114237
H25   H     H_    0.287298 0.227447 0.600715 0.145084
C22   C     C_3   0.190965 0.057190 0.600697 -0.795412
H26   H     H_    0.226301 0.044195 0.716124 0.243076
H27   H     H_    0.098549 0.101601 0.582338 0.195471
H28   H     H_    0.180831 0.966348 0.545704 0.257066

loop_
_geom_bond_atom_site_label_1
_geom_bond_atom_site_label_2
_ccdc_geom_bond_type
C2    H6    S    
C7    C10   S    
C20   H21   S    
C17   C18   S    
Cu1   O5    S    
C7    O3    A    
C1    O2    A    
Cu1   O1    S    
Cu2   O2    S    
H2    N2    S    
C19   C20   S    
C13   H1    S    
O10   C17   S    
C1    C4    S    
C22   H27   S    
C12   H4    S    
C15   H10   S    
C22   H28   S    
O12   C21   S    
C16   H12   S    
C7    O4    A    
C17   H14   S    
C9    O7    A    
C12   C13   D    
C11   C13   S    
C11   H3    S    
C6    N2    D    
C3    C14   S    
N1    O9    S    
C21   C22   S    
C5    N1    D    
C10   O11   S    
C4    O12   S    
C21   H25   S    
C15   H9    S    
C19   H20   S    
C9    O8    A    
Cu1   O3    S    
C18   H18   S    
C6    O10   S    
C20   H22   S    
Cu2   N2    S    
C5    C6    S    
C2    C14   D    
C9    C12   S    
Cu1   N1    S    
Cu2   O6    S    
C10   C11   D    
Cu2   O4    S    
Cu1   Cu2   S    
C8    O6    A    
O11   C19   S    
C19   H19   S    
C14   H5    S    
C18   H17   S    
C20   H23   S    
C16   H11   S    
C1    O1    A    
C16   H13   S    
C5    H8    S    
C21   H24   S    
Cu2   O8    S    
C8    O5    A    
C3    H7    S    
Cu1   O7    S    
C15   C16   S    
C2    C8    S    
C3    C4    D    
C18   H16   S    
C17   H15   S    
C22   H26   S    
O9    C15   S    
