data_mof_unit_5222.cif
_audit_creation_date              2012-12-11T15:22:48-0500
_audit_creation_method            fapswitch 2.2
_symmetry_space_group_name_H-M    P1
_symmetry_Int_Tables_number       1
_space_group_crystal_system       triclinic
_cell_length_a                    22.400609
_cell_length_b                    12.986151
_cell_length_c                    26.906168
_cell_angle_alpha                 90.000582
_cell_angle_beta                  90.43579
_cell_angle_gamma                 89.999614
_cell_volume                      7826.71574708

loop_
_atom_site_label
_atom_site_type_symbol
_atom_type_description
_atom_site_fract_x
_atom_site_fract_y
_atom_site_fract_z
_atom_type_partial_charge
C1    C     C_R   0.720860 0.344891 0.178268 0.594092
C2    C     C_R   0.472867 0.255663 0.898893 -0.120616
C3    C     C_R   0.010698 0.577676 0.555651 0.269164
C4    C     C_R   0.505203 0.076073 0.394025 -0.157243
C5    C     C_R   0.494764 0.076085 0.605953 -0.159070
C6    C     C_R   0.005231 0.576089 0.394045 -0.159070
C7    C     C_R   0.994792 0.576068 0.605973 -0.157245
C8    C     C_R   0.743742 0.946696 0.369532 -0.017252
C9    C     C_R   0.256224 0.946656 0.630485 -0.015469
C10   C     C_R   0.243777 0.446658 0.369515 -0.015468
C11   C     C_R   0.756259 0.446695 0.630468 -0.017253
C12   C     C_R   0.698769 0.886689 0.392305 -0.024752
C13   C     C_R   0.027113 0.755661 0.101111 -0.120560
C14   C     C_R   0.301137 0.886466 0.607746 -0.024731
C15   C     C_R   0.198864 0.386466 0.392253 -0.024729
C16   C     C_R   0.801233 0.386691 0.607694 -0.024750
C17   C     C_R   0.698111 0.880915 0.444592 0.158400
C18   C     C_R   0.301806 0.880603 0.555458 0.158328
C19   C     C_R   0.198196 0.380601 0.444541 0.158327
C20   C     C_R   0.801891 0.380919 0.555407 0.158399
C21   C     C_R   0.747670 0.917162 0.471994 0.090103
C22   C     C_R   0.252305 0.917006 0.528030 0.090041
C23   C     C_R   0.247696 0.417005 0.471970 0.090043
C24   C     C_R   0.988464 0.756361 0.894171 -0.081706
C25   C     C_R   0.752332 0.417165 0.528005 0.090101
C26   C     C_R   0.797235 0.960053 0.448045 0.189432
C27   C     C_R   0.202774 0.960075 0.551954 0.189289
C28   C     C_R   0.297226 0.460076 0.448046 0.189289
C29   C     C_R   0.702765 0.460052 0.551955 0.189431
C30   C     C_R   0.794294 0.976501 0.396963 -0.147523
C31   C     C_R   0.205710 0.976570 0.603031 -0.146695
C32   C     C_R   0.294290 0.476574 0.396969 -0.146697
C33   C     C_R   0.705706 0.476498 0.603037 -0.147521
C34   C     C_R   0.762500 0.988790 0.557160 -0.061928
C35   C     C_R   0.497690 0.258128 0.054726 0.042281
C36   C     C_R   0.237607 0.988699 0.442860 -0.061975
C37   C     C_R   0.262393 0.488697 0.557141 -0.061977
C38   C     C_R   0.737499 0.488792 0.442840 -0.061926
C39   C     C_R   0.721164 0.346763 0.321801 0.592242
C40   C     C_R   0.278836 0.346756 0.678196 0.598498
C41   C     C_R   0.221164 0.846757 0.321804 0.598498
C42   C     C_R   0.778836 0.846762 0.678199 0.592260
C43   C     C_R   0.770533 0.973242 0.608439 0.232944
C44   C     C_R   0.229570 0.973189 0.391578 0.234387
C45   C     C_R   0.270429 0.473188 0.608423 0.234388
C46   C     C_R   0.482396 0.258057 0.950491 0.013573
C47   C     C_R   0.729466 0.473244 0.391561 0.232941
C48   C     C_R   0.745935 0.792004 0.596262 -0.184160
C49   C     C_R   0.253925 0.791856 0.403755 -0.184255
C50   C     C_R   0.246076 0.291854 0.596244 -0.184253
C51   C     C_R   0.754067 0.292007 0.403737 -0.184160
C52   C     C_R   0.740194 0.807186 0.545832 -0.087743
C53   C     C_R   0.259678 0.807009 0.454187 -0.087301
C54   C     C_R   0.240324 0.307007 0.545812 -0.087298
C55   C     C_R   0.759809 0.307189 0.454167 -0.087746
C56   C     C_R   0.749020 0.905062 0.525950 0.085361
C57   C     C_R   0.017584 0.758058 0.049512 0.013528
C58   C     C_R   0.250972 0.904916 0.474072 0.085392
C59   C     C_R   0.249029 0.404914 0.525928 0.085391
C60   C     C_R   0.750982 0.405065 0.474050 0.085363
C61   C     C_R   0.762604 0.873707 0.627574 0.065195
C62   C     C_R   0.237375 0.873628 0.372442 0.066116
C63   C     C_R   0.262625 0.373627 0.627558 0.066117
C64   C     C_R   0.737396 0.373709 0.372426 0.065195
C65   C     C_R   0.552831 0.158948 0.321249 0.562010
C66   C     C_R   0.447160 0.158949 0.678745 0.561875
C67   C     C_R   0.052839 0.658950 0.321254 0.561872
C68   C     C_R   0.002290 0.758137 0.945277 0.042162
C69   C     C_R   0.947168 0.658947 0.678751 0.562016
C70   C     C_R   0.732498 0.999315 0.322091 0.579530
C71   C     C_R   0.267495 0.999302 0.677916 0.584923
C72   C     C_R   0.232506 0.499303 0.322084 0.584923
C73   C     C_R   0.767502 0.499314 0.677909 0.579514
C74   C     C_R   0.501645 0.070091 0.106235 -0.011634
C75   C     C_R   0.496300 0.072340 0.896533 0.007345
C76   C     C_R   0.003731 0.572319 0.103458 0.007352
C77   C     C_R   0.998390 0.570109 0.893754 -0.011693
C78   C     C_R   0.502915 0.070106 0.053903 0.038055
C79   C     C_R   0.498270 0.164565 0.028081 -0.013008
C80   C     C_R   0.501342 0.071826 0.948952 0.026016
C81   C     C_R   0.998702 0.571809 0.051039 0.026007
C82   C     C_R   0.997132 0.570109 0.946087 0.038031
C83   C     C_R   0.513727 0.980754 0.975476 -0.117731
C84   C     C_R   0.512514 0.979335 0.026954 -0.105491
C85   C     C_R   0.987575 0.479320 0.973031 -0.105583
C86   C     C_R   0.986358 0.480727 0.024509 -0.117742
C87   C     C_2   0.511380 0.979546 0.866729 0.251742
C88   C     C_2   0.478042 0.980292 0.135002 0.240520
C89   C     C_2   0.022006 0.480335 0.864975 0.240527
C90   C     C_R   0.493683 0.164858 0.975795 -0.017152
C91   C     C_2   0.988664 0.479510 0.133254 0.251746
C92   C     C_2   0.641566 0.853830 0.129205 0.265574
C93   C     C_2   0.315618 0.793009 0.856807 0.293832
C94   C     C_2   0.184395 0.293002 0.143193 0.293851
C95   C     C_2   0.858554 0.354132 0.870844 0.265837
C96   C     C_2   0.501452 0.360329 0.364217 0.309817
C97   C     C_2   0.498468 0.360354 0.635746 0.307922
C98   C     C_2   0.001539 0.860361 0.364257 0.307924
C99   C     C_2   0.998555 0.860323 0.635787 0.309817
C100  C     C_2   0.655615 0.824564 0.362324 0.260379
C101  C     C_R   0.006330 0.664853 0.024201 -0.017214
C102  C     C_2   0.344201 0.824245 0.637770 0.259354
C103  C     C_2   0.155802 0.324244 0.362229 0.259355
C104  C     C_2   0.844389 0.324566 0.637673 0.260381
C105  C     C_2   0.865179 0.954170 0.036701 0.221656
C106  C     C_2   0.190847 0.078072 0.985809 0.239772
C107  C     C_2   0.309134 0.578094 0.014189 0.239751
C108  C     C_2   0.634768 0.453659 0.963234 0.221598
C109  C     C_R   0.278970 0.345509 0.821372 0.610378
C110  C     C_R   0.001744 0.664567 0.971915 -0.013036
C111  C     C_R   0.486010 0.351403 0.029757 0.297948
C112  C     C_R   0.478933 0.351635 0.977112 0.277129
C113  C     C_R   0.021013 0.851645 0.022897 0.277135
C114  C     C_R   0.013937 0.851418 0.970252 0.297947
C115  C     C_R   0.742707 0.946488 0.132279 0.027396
C116  C     C_R   0.259252 0.961347 0.870968 0.029378
C117  C     C_R   0.240746 0.461352 0.129031 0.029386
C118  C     C_R   0.757315 0.446476 0.867719 0.027241
C119  C     C_R   0.797361 0.964001 0.108380 -0.181325
C120  C     C_R   0.221030 0.845509 0.178628 0.610379
C121  C     C_R   0.228486 0.026236 0.903883 -0.171799
C122  C     C_R   0.271503 0.526250 0.096115 -0.171797
C123  C     C_R   0.702628 0.463810 0.891593 -0.181356
C124  C     C_R   0.804778 0.940746 0.058089 -0.002574
C125  C     C_R   0.225579 0.005247 0.954458 0.030760
C126  C     C_R   0.274409 0.505263 0.045540 0.030749
C127  C     C_R   0.695206 0.440515 0.941880 -0.002709
C128  C     C_R   0.754786 0.906028 0.030335 0.078965
C129  C     C_R   0.255518 0.917353 0.972832 0.072592
C130  C     C_R   0.244476 0.417363 0.027166 0.072589
C131  C     C_R   0.779140 0.844893 0.821730 0.594183
C132  C     C_R   0.745228 0.406005 0.969662 0.078740
C133  C     C_R   0.701612 0.882159 0.054804 -0.123360
C134  C     C_R   0.285046 0.850587 0.940297 -0.123919
C135  C     C_R   0.214957 0.350588 0.059702 -0.123896
C136  C     C_R   0.798451 0.382357 0.945217 -0.123347
C137  C     C_R   0.551541 0.157151 0.178548 0.524398
C138  C     C_R   0.446970 0.157169 0.822488 0.523711
C139  C     C_R   0.053030 0.657168 0.177511 0.523717
C140  C     C_R   0.948459 0.657152 0.821452 0.524353
C141  C     C_R   0.696271 0.895309 0.105913 -0.014154
C142  C     C_R   0.476394 0.163058 0.872112 -0.058511
C143  C     C_R   0.286631 0.870495 0.889177 -0.003472
C144  C     C_R   0.213373 0.370494 0.110823 -0.003461
C145  C     C_R   0.803795 0.395467 0.894109 -0.014267
C146  C     C_R   0.739743 0.800085 0.954163 0.241764
C147  C     C_R   0.209766 0.819625 0.041137 0.262276
C148  C     C_R   0.290227 0.319627 0.958862 0.262288
C149  C     C_R   0.760513 0.300250 0.045872 0.241608
C150  C     C_R   0.742477 0.789756 0.902652 -0.169647
C151  C     C_R   0.200287 0.807612 0.092005 -0.151989
C152  C     C_R   0.299708 0.307611 0.907995 -0.151974
C153  C     C_R   0.517515 0.162222 0.131118 -0.063552
C154  C     C_R   0.757784 0.289961 0.097386 -0.169739
C155  C     C_R   0.777665 0.966097 0.894139 0.241008
C156  C     C_R   0.278951 0.931354 0.111235 0.253588
C157  C     C_R   0.221051 0.431368 0.888763 0.253627
C158  C     C_R   0.722136 0.466039 0.105838 0.241070
C159  C     C_R   0.772560 0.977851 0.945827 -0.111576
C160  C     C_R   0.288234 0.944302 0.059991 -0.107181
C161  C     C_R   0.211765 0.444317 0.940007 -0.107145
C162  C     C_R   0.727222 0.477765 0.054149 -0.111328
C163  C     C_R   0.755949 0.894312 0.975918 0.080188
C164  C     C_R   0.982489 0.662233 0.868880 -0.063551
C165  C     C_R   0.252937 0.890250 0.025407 0.066201
C166  C     C_R   0.247058 0.390259 0.974591 0.066194
C167  C     C_R   0.744058 0.394322 0.024084 0.080256
C168  C     C_R   0.763289 0.870594 0.872805 0.034998
C169  C     C_R   0.233584 0.864626 0.126664 0.059827
C170  C     C_R   0.266415 0.364629 0.873336 0.059824
C171  C     C_R   0.736737 0.370666 0.127204 0.034851
C172  C     C_R   0.519606 0.167177 0.368855 -0.041736
C173  C     C_R   0.480361 0.167184 0.631127 -0.042752
C174  C     C_R   0.019638 0.667188 0.368873 -0.042754
C175  C     C_R   0.023610 0.663048 0.127885 -0.058508
C176  C     C_R   0.980394 0.667173 0.631145 -0.041737
C177  C     C_R   0.505427 0.261948 0.392114 0.029357
C178  C     C_R   0.494507 0.261961 0.607857 0.030011
C179  C     C_R   0.005496 0.761965 0.392144 0.030009
C180  C     C_R   0.994576 0.761944 0.607887 0.029357
C181  C     C_R   0.490425 0.262420 0.443045 0.155864
C182  C     C_R   0.509487 0.262433 0.556922 0.155605
C183  C     C_R   0.990516 0.762437 0.443080 0.155606
C184  C     C_R   0.009578 0.762416 0.556956 0.155863
C185  C     C_R   0.731831 0.999475 0.179985 0.570101
C186  C     C_R   0.511515 0.256351 0.105832 -0.081695
C187  C     C_R   0.268393 0.001611 0.820567 0.593213
C188  C     C_R   0.231606 0.501611 0.179433 0.593221
C189  C     C_R   0.768171 0.499475 0.820015 0.569968
C190  C     C_R   0.495909 0.170300 0.471696 0.053071
C191  C     C_R   0.504015 0.170305 0.528275 0.053213
C192  C     C_R   0.995984 0.670307 0.471724 0.053212
C193  C     C_R   0.004090 0.670298 0.528304 0.053072
C194  C     C_R   0.489297 0.077680 0.444347 0.269165
C195  C     C_R   0.510648 0.077692 0.555626 0.269073
C196  C     C_R   0.989346 0.577696 0.444372 0.269074
Cr1   Cr    Cr6+3 0.756570 0.170940 0.251190 1.039230
Cr2   Cr    Cr6+3 0.374010 0.036240 0.749520 1.116324
Cr3   Cr    Cr6+3 0.125990 0.536240 0.250480 1.116328
Cr4   Cr    Cr6+3 0.874010 0.536240 0.749520 1.110978
Cr5   Cr    Cr6+3 0.243430 0.170940 0.748810 1.067375
Cr6   Cr    Cr6+3 0.256570 0.670940 0.251190 1.067360
Cr7   Cr    Cr6+3 0.743430 0.670940 0.748810 1.039275
Cr8   Cr    Cr6+3 0.623740 0.299110 0.249580 1.134432
Cr9   Cr    Cr6+3 0.376260 0.299110 0.750420 1.112381
Cr10  Cr    Cr6+3 0.123740 0.799110 0.249580 1.112389
Cr11  Cr    Cr6+3 0.876260 0.799110 0.750420 1.134388
Cr12  Cr    Cr6+3 0.625990 0.036240 0.250480 1.110963
H1    H     H_    0.663949 0.851979 0.033805 0.134869
H2    H     H_    0.231689 0.064752 0.458670 0.130086
H3    H     H_    0.268309 0.564750 0.541332 0.130086
H4    H     H_    0.731490 0.564825 0.458649 0.130082
H5    H     H_    0.523535 0.908810 0.957225 0.172507
H6    H     H_    0.522611 0.907308 0.045313 0.160391
H7    H     H_    0.977512 0.407282 0.954671 0.160451
H8    H     H_    0.976581 0.408766 0.042755 0.172549
H9    H     H_    0.730990 0.741556 0.522086 0.163242
H10   H     H_    0.268792 0.741342 0.477931 0.163313
H11   H     H_    0.231211 0.241340 0.522067 0.163312
H12   H     H_    0.306115 0.781725 0.954966 0.136522
H13   H     H_    0.769015 0.241560 0.477912 0.163243
H14   H     H_    0.741045 0.714298 0.610367 0.137747
H15   H     H_    0.258720 0.714135 0.389644 0.136273
H16   H     H_    0.241283 0.214133 0.610354 0.136271
H17   H     H_    0.758958 0.214300 0.389631 0.137749
H18   H     H_    0.830298 0.017874 0.379177 0.151608
H19   H     H_    0.169739 0.018076 0.620793 0.152711
H20   H     H_    0.330259 0.518081 0.379208 0.152709
H21   H     H_    0.669701 0.517868 0.620824 0.151608
H22   H     H_    0.459166 0.325223 0.879735 0.204608
H23   H     H_    0.193894 0.281720 0.045033 0.136522
H24   H     H_    0.519812 0.327695 0.125589 0.204529
H25   H     H_    0.980143 0.827703 0.874420 0.204554
H26   H     H_    0.040792 0.825229 0.120273 0.204615
H27   H     H_    0.834238 0.998377 0.128763 0.136165
H28   H     H_    0.207829 0.096461 0.890295 0.131752
H29   H     H_    0.292155 0.596480 0.109703 0.131743
H30   H     H_    0.665724 0.498049 0.871189 0.136265
H31   H     H_    0.732433 0.715442 0.886260 0.127504
H32   H     H_    0.166542 0.754086 0.104793 0.094271
H33   H     H_    0.333452 0.254079 0.895209 0.094262
H34   H     H_    0.836153 0.352374 0.966231 0.135177
H35   H     H_    0.768016 0.215742 0.113798 0.127654
H36   H     H_    0.783693 0.050802 0.962834 0.152634
H37   H     H_    0.321252 0.998780 0.046920 0.126628
H38   H     H_    0.178749 0.498801 0.953076 0.126649
H39   H     H_    0.715893 0.550605 0.037124 0.152383
H40   H     H_    0.541609 0.986909 0.835601 0.122373
H41   H     H_    0.475285 0.983487 0.175152 0.162937
H42   H     H_    0.024740 0.483537 0.824823 0.162959
H43   H     H_    0.958414 0.486845 0.164371 0.122349
H44   H     H_    0.805506 0.106687 0.885175 0.349098
H45   H     H_    0.492824 0.002813 0.625128 0.133123
H46   H     H_    0.341537 0.028339 0.129055 0.341814
H47   H     H_    0.158479 0.528380 0.870940 0.341843
H48   H     H_    0.693944 0.606438 0.114752 0.349002
H49   H     H_    0.599699 0.853994 0.108661 0.100888
H50   H     H_    0.346083 0.737051 0.872996 0.145378
H51   H     H_    0.153934 0.237034 0.127005 0.145391
H52   H     H_    0.900420 0.354515 0.891386 0.100826
H53   H     H_    0.510979 0.432566 0.382962 0.156981
H54   H     H_    0.488899 0.432575 0.617002 0.156750
H55   H     H_    0.011112 0.932579 0.383003 0.156751
H56   H     H_    0.507162 0.002799 0.374852 0.134590
H57   H     H_    0.989032 0.932562 0.617043 0.156980
H58   H     H_    0.539712 0.936141 0.558922 0.332672
H59   H     H_    0.460255 0.936119 0.441048 0.333281
H60   H     H_    0.039734 0.436110 0.558947 0.333280
H61   H     H_    0.960277 0.436151 0.441073 0.332673
H62   H     H_    0.436543 0.329549 0.488494 0.366249
H63   H     H_    0.563346 0.329590 0.511466 0.366165
H64   H     H_    0.936660 0.829600 0.488537 0.366166
H65   H     H_    0.063463 0.829539 0.511509 0.366248
H66   H     H_    0.612854 0.801355 0.377089 0.108104
H67   H     H_    0.992831 0.502793 0.625144 0.134590
H68   H     H_    0.386926 0.800801 0.623019 0.105511
H69   H     H_    0.113077 0.300799 0.376978 0.105511
H70   H     H_    0.887149 0.301359 0.622907 0.108108
H71   H     H_    0.790061 0.116848 0.620331 0.340826
H72   H     H_    0.210253 0.116876 0.379684 0.340977
H73   H     H_    0.289744 0.616876 0.620318 0.340979
H74   H     H_    0.709935 0.616849 0.379671 0.340825
H75   H     H_    0.613084 0.858861 0.452040 0.335549
H76   H     H_    0.386807 0.858182 0.548048 0.335440
H77   H     H_    0.113195 0.358176 0.451950 0.335441
H78   H     H_    0.007168 0.502818 0.374868 0.133123
H79   H     H_    0.886919 0.358870 0.547958 0.335549
H80   H     H_    0.877500 0.017467 0.452970 0.355785
H81   H     H_    0.122567 0.017723 0.546991 0.356096
H82   H     H_    0.377432 0.517727 0.453011 0.356094
H83   H     H_    0.622499 0.517463 0.547031 0.355786
H84   H     H_    0.489111 0.499553 0.969223 0.343086
H85   H     H_    0.450457 0.485573 0.041095 0.345506
H86   H     H_    0.049448 0.985622 0.958920 0.345492
H87   H     H_    0.010792 0.999554 0.030792 0.343146
H88   H     H_    0.713428 0.658408 0.962687 0.311060
H89   H     H_    0.768507 0.064822 0.541352 0.130081
H90   H     H_    0.148362 0.719618 0.023622 0.317784
H91   H     H_    0.351624 0.219606 0.976380 0.317773
H92   H     H_    0.787268 0.158800 0.037398 0.311093
H93   H     H_    0.898105 0.000607 0.056236 0.119137
H94   H     H_    0.175718 0.150603 0.970059 0.100022
H95   H     H_    0.324254 0.650632 0.029937 0.100015
H96   H     H_    0.601795 0.499989 0.943695 0.119307
O1    O     O_R   0.769900 0.064540 0.196060 -0.527315
O2    O     O_R   0.433710 0.069580 0.694600 -0.524718
O3    O     O_3   0.776288 0.218197 0.016081 -0.720879
O4    O     O_2   0.879822 0.910627 0.998493 -0.487721
O5    O     O_2   0.177389 0.058268 0.028616 -0.486682
O6    O     O_2   0.322598 0.558289 0.971383 -0.486673
O7    O     O_2   0.620151 0.409986 0.001414 -0.488022
O8    O     O_R   0.066290 0.569580 0.305400 -0.524720
O9    O     O_R   0.933710 0.569580 0.694600 -0.523169
O10   O     O_R   0.680760 0.993330 0.302620 -0.455584
O11   O     O_R   0.319240 0.993330 0.697380 -0.456011
O12   O     O_R   0.180760 0.493330 0.302620 -0.456013
O13   O     O_R   0.819240 0.493330 0.697380 -0.455589
O14   O     O_3   0.668770 0.168760 0.250420 -0.289479
O15   O     O_3   0.331230 0.168760 0.749580 -0.298010
O16   O     O_3   0.168770 0.668760 0.250420 -0.298011
O17   O     O_R   0.230100 0.064540 0.803940 -0.512764
O18   O     O_3   0.831230 0.668760 0.749580 -0.289495
O19   O     O_R   0.750800 0.274080 0.199250 -0.524680
O20   O     O_R   0.249200 0.274080 0.800750 -0.496735
O21   O     O_R   0.250800 0.774080 0.199250 -0.496742
O22   O     O_R   0.749200 0.774080 0.800750 -0.524620
O23   O     O_R   0.669990 0.371670 0.194150 -0.440290
O24   O     O_R   0.330010 0.371670 0.805850 -0.488200
O25   O     O_R   0.169990 0.871670 0.194150 -0.488198
O26   O     O_R   0.830010 0.871670 0.805850 -0.440452
O27   O     O_R   0.574600 0.238480 0.197800 -0.486554
O28   O     O_R   0.269900 0.564540 0.196060 -0.512766
O29   O     O_R   0.425400 0.238480 0.802200 -0.500029
O30   O     O_R   0.074600 0.738480 0.197800 -0.500024
O31   O     O_R   0.925400 0.738480 0.802200 -0.486576
O32   O     O_R   0.566130 0.068680 0.194240 -0.527473
O33   O     O_R   0.433870 0.068680 0.805760 -0.491001
O34   O     O_R   0.066130 0.568680 0.194240 -0.490994
O35   O     O_R   0.933870 0.568680 0.805760 -0.527457
O36   O     O_R   0.680610 0.992490 0.199570 -0.443151
O37   O     O_R   0.319390 0.992490 0.800430 -0.448470
O38   O     O_R   0.180610 0.492490 0.199570 -0.448462
O39   O     O_R   0.730100 0.564540 0.803940 -0.527274
O40   O     O_R   0.819390 0.492490 0.800430 -0.443162
O41   O     O_R   0.770060 0.065440 0.307230 -0.525842
O42   O     O_R   0.229940 0.065440 0.692770 -0.524551
O43   O     O_R   0.270060 0.565440 0.307230 -0.524552
O44   O     O_R   0.729940 0.565440 0.692770 -0.525844
O45   O     O_R   0.750960 0.274920 0.302300 -0.522067
O46   O     O_R   0.249040 0.274920 0.697700 -0.518241
O47   O     O_R   0.250960 0.774920 0.302300 -0.518244
O48   O     O_R   0.749040 0.774920 0.697700 -0.522058
O49   O     O_R   0.670160 0.372580 0.305320 -0.456342
O50   O     O_R   0.574760 0.239320 0.300850 -0.461244
O51   O     O_R   0.329840 0.372580 0.694680 -0.457635
O52   O     O_R   0.170160 0.872580 0.305320 -0.457635
O53   O     O_R   0.829840 0.872580 0.694680 -0.456338
O54   O     O_2   0.487010 0.896955 0.874254 -0.503599
O55   O     O_2   0.456681 0.904886 0.114443 -0.512109
O56   O     O_2   0.043405 0.404949 0.885522 -0.512061
O57   O     O_2   0.013065 0.396942 0.125739 -0.503614
O58   O     O_3   0.797321 0.045381 0.864211 -0.630088
O59   O     O_3   0.312109 0.984243 0.146353 -0.656646
O60   O     O_3   0.187901 0.484267 0.853643 -0.656608
O61   O     O_R   0.425240 0.239320 0.699150 -0.459227
O62   O     O_3   0.702272 0.545218 0.135736 -0.629936
O63   O     O_2   0.643536 0.812493 0.169942 -0.420859
O64   O     O_2   0.304037 0.787346 0.812486 -0.425330
O65   O     O_2   0.195977 0.287344 0.187513 -0.425337
O66   O     O_2   0.856636 0.312666 0.830135 -0.420874
O67   O     O_2   0.484237 0.362384 0.321066 -0.478968
O68   O     O_2   0.515719 0.362440 0.678888 -0.485588
O69   O     O_2   0.984287 0.862452 0.321116 -0.485580
O70   O     O_2   0.015769 0.862373 0.678938 -0.478965
O71   O     O_3   0.537100 0.992635 0.534191 -0.634007
O72   O     O_R   0.074760 0.739320 0.300850 -0.459226
O73   O     O_3   0.462848 0.992618 0.465777 -0.633555
O74   O     O_3   0.037142 0.492610 0.534219 -0.633557
O75   O     O_3   0.962891 0.492643 0.465804 -0.634006
O76   O     O_3   0.464468 0.350384 0.461909 -0.671127
O77   O     O_3   0.535413 0.350413 0.538049 -0.671541
O78   O     O_3   0.964593 0.850420 0.461955 -0.671537
O79   O     O_3   0.035538 0.850377 0.538095 -0.671131
O80   O     O_2   0.668934 0.793420 0.321034 -0.429360
O81   O     O_2   0.330838 0.793285 0.679082 -0.421559
O82   O     O_2   0.169166 0.293284 0.320916 -0.421557
O83   O     O_R   0.925240 0.739320 0.699150 -0.461239
O84   O     O_2   0.831071 0.293421 0.678964 -0.429399
O85   O     O_3   0.786572 0.052560 0.639982 -0.639853
O86   O     O_3   0.213651 0.052573 0.360033 -0.636684
O87   O     O_3   0.286346 0.552572 0.639969 -0.636682
O88   O     O_3   0.713425 0.552561 0.360019 -0.639860
O89   O     O_3   0.650226 0.840293 0.470049 -0.696104
O90   O     O_3   0.349649 0.839764 0.530026 -0.695805
O91   O     O_3   0.150354 0.339759 0.469972 -0.695808
O92   O     O_3   0.849777 0.340301 0.529949 -0.696101
O93   O     O_3   0.847043 0.988225 0.475504 -0.689632
O94   O     O_R   0.566290 0.069580 0.305400 -0.523179
O95   O     O_3   0.153008 0.988375 0.524473 -0.689581
O96   O     O_3   0.346992 0.488377 0.475528 -0.689583
O97   O     O_3   0.652957 0.488223 0.524497 -0.689629
O98   O     O_3   0.470609 0.441847 0.950661 -0.691055
O99   O     O_3   0.479844 0.439926 0.057741 -0.684013
O100  O     O_3   0.020073 0.939954 0.942273 -0.683837
O101  O     O_3   0.029306 0.941860 0.049354 -0.691029
O102  O     O_3   0.724203 0.717947 0.983985 -0.720747
O103  O     O_3   0.176197 0.766571 0.006244 -0.686359
O104  O     O_3   0.323792 0.266569 0.993756 -0.686366

loop_
_geom_bond_atom_site_label_1
_geom_bond_atom_site_label_2
_ccdc_geom_bond_type
C172  C177  A    
C21   C26   A    
C115  C141  A    
C34   C56   A    
C46   C112  A    
C6    C196  A    
C41   O47   A    
H81   O95   S    
C4    C194  A    
C120  O25   A    
H82   O96   S    
H75   O89   S    
Cr11  O18   S    
C111  O99   S    
C85   H7    S    
Cr4   O18   S    
C14   C102  S    
C122  H29   S    
C186  H24   S    
C107  O6    D    
C184  C193  A    
H79   O92   S    
C29   C33   A    
C37   H3    S    
C79   C90   A    
C137  O27   A    
C83   H5    S    
C134  C143  A    
C146  C150  A    
C16   C104  S    
C73   O44   A    
C40   O46   A    
C149  C167  A    
Cr1   O14   S    
C25   C60   S    
Cr3   O16   S    
C179  C183  A    
C81   C86   A    
C123  H30   S    
C24   C164  A    
C71   O42   A    
C80   C83   A    
C190  C194  A    
C25   C29   A    
H77   O91   S    
Cr9   O24   S    
C89   H42   S    
H71   O85   S    
C27   C31   A    
C28   C32   A    
H76   O90   S    
Cr5   O20   S    
C47   C64   A    
C6    C174  A    
C108  O7    D    
C71   O11   A    
C101  C110  A    
C1    C171  S    
C17   C21   A    
C19   C23   A    
C152  C170  A    
C181  C190  A    
Cr10  O25   S    
C11   C33   A    
C16   C20   A    
C77   C89   S    
C137  C153  S    
C105  H93   S    
H46   O59   S    
C1    O23   A    
C107  H95   S    
Cr1   O41   S    
C108  H96   S    
C119  H27   S    
C139  O30   A    
C65   O50   A    
C22   C27   A    
C139  O34   A    
C29   O97   S    
C39   O49   A    
C37   C45   A    
Cr3   O38   S    
C159  H36   S    
C131  O22   A    
C43   C61   A    
C13   C175  A    
C154  H35   S    
C39   O45   A    
C49   C62   A    
C155  O58   S    
Cr1   O1    S    
C76   C175  A    
C73   O13   A    
C51   C64   A    
C22   C58   S    
C53   C58   A    
C106  O5    D    
C129  C165  S    
C82   C85   A    
C3    O74   S    
C94   C144  S    
C99   C180  S    
Cr9   O61   S    
C66   O2    A    
C97   C178  S    
C48   H14   S    
C77   C82   A    
C49   C53   A    
Cr2   O15   S    
C51   C55   A    
C86   H8    S    
Cr4   O9    S    
C185  O36   A    
Cr9   O15   S    
C125  C129  A    
C149  O3    S    
Cr10  O16   S    
C150  H31   S    
C20   C25   A    
Cr12  O10   S    
C15   C103  S    
H64   O78   S    
C180  C184  A    
C181  O76   S    
Cr10  O30   S    
C190  C191  S    
C133  H1    S    
C30   H18   S    
C111  C112  A    
C92   H49   S    
C81   C101  A    
C85   C86   A    
C97   O68   D    
C23   C59   S    
C151  H32   S    
C106  C125  S    
C52   H9    S    
C3    C193  A    
Cr9   O51   S    
C118  C189  S    
Cr11  O31   S    
C120  C169  S    
C13   C57   A    
C67   C174  S    
C5    H45   S    
C162  H39   S    
Cr11  O53   S    
C109  O24   A    
C147  C165  A    
Cr2   O37   S    
C4    H56   S    
Cr12  O36   S    
C20   O92   S    
C77   C164  A    
C120  O21   A    
C114  O100  S    
C185  O1    A    
C50   C63   A    
H59   O73   S    
Cr6   O28   S    
C158  O62   S    
C33   H21   S    
C112  O98   S    
Cr5   O42   S    
Cr12  O94   S    
C54   C59   A    
C66   O61   A    
C95   H52   S    
C116  C187  S    
C12   C100  S    
C65   C172  S    
C155  C159  A    
C140  O31   A    
C69   O9    A    
C156  C160  A    
C117  C144  A    
C104  O84   D    
C57   C113  A    
C129  C134  A    
C100  H66   S    
C147  C151  A    
C117  C122  A    
C121  C125  A    
Cr5   O17   S    
C123  C127  A    
C83   C84   A    
C48   C52   A    
C8    C12   A    
C121  H28   S    
C7    C176  A    
C40   O51   A    
C38   C47   A    
H88   O102  S    
C23   C28   A    
H85   O99   S    
C92   C141  S    
H86   O100  S    
H47   O60   S    
C37   C59   A    
C38   C60   A    
H92   O3    S    
H84   O98   S    
Cr12  O32   S    
C26   C30   A    
C115  C119  A    
C2    C142  A    
C196  O75   S    
Cr7   O22   S    
C75   C87   S    
C43   O85   S    
C4    C172  A    
C18   C22   A    
C5    C173  A    
C118  C145  A    
C34   C43   A    
C148  C152  A    
C140  O35   A    
C117  C188  S    
C27   O95   S    
C187  O37   A    
C96   O67   D    
C28   O96   S    
C140  C164  S    
C57   C101  A    
C67   O72   A    
C8    C70   S    
C151  C169  A    
C38   H4    S    
C106  H94   S    
C152  H33   S    
C173  C178  A    
C35   C186  A    
C134  H12   S    
Cr7   O39   S    
C154  C171  A    
Cr10  O52   S    
C191  C195  A    
Cr8   O14   S    
C2    H22   S    
C76   C91   S    
C113  O101  S    
C176  C180  A    
H63   O77   S    
Cr2   O2    S    
C88   H41   S    
C10   C72   S    
C87   O54   D    
C148  C166  A    
C138  O33   A    
C130  C135  A    
C95   C145  S    
C132  C167  S    
C160  H37   S    
C183  C192  A    
C54   H11   S    
C91   H43   S    
C187  O17   A    
C15   C19   A    
C39   C64   S    
C50   C54   A    
C40   C63   S    
Cr2   O11   S    
C192  C196  A    
C3    C7    A    
C89   O56   D    
C115  C185  S    
Cr4   O35   S    
C67   O8    A    
C126  C130  A    
C88   O55   D    
C98   O69   D    
H83   O97   S    
C188  O38   A    
C195  O71   S    
C32   H20   S    
C12   C17   A    
C92   O63   D    
C96   C177  S    
C69   O83   A    
C124  C128  A    
Cr11  O83   S    
C135  H23   S    
C55   C60   A    
C49   H15   S    
C99   O70   D    
C65   O94   A    
C41   C62   S    
C103  O82   D    
Cr8   O27   S    
H62   O76   S    
C93   O64   D    
C109  O20   A    
C19   O91   S    
C138  C142  S    
Cr2   O33   S    
C72   O12   A    
C17   O89   S    
C156  O59   S    
Cr8   O50   S    
C105  C124  S    
C149  C154  A    
C47   O88   S    
C11   C16   A    
C130  C166  S    
C155  C168  A    
Cr11  O26   S    
C160  C165  A    
C97   H54   S    
Cr4   O40   S    
C138  O29   A    
Cr7   O48   S    
C11   C73   S    
C153  C186  A    
C182  C191  A    
C70   O10   A    
C157  C161  A    
C113  C114  A    
H72   O86   S    
Cr8   O49   S    
C146  O102  S    
Cr3   O8    S    
H65   O79   S    
C9    C71   S    
Cr8   O23   S    
Cr6   O43   S    
C21   C56   S    
C46   C90   A    
C189  O40   A    
C189  O39   A    
H87   O101  S    
C36   C58   A    
C133  C141  A    
C136  H34   S    
C8    C30   A    
C194  O73   S    
H61   O75   S    
C94   O65   D    
C118  C123  A    
C44   O86   S    
H73   O87   S    
C45   O87   S    
H74   O88   S    
C24   C68   A    
C105  O4    D    
C93   H50   S    
Cr7   O18   S    
C74   C78   A    
C72   O43   A    
C74   C88   S    
C98   C179  S    
H91   O104  S    
C147  O103  S    
C96   H53   S    
Cr9   O29   S    
C14   C18   A    
C139  C175  S    
Cr6   O21   S    
Cr3   O12   S    
C9    C14   A    
C41   O52   A    
C87   H40   S    
C119  C124  A    
C2    C46   A    
Cr5   O15   S    
Cr6   O16   S    
C82   C110  A    
C6    H78   S    
C7    H67   S    
C10   C15   A    
C157  C170  A    
C177  C181  A    
C158  C171  A    
C70   O41   A    
C42   O53   A    
C156  C169  A    
C35   C79   A    
C127  C132  A    
H58   O71   S    
C100  O80   D    
C98   H55   S    
C148  O104  S    
C51   H17   S    
C102  O81   D    
C66   C173  S    
C24   H25   S    
C69   C176  S    
C75   C80   A    
C161  C166  A    
C93   C143  S    
C55   H13   S    
C150  C168  A    
C1    O19   A    
C84   H6    S    
Cr1   O45   S    
C184  O79   S    
C104  H70   S    
C131  O26   A    
C9    C31   A    
C78   C79   A    
C68   C110  A    
C44   C62   A    
C45   C63   A    
C128  C163  S    
C74   C153  A    
C31   H19   S    
C122  C126  A    
C157  O60   S    
C50   H16   S    
C75   C142  A    
C10   C32   A    
C116  C143  A    
C91   O57   D    
C94   H51   S    
Cr3   O34   S    
C178  C182  A    
H90   O103  S    
C42   C61   S    
H80   O93   S    
C42   O48   A    
Cr5   O46   S    
C135  C144  A    
C131  C168  S    
C182  O77   S    
C159  C163  A    
C103  H69   S    
C95   O66   D    
Cr4   O13   S    
Cr1   O19   S    
C35   C111  A    
C109  C170  S    
C53   H10   S    
C18   O90   S    
C132  C136  A    
C99   H57   S    
Cr12  O14   S    
C188  O28   A    
C136  C145  A    
C107  C126  S    
C137  O32   A    
C76   C81   A    
Cr10  O72   S    
C26   O93   S    
C146  C163  A    
C183  O78   S    
C5    C195  A    
H44   O58   S    
C192  C193  S    
C161  H38   S    
C128  C133  A    
C48   C61   A    
C34   H89   S    
Cr7   O44   S    
C174  C179  A    
C108  C127  S    
C80   C90   A    
C36   C44   A    
C158  C162  A    
C162  C167  A    
C78   C84   A    
H60   O74   S    
C68   C114  A    
C116  C121  A    
C102  H68   S    
H48   O62   S    
Cr6   O47   S    
C52   C56   A    
C36   H2    S    
C13   H26   S    
