data_mof_unit_43912.cif
_audit_creation_date              2013-03-05T15:57:01-0500
_audit_creation_method            fapswitch 2.2
_symmetry_space_group_name_H-M    P1
_symmetry_Int_Tables_number       1
_space_group_crystal_system       triclinic
_cell_length_a                    8.299581
_cell_length_b                    16.483606
_cell_length_c                    18.754839
_cell_angle_alpha                 99.84818
_cell_angle_beta                  91.345496
_cell_angle_gamma                 93.711968
_cell_volume                      2521.12338218

loop_
_atom_site_label
_atom_site_type_symbol
_atom_site_description
_atom_site_fract_x
_atom_site_fract_y
_atom_site_fract_z
_atom_type_partial_charge
P1    P     P_3+3 0.056550 0.421630 0.336220 0.483559
O1    O     O_2   0.884010 0.444810 0.325060 -0.331699
O2    O     O_3   0.132090 0.451130 0.414310 -0.407092
O3    O     O_3   0.640770 0.594650 0.368950 -0.370724
O4    O     O_2   0.758851 0.529665 0.242343 -0.393682
O5    O     O_3   0.028916 0.313678 0.319986 -0.546132
O6    O     O_3   0.670329 0.678832 0.243428 -0.606501
H1    H     H_    0.700258 0.742671 0.348913 0.078076
C1    C     C_3   0.724303 0.826818 0.273134 -0.755861
H2    H     H_    0.856526 0.824151 0.273013 0.199853
P2    P     P_3+3 0.635450 0.689180 0.556380 0.504546
P3    P     P_3+3 0.083549 0.745038 0.407818 0.501996
O7    O     O_2   0.808690 0.699720 0.534830 -0.356850
O8    O     O_3   0.053760 0.638480 0.405010 -0.409030
O9    O     O_2   0.933101 0.785819 0.440736 -0.381850
O10   O     O_3   0.629633 0.717043 0.650710 -0.577311
O11   O     O_3   0.085026 0.762859 0.318145 -0.495995
C2    C     C_3   0.056704 0.687399 0.269963 0.512683
H3    H     H_    0.935458 0.660856 0.276861 0.131103
H4    H     H_    0.140195 0.640606 0.279499 0.102929
C3    C     C_3   0.074715 0.700850 0.192168 -0.895475
H5    H     H_    0.036974 0.642879 0.154424 0.215177
H6    H     H_    0.998337 0.749904 0.180280 0.277226
C4    C     C_3   0.204365 0.720187 0.626513 0.381974
H7    H     H_    0.311458 0.690323 0.603585 0.108103
H8    H     H_    0.105129 0.712946 0.584735 0.107739
C5    C     C_3   0.248946 0.811716 0.652547 -0.883071
H9    H     H_    0.362881 0.820028 0.686011 0.287996
H10   H     H_    0.264871 0.844226 0.606083 0.203383
H11   H     H_    0.151810 0.840238 0.685718 0.262247
Ba1   Ba    Ba6+2 0.845660 0.536000 0.465120 1.601836
C6    C     C_3   0.987045 0.285082 0.383653 0.435026
H12   H     H_    0.883861 0.317283 0.408149 0.099984
H13   H     H_    0.090842 0.295302 0.423136 0.115735
C7    C     C_3   0.940303 0.192612 0.365193 -0.907345
H14   H     H_    0.833644 0.180543 0.327275 0.310833
H15   H     H_    0.911669 0.167441 0.414706 0.209707
H16   H     H_    0.040619 0.158720 0.339429 0.248987
C8    C     C_3   0.749784 0.685587 0.689671 0.224877
H17   H     H_    0.853096 0.666285 0.656416 0.106093
H18   H     H_    0.694964 0.630975 0.709926 0.114723
C9    C     C_3   0.808778 0.753583 0.754008 -0.576525
H19   H     H_    0.893635 0.797840 0.732477 0.162836
P4    P     P_3+3 0.133150 0.578440 0.663790 0.468915
O12   O     O_2   0.305690 0.555220 0.674980 -0.341857
O13   O     O_3   0.057610 0.548940 0.585700 -0.413228
O14   O     O_3   0.548930 0.405410 0.631060 -0.369390
O15   O     O_3   0.154158 0.686064 0.685957 -0.548187
P5    P     P_3+3 0.113033 0.255773 0.597908 0.466642
O16   O     O_3   0.631040 0.400420 0.463490 -0.383893
O17   O     O_3   0.135930 0.361590 0.595000 -0.384842
O18   O     O_2   0.242126 0.213338 0.549275 -0.387487
O19   O     O_3   0.165270 0.240091 0.685170 -0.501454
Ba2   Ba    Ba6+2 0.344160 0.464070 0.534880 1.577891
P6    P     P_3+3 0.624842 0.584417 0.274014 0.485679
C10   C     C_3   0.643814 0.748443 0.295957 0.673890
H20   H     H_    0.700048 0.881565 0.314006 0.198459
O20   O     O_3   0.558660 0.599640 0.536520 -0.367713
C11   C     C_3   0.489188 0.299104 0.309548 0.856884
H21   H     H_    0.443706 0.357144 0.339232 -0.014306
C12   C     C_3   0.346961 0.244198 0.271998 -0.895799
H22   H     H_    0.271193 0.222563 0.313492 0.236434
H23   H     H_    0.274735 0.278789 0.238314 0.236455
H24   H     H_    0.390041 0.189214 0.236732 0.266616
P7    P     P_3+3 0.562958 0.296348 0.446207 0.435286
O21   O     O_2   0.381010 0.300300 0.465220 -0.377811
O22   O     O_3   0.571014 0.253842 0.354293 -0.611900
H25   H     H_    0.202802 0.718823 0.182944 0.278352
C13   C     C_3   0.108048 0.303903 0.735749 0.298636
H26   H     H_    0.170439 0.364039 0.730131 0.116812
H27   H     H_    0.975629 0.307383 0.728348 0.001705
C14   C     C_3   0.144976 0.288843 0.812477 -0.094297
H28   H     H_    0.274570 0.278312 0.819518 0.182934
H29   H     H_    0.120270 0.344580 0.851713 0.074481
P8    P     P_3+3 0.567831 0.410913 0.724321 0.445741
C15   C     C_3   0.576133 0.252844 0.693981 0.333322
H30   H     H_    0.709815 0.262529 0.693953 0.014564
O23   O     O_2   0.436565 0.466422 0.757574 -0.402074
O24   O     O_3   0.510697 0.313585 0.744783 -0.536164
H31   H     H_    0.524453 0.254153 0.639093 0.148204
H32   H     H_    0.567131 0.119715 0.666506 0.183154
C16   C     C_3   0.530293 0.167118 0.711464 -0.697296
H33   H     H_    0.397441 0.158044 0.715318 0.245056
C17   C     C_R   0.007180 0.453982 0.045709 0.009947
C18   C     C_R   0.915274 0.412703 0.092543 0.084987
C19   C     C_R   0.765046 0.372621 0.067532 -0.107084
C20   C     C_R   0.703700 0.376054 0.998157 -0.142540
C21   C     C_R   0.793650 0.417437 0.951258 0.133873
C22   C     C_R   0.946800 0.455802 0.974576 0.028739
C23   C     C_R   0.733481 0.419454 0.881145 -0.182343
C24   C     C_R   0.826369 0.456655 0.831842 -0.011705
C25   C     C_R   0.980948 0.495449 0.854906 -0.022682
C26   C     C_R   0.039515 0.495558 0.926835 -0.035514
C27   C     C_R   0.770423 0.455335 0.759814 0.216143
C28   C     C_R   0.869663 0.489354 0.711541 -0.510359
C29   C     C_R   0.020276 0.530006 0.733275 0.235250
C30   C     C_R   0.076294 0.534885 0.806668 -0.056778
C31   C     C_R   0.160100 0.492162 0.069496 -0.009450
C32   C     C_R   0.218210 0.492825 0.141583 0.004598
C33   C     C_R   0.120851 0.455723 0.190569 -0.077886
C34   C     C_R   0.973658 0.412552 0.163615 -0.081376
H34   H     H_    0.694593 0.338192 0.101364 0.209844
H35   H     H_    0.586467 0.345275 0.980823 0.161095
H36   H     H_    0.826109 0.486826 0.656322 0.180105
H37   H     H_    0.614419 0.390631 0.865549 0.185825
H38   H     H_    0.901823 0.379552 0.197800 0.222344
C35   C     C_R   0.223996 0.577636 0.833733 -0.055818
C36   C     C_R   0.285323 0.574091 0.903551 0.079735
C37   C     C_R   0.192817 0.533322 0.950502 0.009343
C38   C     C_R   0.253796 0.530850 0.021376 0.027950
C39   C     C_R   0.439791 0.609795 0.926818 -0.138030
C40   C     C_R   0.501928 0.605400 0.995888 -0.166426
C41   C     C_R   0.409089 0.566896 0.043860 0.103596
C42   C     C_R   0.373254 0.531016 0.164429 -0.039447
C43   C     C_R   0.469010 0.564878 0.114016 -0.189496
C44   C     C_R   0.426576 0.535137 0.237299 0.363818
C45   C     C_R   0.325399 0.503504 0.286139 -0.416132
C46   C     C_R   0.174110 0.463696 0.264682 0.183352
H39   H     H_    0.294948 0.612962 0.800751 0.201830
H40   H     H_    0.513471 0.640316 0.891188 0.214663
H41   H     H_    0.622085 0.633093 0.012099 0.167233
H42   H     H_    0.590390 0.590842 0.128560 0.196601
H43   H     H_    0.366703 0.508763 0.341998 0.174278
C47   C     C_R   0.378889 0.734384 0.477809 -0.420740
C48   C     C_R   0.524444 0.762981 0.514703 0.213938
C49   C     C_R   0.566512 0.848926 0.531648 -0.262927
C50   C     C_R   0.470808 0.904412 0.501605 0.092677
C51   C     C_R   0.322702 0.873434 0.465495 -0.217360
C52   C     C_R   0.274017 0.788996 0.456295 0.342030
C53   C     C_R   0.610571 0.150830 0.497901 -0.259023
C54   C     C_R   0.662037 0.233915 0.502747 0.294750
C55   C     C_R   0.707477 0.097192 0.527754 0.140469
N1    N     N_2   0.515089 0.991084 0.508172 -0.055401
N2    N     N_2   0.662513 0.011088 0.520950 -0.052315
C56   C     C_R   0.806336 0.265355 0.539328 -0.528081
H44   H     H_    0.499778 0.127500 0.467525 0.174303
H45   H     H_    0.245551 0.915110 0.444604 0.166507
C57   C     C_R   0.908888 0.212653 0.565440 0.234118
C58   C     C_R   0.859164 0.128510 0.560385 -0.258950
H46   H     H_    0.938919 0.087353 0.580386 0.177151
H47   H     H_    0.343550 0.668940 0.468181 0.171633
H48   H     H_    0.845539 0.329659 0.541426 0.170111
C59   C     C_2   0.895685 0.719479 0.812384 0.987707
O25   O     O_2   0.037294 0.741765 0.828238 -0.596407
O26   O     O_R   0.811982 0.665812 0.850991 -0.816717
H49   H     H_    0.878621 0.653521 0.893341 0.324225
C60   C     C_2   0.670802 0.800413 0.787467 1.162299
O27   O     O_2   0.676156 0.875595 0.793523 -0.581146
O28   O     O_R   0.536471 0.757645 0.810665 -0.790752
H50   H     H_    0.451342 0.795609 0.831288 0.340340
N3    N     N_R   0.471085 0.756004 0.304641 0.201438
O29   O     O_R   0.401547 0.822421 0.296009 -0.389758
O30   O     O_R   0.388021 0.697528 0.327970 -0.501933
N4    N     N_R   0.597949 0.319428 0.254385 0.217234
O31   O     O_R   0.560731 0.375504 0.217195 -0.492972
O32   O     O_R   0.704415 0.268151 0.229517 -0.395143
C61   C     C_2   0.666819 0.839385 0.199263 1.224109
O33   O     O_2   0.691697 0.788804 0.145606 -0.641666
O34   O     O_R   0.586989 0.909871 0.192334 -0.747411
H51   H     H_    0.554311 0.911690 0.140233 0.330568
N5    N     N_R   0.046776 0.217914 0.828191 0.268620
O35   O     O_R   0.069725 0.144062 0.794334 -0.328350
O36   O     O_R   0.947537 0.227251 0.881176 -0.375891
C62   C     C_2   0.609408 0.153749 0.780856 1.219472
O37   O     O_2   0.581915 0.197727 0.838066 -0.604403
O38   O     O_R   0.710359 0.088969 0.779853 -0.702669
H52   H     H_    0.751973 0.083850 0.830034 0.373018
C63   C     C_2   0.691125 0.881169 0.589358 1.093264
O39   O     O_2   0.651609 0.924066 0.645140 -0.595600
O40   O     O_R   0.852977 0.865360 0.579316 -0.762765
H53   H     H_    0.925499 0.892463 0.622141 0.313822

loop_
_geom_bond_atom_site_label_1
_geom_bond_atom_site_label_2
_geom_bond_distance
_ccdc_geom_bond_type
C56   C57   1.393074 A    
O5    C6    1.399839 S    
C20   C21   1.402300 A    
C49   C50   1.426265 A    
C31   C38   1.411210 A    
C5    H10   1.104520 S    
C2    C3    1.522128 S    
C60   O27   1.222769 D    
C4    C5    1.522763 S    
O6    P6    1.770060 S    
O8    Ba1   2.733606 S    
P7    O21   1.562644 D    
O19   C13   1.405796 S    
C51   C52   1.404287 A    
H1    C10   1.109578 S    
C32   C42   1.418688 A    
C42   C43   1.412620 A    
O28   H50   1.013745 S    
C8    H18   1.110748 S    
C18   C19   1.403923 A    
C28   H36   1.081959 S    
C55   C58   1.413345 A    
O16   Ba2   2.924922 S    
Ba1   O20   2.925790 S    
C62   O37   1.222972 D    
C60   O28   1.398282 S    
C4    H8    1.109735 S    
C2    H3    1.090535 S    
C49   C63   1.484271 S    
O26   H49   1.013264 S    
O2    Ba2   2.802901 S    
P2    C48   1.837455 S    
P6    C44   1.850439 S    
C59   O25   1.222703 D    
P1    Ba1   3.395420 S    
C36   C37   1.408478 A    
C2    H4    1.103479 S    
C13   H27   1.110916 S    
P1    O1    1.524658 D    
C12   H23   1.110509 S    
O7    Ba1   2.829404 S    
C25   C26   1.422808 A    
P7    C54   1.817040 S    
C56   H48   1.082309 S    
C28   C29   1.397107 A    
P7    O22   1.750806 S    
Ba1   O13   2.802445 S    
P3    O11   1.756234 S    
C47   C52   1.392835 A    
C35   C36   1.405635 A    
C15   O24   1.404836 S    
C4    H7    1.104281 S    
P2    O20   1.549942 S    
C1    H2    1.101157 S    
N4    O32   1.301520 A    
C12   H22   1.103235 S    
C11   O22   1.405386 S    
C63   O40   1.395795 S    
C17   C22   1.419878 A    
P2    Ba1   3.403085 S    
C11   H21   1.114510 S    
C61   O34   1.397524 S    
C43   H42   1.078785 S    
C3    H5    1.109839 S    
C5    H11   1.109313 S    
C61   O33   1.222909 D    
O38   H52   1.013819 S    
C27   C28   1.400498 A    
O6    C10   1.411314 S    
C9    C60   1.511123 S    
C35   H39   1.079064 S    
C40   C41   1.403776 A    
N5    O36   1.300808 A    
C11   N4    1.456237 S    
P4    O13   1.564691 S    
C25   C30   1.426696 A    
H32   C16   1.110243 S    
C8    C9    1.546126 S    
C11   C12   1.520880 S    
P3    C52   1.846462 S    
P1    O5    1.752215 S    
C4    O15   1.392454 S    
C6    C7    1.526516 S    
C15   H31   1.110044 S    
C7    H16   1.107040 S    
C15   H30   1.110679 S    
C14   H29   1.108083 S    
C15   C16   1.530940 S    
C24   C25   1.419520 A    
C19   C20   1.397564 A    
P5    O17   1.752594 S    
P8    O23   1.542344 D    
C39   H40   1.080718 S    
P1    O2    1.564690 S    
C7    H14   1.108232 S    
C6    H13   1.107905 S    
C12   H24   1.111187 S    
C53   C55   1.407953 A    
C51   H45   1.082907 S    
P4    C29   1.878734 S    
P2    O10   1.752739 S    
O34   H51   1.013857 S    
P3    O9    1.547617 D    
C1    C61   1.506612 S    
N3    O29   1.302276 A    
P5    O18   1.547193 D    
C29   C30   1.429878 A    
O13   Ba2   2.933040 S    
O11   C2    1.409503 S    
C1    C10   1.545755 S    
C17   C18   1.408918 A    
C10   N3    1.457519 S    
O2    Ba1   2.932143 S    
C38   C41   1.407702 A    
N4    O31   1.297581 A    
O14   Ba2   2.782546 S    
C20   H35   1.083791 S    
C63   O39   1.222757 D    
C21   C23   1.402087 A    
O12   Ba2   2.830984 S    
C31   C32   1.422757 A    
C3    H6    1.107601 S    
O3    P6    1.760528 S    
N1    N2    1.253080 D    
C47   H47   1.082696 S    
C33   C46   1.430323 A    
C9    H19   1.113048 S    
Ba1   O16   2.761697 S    
C50   C51   1.411280 A    
C19   H34   1.078980 S    
C8    H17   1.103627 S    
C13   C14   1.528950 S    
C18   C34   1.408008 A    
P4    O12   1.524968 D    
Ba2   O20   2.760954 S    
C34   H38   1.075952 S    
C59   O26   1.397362 S    
C39   C40   1.398146 A    
C7    H15   1.104699 S    
O4    P6    1.543368 D    
C53   H44   1.082894 S    
C50   N1    1.435635 S    
C23   H37   1.079750 S    
P3    O8    1.749444 S    
C14   H28   1.108959 S    
C42   C44   1.415697 A    
C58   H46   1.082890 S    
C36   C39   1.403050 A    
Ba2   O21   2.829667 S    
C54   C56   1.390319 A    
C32   C33   1.426204 A    
O17   Ba2   2.734354 S    
C17   C31   1.407066 A    
C6    H12   1.104589 S    
C62   O38   1.397238 S    
C53   C54   1.395060 A    
C45   H43   1.082028 S    
O14   P8    1.738738 S    
C40   H41   1.083817 S    
C3    H25   1.110492 S    
N5    O35   1.301046 A    
C45   C46   1.395849 A    
C24   C27   1.414253 A    
P2    O7    1.509910 D    
C23   C24   1.411247 A    
C48   C49   1.416549 A    
C16   C62   1.500059 S    
P5    O19   1.749035 S    
C33   C34   1.410581 A    
C44   C45   1.399591 A    
C14   N5    1.457334 S    
C1    H20   1.112037 S    
P1    C46   1.877508 S    
N3    O30   1.291571 A    
Ba1   Ba2   4.598559 S    
C22   C26   1.411044 A    
C13   H26   1.110703 S    
O16   P7    1.744389 S    
O3    Ba1   2.782949 S    
C57   C58   1.407869 A    
O10   C8    1.399826 S    
C30   C35   1.411931 A    
P4    Ba2   3.396105 S    
C21   C22   1.407846 A    
C55   N2    1.427298 S    
C16   H33   1.108805 S    
O40   H53   1.013264 S    
C9    C59   1.503630 S    
O1    Ba1   2.830438 S    
P5    C57   1.842351 S    
C41   C43   1.402155 A    
C37   C38   1.419246 A    
P8    O24   1.751168 S    
P4    O15   1.747767 S    
P8    C27   1.851420 S    
C26   C37   1.407054 A    
C47   C48   1.391328 A    
C5    H9    1.110313 S    
