data_mof_unit_56563.cif
_audit_creation_date              2012-12-10T18:58:11-0500
_audit_creation_method            fapswitch 2.2
_symmetry_space_group_name_H-M    P1
_symmetry_Int_Tables_number       1
_space_group_crystal_system       triclinic
_cell_length_a                    11.03673
_cell_length_b                    10.816135
_cell_length_c                    9.560096
_cell_angle_alpha                 91.58613
_cell_angle_beta                  102.524775
_cell_angle_gamma                 91.624128
_cell_volume                      1112.95861466

loop_
_atom_site_label
_atom_site_type_symbol
_atom_type_description
_atom_site_fract_x
_atom_site_fract_y
_atom_site_fract_z
_atom_type_partial_charge
C1    C     C_R   0.495813 0.262874 0.496884 0.800942
C2    C     C_R   0.497938 0.130502 0.490841 -0.078782
C3    C     C_R   0.410874 0.059709 0.389590 -0.266677
C4    C     C_R   0.409732 0.930149 0.394533 -0.020573
C5    C     C_R   0.498831 0.871965 0.500002 -0.143967
C6    C     C_R   0.596651 0.945229 0.582912 0.036624
C7    C     C_3   0.655263 0.953249 0.741034 -0.201260
C8    C     C_3   0.646216 0.093313 0.735318 -0.475271
C9    C     C_R   0.587127 0.569064 0.097949 0.217275
C10   C     C_R   0.421243 0.423686 0.052255 -0.051914
C11   C     C_R   0.421045 0.423860 0.903419 -0.041569
C12   C     C_R   0.262956 0.504754 0.442717 0.850231
C13   C     C_R   0.586929 0.568570 0.950242 0.237835
C14   C     C_3   0.603404 0.704973 0.952319 -0.563044
C15   C     C_3   0.603876 0.706599 0.110888 -0.244451
C16   C     C_R   0.502008 0.737889 0.501838 0.800350
C17   C     C_R   0.737518 0.501978 0.558327 0.816110
C18   C     C_2   0.127698 0.512832 0.414497 -0.394149
C19   C     C_2   0.069608 0.555678 0.515364 0.010950
C20   C     C_2   0.873456 0.507547 0.592503 -0.174326
C21   C     C_2   0.934047 0.540309 0.490011 -0.245683
C22   C     C_R   0.592582 0.072048 0.580411 0.094836
Cu1   Cu    Cu3+1 0.499990 0.499980 0.640670 0.952612
Cu2   Cu    Cu3+1 0.500010 0.500020 0.359330 0.955194
H1    H     H_    0.882462 0.554400 0.381557 0.190454
H2    H     H_    0.736361 0.146678 0.754158 0.203813
H3    H     H_    0.356118 0.363412 0.089858 0.125479
H4    H     H_    0.355377 0.364026 0.829431 0.134234
H5    H     H_    0.693075 0.731740 0.925358 0.195274
H6    H     H_    0.519509 0.747399 0.888751 0.216693
H7    H     H_    0.523671 0.754483 0.137732 0.186184
H8    H     H_    0.073549 0.475223 0.313254 0.133946
H9    H     H_    0.340215 0.105013 0.313138 0.138112
H10   H     H_    0.594600 0.913073 0.806984 0.156191
H11   H     H_    0.578064 0.130133 0.794756 0.195725
N1    N     N_R   0.500780 0.500930 0.148120 -0.193234
N2    N     N_R   0.500790 0.500890 0.852210 -0.179654
O1    O     O_R   0.500000 0.319640 0.618810 -0.588431
O2    O     O_R   0.500010 0.319680 0.381230 -0.584622
O3    O     O_R   0.320680 0.500000 0.575130 -0.571002
O4    O     O_R   0.320690 0.500040 0.337550 -0.574775
O5    O     O_R   0.499990 0.680320 0.618770 -0.579032
O6    O     O_R   0.500000 0.680360 0.381190 -0.579914
O7    O     O_R   0.679310 0.499960 0.662450 -0.579130
O8    O     O_R   0.679320 0.500000 0.424870 -0.581436
C23   C     C_1   0.724325 0.747306 0.201895 0.262100
N3    N     N_1   0.819000 0.780183 0.273149 -0.334373
C24   C     C_1   0.137036 0.617279 0.647806 0.331112
N4    N     N_1   0.192156 0.664706 0.753406 -0.303479
C25   C     C_R   0.939607 0.471373 0.736880 0.127384
C26   C     C_R   0.934233 0.544535 0.858851 -0.099113
C27   C     C_R   0.000424 0.512142 0.993847 -0.116874
C28   C     C_R   0.071193 0.406046 0.007820 -0.108262
C29   C     C_R   0.075579 0.332085 0.887052 -0.158386
C30   C     C_R   0.010080 0.364492 0.751846 -0.135927
H12   H     H_    0.880837 0.627544 0.848928 0.139034
H13   H     H_    0.997229 0.569863 0.087136 0.144252
H14   H     H_    0.123075 0.380829 0.111830 0.123132
H15   H     H_    0.130329 0.250031 0.898139 0.123071
H16   H     H_    0.014825 0.307014 0.658717 0.131774
C31   C     C_1   0.312380 0.859625 0.296634 0.224251
N5    N     N_1   0.234767 0.802595 0.218502 -0.302463
C32   C     C_R   0.789998 0.918457 0.783221 0.141925
C33   C     C_R   0.859795 0.886924 0.681144 -0.144253
C34   C     C_R   0.987851 0.873663 0.723727 -0.144079
C35   C     C_R   0.047037 0.887736 0.868385 -0.096592
C36   C     C_R   0.978160 0.915754 0.970786 -0.134394
C37   C     C_R   0.850590 0.932167 0.928400 -0.173490
H17   H     H_    0.816999 0.877073 0.568198 0.149112
H18   H     H_    0.041349 0.854562 0.643791 0.149643
H19   H     H_    0.146400 0.878094 0.901076 0.158999
H20   H     H_    0.023894 0.927562 0.082699 0.161021
H21   H     H_    0.799092 0.958193 0.008432 0.148710

loop_
_geom_bond_atom_site_label_1
_geom_bond_atom_site_label_2
_ccdc_geom_bond_type
C10   H3    S    
C2    C22   A    
C9    N1    A    
C8    C22   S    
Cu1   Cu2   S    
C15   H7    S    
C6    C7    S    
C13   C14   S    
Cu1   O1    S    
C8    H2    S    
C29   C30   A    
C13   N2    A    
C35   H19   S    
C14   C15   S    
C28   H14   S    
C33   C34   A    
C17   C20   S    
C2    C3    A    
C9    C15   S    
C17   O7    A    
C26   C27   A    
Cu1   N2    S    
C30   H16   S    
C20   C21   D    
Cu2   O4    S    
C10   N1    A    
C16   O6    A    
C7    C32   S    
C27   H13   S    
Cu2   N1    S    
Cu1   O5    S    
C21   H1    S    
C11   H4    S    
C14   H6    S    
C36   C37   A    
C5    C6    A    
Cu2   O8    S    
C1    O1    A    
C24   N4    T    
C19   C21   S    
C17   O8    A    
C34   C35   A    
C29   H15   S    
C37   H21   S    
C31   N5    T    
C7    H10   S    
C18   H8    S    
C10   C11   A    
C3    H9    S    
C14   H5    S    
C9    C13   A    
Cu1   O3    S    
C6    C22   A    
C16   O5    A    
C7    C8    S    
Cu2   O2    S    
C35   C36   A    
C27   C28   A    
C12   O4    A    
C20   C25   S    
C1    C2    S    
C23   N3    T    
C12   C18   S    
C11   N2    A    
Cu2   O6    S    
C1    O2    A    
C32   C37   A    
C18   C19   D    
C5    C16   S    
C36   H20   S    
C12   O3    A    
C19   C24   S    
C15   C23   S    
C25   C26   A    
C34   H18   S    
C33   H17   S    
C4    C5    A    
C4    C31   S    
C3    C4    A    
C25   C30   A    
C28   C29   A    
C32   C33   A    
Cu1   O7    S    
C8    H11   S    
C26   H12   S    
