data_mof_unit_47095.cif
_audit_creation_date              2012-12-10T17:33:49-0500
_audit_creation_method            fapswitch 2.2
_symmetry_space_group_name_H-M    P1
_symmetry_Int_Tables_number       1
_space_group_crystal_system       triclinic
_cell_length_a                    10.72446
_cell_length_b                    11.990578
_cell_length_c                    12.833838
_cell_angle_alpha                 94.452349
_cell_angle_beta                  90.712238
_cell_angle_gamma                 85.908335
_cell_volume                      1641.12153465

loop_
_atom_site_label
_atom_site_type_symbol
_atom_type_description
_atom_site_fract_x
_atom_site_fract_y
_atom_site_fract_z
_atom_type_partial_charge
C1    C     C_R   0.497445 0.523589 0.700648 0.915371
C2    C     C_R   0.548804 0.453940 0.972819 0.149197
C3    C     C_R   0.463159 0.533572 0.025045 0.145229
C4    C     C_R   0.741736 0.501149 0.504873 0.839494
C5    C     C_R   0.447478 0.533291 0.130668 -0.190745
C6    C     C_R   0.602386 0.375146 0.138008 -0.100807
C7    C     C_R   0.616296 0.371317 0.028734 -0.074149
C8    C     C_R   0.384292 0.954213 0.399967 -0.121824
C9    C     C_R   0.393996 0.837846 0.410901 0.099636
C10   C     C_R   0.550233 0.858401 0.542302 0.035296
C11   C     C_R   0.543390 0.976110 0.535774 0.007556
C12   C     C_3   0.121100 0.503285 0.512805 -0.070919
C13   C     C_R   0.459071 0.024230 0.463297 0.011787
C14   C     C_R   0.451756 0.141651 0.456679 0.045972
C15   C     C_R   0.605550 0.163384 0.589133 0.020211
C16   C     C_R   0.507104 0.476314 0.299549 0.937203
C17   C     C_R   0.617908 0.047338 0.598989 -0.089864
C18   C     C_R   0.258279 0.501748 0.508785 0.948568
C19   C     C_3   0.932362 0.414515 0.580750 -0.563381
C20   C     C_3   0.076780 0.399840 0.571596 0.015916
C21   C     C_3   0.931586 0.473985 0.395402 -0.233416
C22   C     C_3   0.917118 0.621784 0.554913 -0.236035
C23   C     C_3   0.069743 0.501304 0.396798 -0.253710
C24   C     C_3   0.877630 0.504065 0.507461 0.070419
C25   C     C_2   0.116735 0.724518 0.558535 0.485905
C26   C     C_1   0.862335 0.531100 0.311743 0.171238
C27   C     C_2   0.679375 0.295148 0.198885 0.416788
C28   C     C_2   0.699004 0.279679 0.975490 0.400581
C29   C     C_2   0.337777 0.711796 0.815967 0.507698
C30   C     C_1   0.297824 0.000524 0.323875 0.183222
C31   C     C_1   0.707177 0.004377 0.673765 0.210565
C32   C     C_1   0.313529 0.767261 0.349000 0.215633
C33   C     C_2   0.131868 0.389712 0.680934 0.377613
C34   C     C_3   0.060619 0.614232 0.575198 -0.272563
C35   C     C_1   0.109935 0.289807 0.514323 0.133961
C36   C     C_2   0.143275 0.423902 0.316773 0.398865
C37   C     C_1   0.875221 0.714895 0.489298 0.216327
C38   C     C_R   0.517880 0.458076 0.187650 -0.077715
C39   C     C_R   0.494562 0.540385 0.812770 -0.071131
C40   C     C_R   0.395876 0.616049 0.972324 -0.247369
C41   C     C_R   0.412040 0.621871 0.866162 -0.023006
C42   C     C_R   0.565577 0.461097 0.866550 -0.234348
H1    H     H_    0.891167 0.332260 0.563396 0.205628
H2    H     H_    0.924146 0.382485 0.376010 0.142919
H3    H     H_    0.870003 0.641843 0.631675 0.136324
H4    H     H_    0.073259 0.604337 0.660116 0.206333
H5    H     H_    0.118067 0.754641 0.481254 0.075554
H6    H     H_    0.780224 0.298355 0.201430 0.030330
H7    H     H_    0.788851 0.254989 0.009612 0.061629
H8    H     H_    0.239068 0.727313 0.833654 0.087399
H9    H     H_    0.098659 0.327264 0.728842 0.095511
H10   H     H_    0.145872 0.333791 0.318819 0.103454
H11   H     H_    0.075101 0.587666 0.371676 0.195869
H12   H     H_    0.382438 0.595269 0.169665 0.192913
H13   H     H_    0.331548 0.677118 0.014420 0.145434
H14   H     H_    0.632994 0.404614 0.823411 0.179710
H15   H     H_    0.389090 0.181636 0.401942 0.150001
H16   H     H_    0.903332 0.442103 0.662411 0.157787
H17   H     H_    0.661883 0.218935 0.637190 0.145380
H18   H     H_    0.613889 0.818731 0.596558 0.138488
N1    N     N_R   0.523380 0.207800 0.519350 -0.117704
N2    N     N_R   0.476620 0.792180 0.480650 -0.119678
N3    N     N_1   0.808333 0.575570 0.246259 -0.185689
N4    N     N_1   0.228982 0.037322 0.263156 -0.166369
N5    N     N_1   0.778760 0.969933 0.733618 -0.151433
N6    N     N_1   0.246863 0.712931 0.299017 -0.204791
N7    N     N_1   0.134920 0.202925 0.471064 -0.209739
N8    N     N_1   0.842753 0.787456 0.438618 -0.185314
O1    O     O_R   0.506240 0.421700 0.658830 -0.605507
O2    O     O_2   0.631107 0.221992 0.241932 -0.524689
O3    O     O_2   0.664628 0.226974 0.896357 -0.555767
O4    O     O_2   0.387527 0.775044 0.761948 -0.511790
O5    O     O_2   0.212781 0.448657 0.716728 -0.608049
O6    O     O_2   0.198476 0.462581 0.246805 -0.571085
O7    O     O_R   0.491240 0.609310 0.646410 -0.585016
O8    O     O_R   0.692710 0.406190 0.506230 -0.639118
O9    O     O_R   0.677700 0.593810 0.493810 -0.629907
O10   O     O_R   0.508760 0.390690 0.353590 -0.576972
O11   O     O_R   0.493760 0.578300 0.341170 -0.627136
O12   O     O_R   0.322300 0.406190 0.506190 -0.616919
O13   O     O_R   0.307290 0.593810 0.493770 -0.625906
O14   O     O_2   0.158421 0.781481 0.632003 -0.544980
Zn1   Zn    Zn3+2 0.510020 0.374730 0.508290 1.003586
Zn2   Zn    Zn3+2 0.489980 0.625270 0.491710 1.010042

loop_
_geom_bond_atom_site_label_1
_geom_bond_atom_site_label_2
_ccdc_geom_bond_type
C27   H6    S    
C21   C26   S    
C8    C13   A    
C30   N4    T    
C2    C7    A    
C39   C41   A    
C12   C23   S    
O11   Zn2   S    
C4    C24   S    
O7    Zn2   S    
C37   N8    T    
C18   O13   A    
C31   N5    T    
C9    C32   S    
C42   H14   S    
C20   C35   S    
O10   Zn1   S    
C19   C20   S    
C8    C9    A    
C6    C38   A    
C34   H4    S    
C25   H5    S    
C36   H10   S    
C25   C34   S    
C29   O4    D    
C13   C14   A    
C10   N2    A    
O12   Zn1   S    
O8    Zn1   S    
C19   H1    S    
C23   H11   S    
C39   C42   A    
C29   H8    S    
C19   H16   S    
C22   C34   S    
C9    N2    A    
C1    O7    A    
C5    H12   S    
C14   N1    A    
N1    Zn1   S    
O9    Zn2   S    
C22   C37   S    
C1    O1    A    
C7    C28   S    
C10   H18   S    
C26   N3    T    
O1    Zn1   S    
C21   H2    S    
C28   H7    S    
C6    C27   S    
C35   N7    T    
C40   H13   S    
C12   C20   S    
C15   N1    A    
C27   O2    D    
C36   O6    D    
C20   C33   S    
C33   O5    D    
C40   C41   A    
C3    C40   A    
C21   C23   S    
C25   O14   D    
C17   C31   S    
C22   C24   S    
C28   O3    D    
C12   C34   S    
O13   Zn2   S    
C32   N6    T    
C15   C17   A    
C14   H15   S    
N2    Zn2   S    
C11   C17   A    
C29   C41   S    
C15   H17   S    
C3    C5    A    
C6    C7    A    
C33   H9    S    
C16   O11   A    
C8    C30   S    
C19   C24   S    
C4    O9    A    
C11   C13   A    
C2    C42   A    
C2    C3    A    
C16   O10   A    
C4    O8    A    
C10   C11   A    
C1    C39   S    
C22   H3    S    
C18   O12   A    
C23   C36   S    
C21   C24   S    
C12   C18   S    
C5    C38   A    
C16   C38   S    
