data_mof_unit_29149.cif
_audit_creation_date              2012-12-10T18:23:09-0500
_audit_creation_method            fapswitch 2.2
_symmetry_space_group_name_H-M    P1
_symmetry_Int_Tables_number       1
_space_group_crystal_system       triclinic
_cell_length_a                    15.003973
_cell_length_b                    14.012389
_cell_length_c                    10.539618
_cell_angle_alpha                 89.152745
_cell_angle_beta                  89.730057
_cell_angle_gamma                 89.96953
_cell_volume                      2215.59807261

loop_
_atom_site_label
_atom_site_type_symbol
_atom_type_description
_atom_site_fract_x
_atom_site_fract_y
_atom_site_fract_z
_atom_type_partial_charge
C1    C     C_R   0.326496 0.500021 0.499928 0.895977
C2    C     C_R   0.953930 0.328919 0.459221 -0.214560
C3    C     C_R   0.556964 0.798971 0.421299 -0.039276
C4    C     C_R   0.443036 0.201029 0.578701 -0.039276
C5    C     C_R   0.443141 0.797295 0.578883 -0.051723
C6    C     C_R   0.556859 0.202705 0.421117 -0.051723
C7    C     C_R   0.441814 0.897940 0.580858 0.015356
C8    C     C_R   0.558186 0.102060 0.419142 0.015356
C9    C     C_R   0.558237 0.899654 0.419233 0.016881
C10   C     C_R   0.441763 0.100346 0.580767 0.016881
C11   C     C_R   0.500010 0.949387 0.500018 0.084093
C12   C     C_R   0.673504 0.499979 0.500072 0.895977
C13   C     C_R   0.499990 0.050613 0.499982 0.084093
C14   C     C_R   0.383981 0.948136 0.661304 -0.200876
C15   C     C_R   0.616019 0.051864 0.338695 -0.200876
C16   C     C_R   0.616039 0.951553 0.338735 -0.186661
C17   C     C_R   0.383960 0.048447 0.661265 -0.186661
C18   C     C_R   0.500328 0.500838 0.257415 0.891941
C19   C     C_R   0.499672 0.499162 0.742585 0.891941
C20   C     C_3   0.502955 0.590917 0.035749 0.020915
C21   C     C_3   0.497044 0.409082 0.964250 0.020915
C22   C     C_3   0.574111 0.541128 0.955820 -0.007586
C23   C     C_R   0.953635 0.499980 0.500117 0.061663
C24   C     C_3   0.425889 0.458872 0.044180 -0.007586
C25   C     C_3   0.427508 0.547773 0.955778 -0.279349
C26   C     C_3   0.572492 0.452226 0.044221 -0.279349
C27   C     C_3   0.499760 0.497427 0.876992 -0.086409
C28   C     C_3   0.500240 0.502573 0.123008 -0.086409
C29   C     C_R   0.815200 0.414565 0.480066 -0.258404
C30   C     C_R   0.184800 0.585434 0.519934 -0.258405
C31   C     C_R   0.769345 0.499942 0.500288 -0.073481
C32   C     C_R   0.230655 0.500058 0.499712 -0.073481
C33   C     C_R   0.814973 0.585310 0.520600 -0.240425
C34   C     C_R   0.046365 0.500020 0.499883 0.061663
C35   C     C_R   0.185027 0.414690 0.479400 -0.240425
C36   C     C_R   0.907158 0.585967 0.520708 0.115659
C37   C     C_R   0.092842 0.414033 0.479292 0.115659
C38   C     C_1   0.506295 0.691064 0.074667 0.192049
C39   C     C_1   0.493705 0.308935 0.925333 0.192049
C40   C     C_1   0.655259 0.585471 0.903413 0.165996
C41   C     C_1   0.344741 0.414528 0.096587 0.165996
C42   C     C_R   0.907390 0.413954 0.479733 0.119012
C43   C     C_R   0.092610 0.586046 0.520267 0.119012
C44   C     C_R   0.953465 0.671040 0.541010 -0.208253
C45   C     C_R   0.046535 0.328960 0.458990 -0.208254
C46   C     C_R   0.046069 0.671081 0.540779 -0.214560
H1    H     H_    0.368759 0.586034 0.916336 0.151245
H2    H     H_    0.398700 0.240645 0.639861 0.137880
H3    H     H_    0.398900 0.756388 0.640219 0.130042
H4    H     H_    0.601100 0.243611 0.359781 0.130042
H5    H     H_    0.338766 0.909840 0.724227 0.143240
H6    H     H_    0.661234 0.090160 0.275773 0.143240
H7    H     H_    0.661243 0.914584 0.275815 0.148541
H8    H     H_    0.338757 0.085415 0.724185 0.148541
H9    H     H_    0.778904 0.651157 0.536864 0.166868
H10   H     H_    0.221096 0.348843 0.463136 0.166868
H11   H     H_    0.631241 0.413966 0.083664 0.151245
H12   H     H_    0.779308 0.348707 0.463844 0.159507
H13   H     H_    0.220692 0.651293 0.536156 0.159507
H14   H     H_    0.918109 0.737291 0.556945 0.149818
H15   H     H_    0.081891 0.262709 0.443055 0.149818
H16   H     H_    0.081244 0.737361 0.556564 0.146986
H17   H     H_    0.918756 0.262639 0.443436 0.146986
H18   H     H_    0.601300 0.759355 0.360138 0.137880
N1    N     N_R   0.500000 0.750030 0.500000 -0.105997
N2    N     N_R   0.500000 0.249970 0.500000 -0.105997
N3    N     N_1   0.508887 0.770008 0.105098 -0.212104
N4    N     N_1   0.491113 0.229991 0.894902 -0.212104
N5    N     N_1   0.719120 0.620343 0.861866 -0.203501
N6    N     N_1   0.280880 0.379657 0.138134 -0.203501
O1    O     O_R   0.367850 0.580280 0.500030 -0.630043
O2    O     O_R   0.632150 0.419720 0.499970 -0.630043
O3    O     O_R   0.632150 0.580280 0.499970 -0.628525
O4    O     O_R   0.367850 0.419720 0.500030 -0.628525
O5    O     O_R   0.499970 0.580260 0.313950 -0.622393
O6    O     O_R   0.500030 0.419740 0.686050 -0.622393
O7    O     O_R   0.500030 0.580260 0.686050 -0.619924
O8    O     O_R   0.499970 0.419740 0.313950 -0.619924
Zn1   Zn    Zn3+2 0.500000 0.607200 0.500000 0.955822
Zn2   Zn    Zn3+2 0.500000 0.392800 0.500000 0.955822

loop_
_geom_bond_atom_site_label_1
_geom_bond_atom_site_label_2
_ccdc_geom_bond_type
C33   H9    S    
C4    N2    A    
C21   C26   S    
C18   O5    A    
N1    Zn1   S    
C29   C42   A    
C34   C37   A    
C39   N4    T    
O1    Zn1   S    
C3    H18   S    
C7    C11   A    
C8    C13   A    
C23   C42   A    
C46   H16   S    
C1    O4    A    
C29   H12   S    
C19   O6    A    
C35   C37   A    
C9    C16   A    
C2    C42   A    
O8    Zn2   S    
C20   C25   S    
C10   C17   A    
C15   C16   A    
C33   C36   A    
C19   O7    A    
C16   H7    S    
C7    C14   A    
C31   C33   A    
C19   C27   S    
C25   H1    S    
C12   O2    A    
O4    Zn2   S    
C12   O3    A    
C24   C41   S    
C14   C17   A    
C5    H3    S    
C3    N1    A    
C26   H11   S    
C44   C46   A    
O7    Zn1   S    
C2    C45   A    
C40   N5    T    
C32   C35   A    
O6    Zn2   S    
C18   C28   S    
C24   C25   S    
C5    N1    A    
C5    C7    A    
C6    C8    A    
C20   C28   S    
C1    C32   S    
C3    C9    A    
C20   C38   S    
C14   H5    S    
C21   C39   S    
C18   O8    A    
C23   C34   A    
C22   C40   S    
C30   H13   S    
O3    Zn1   S    
C1    O1    A    
C15   H6    S    
C6    H4    S    
C9    C11   A    
C20   C22   S    
C8    C15   A    
C22   C27   S    
C12   C31   S    
C30   C43   A    
C36   C44   A    
C37   C45   A    
C2    H17   S    
C4    H2    S    
C35   H10   S    
C34   C43   A    
C24   C28   S    
C4    C10   A    
C10   C13   A    
C25   C27   S    
N2    Zn2   S    
C26   C28   S    
O2    Zn2   S    
C30   C32   A    
C11   C13   A    
C44   H14   S    
C45   H15   S    
C21   C27   S    
C43   C46   A    
C6    N2    A    
C38   N3    T    
C29   C31   A    
C23   C36   A    
C22   C26   S    
C21   C24   S    
O5    Zn1   S    
C17   H8    S    
C41   N6    T    
