data_mof_unit_15148.cif
_audit_creation_date              2012-12-10T19:44:25-0500
_audit_creation_method            fapswitch 2.2
_symmetry_space_group_name_H-M    P1
_symmetry_Int_Tables_number       1
_space_group_crystal_system       triclinic
_cell_length_a                    10.926951
_cell_length_b                    12.310026
_cell_length_c                    13.091199
_cell_angle_alpha                 116.164328
_cell_angle_beta                  77.296495
_cell_angle_gamma                 99.314721
_cell_volume                      1537.54734689

loop_
_atom_site_label
_atom_site_type_symbol
_atom_type_description
_atom_site_fract_x
_atom_site_fract_y
_atom_site_fract_z
_atom_type_partial_charge
C1    C     C_R   0.515926 0.855131 0.286129 0.772479
C2    C     C_R   0.716237 0.680569 0.687072 -0.129425
C3    C     C_R   0.045559 0.916969 0.526088 -0.216271
C4    C     C_R   0.129275 0.003853 0.499870 -0.093872
C5    C     C_R   0.081806 0.088331 0.475813 0.014961
C6    C     C_R   0.954797 0.077651 0.470076 -0.208992
C7    C     C_R   0.870340 0.994245 0.500553 -0.089720
C8    C     C_R   0.916400 0.913829 0.531671 0.032431
C9    C     C_R   0.113654 0.307848 0.579865 -0.213685
C10   C     C_R   0.136699 0.422041 0.579572 0.301057
C11   C     C_R   0.202587 0.434609 0.480584 -0.222693
C12   C     C_R   0.737001 0.997914 0.500462 0.788020
C13   C     C_R   0.247216 0.332733 0.382803 -0.204701
C14   C     C_R   0.219377 0.216069 0.380228 0.199652
C15   C     C_R   0.149716 0.203690 0.479841 0.070657
C16   C     C_R   0.338563 0.289665 0.033778 -0.216247
C17   C     C_R   0.455718 0.229377 0.838838 -0.122925
C18   C     C_R   0.645219 0.801066 0.093745 -0.185839
C19   C     C_R   0.703222 0.710726 0.993968 -0.111585
C20   C     C_R   0.657597 0.589453 0.960232 0.218368
C21   C     C_R   0.540850 0.558706 0.019157 0.022432
C22   C     C_R   0.484107 0.651304 0.123173 0.057965
C23   C     C_R   0.478754 0.145220 0.714620 0.839032
C24   C     C_R   0.481826 0.438817 0.983697 0.093284
C25   C     C_R   0.385783 0.409691 0.061565 0.103038
C26   C     C_R   0.331741 0.501485 0.162748 -0.217360
C27   C     C_R   0.374099 0.621256 0.188383 -0.154479
C28   C     C_R   0.506527 0.349863 0.870230 -0.236763
C29   C     C_R   0.375663 0.198713 0.924731 0.288213
C30   C     C_R   0.541560 0.771120 0.163223 -0.097611
C31   C     C_R   0.667531 0.321526 0.298036 -0.306154
C32   C     C_R   0.344193 0.769795 0.659079 0.130732
C33   C     C_R   0.337416 0.691582 0.711089 -0.105753
C34   C     C_R   0.262751 0.002616 0.500935 0.792914
C35   C     C_R   0.400871 0.585889 0.653152 -0.184753
C36   C     C_R   0.474884 0.559778 0.543389 -0.027046
C37   C     C_R   0.494738 0.652472 0.503491 0.223841
C38   C     C_R   0.533608 0.448309 0.474483 -0.048561
C39   C     C_R   0.612816 0.432573 0.367550 0.137086
C40   C     C_R   0.641834 0.530318 0.335733 0.087122
C41   C     C_R   0.587955 0.639725 0.407257 -0.157555
C42   C     C_R   0.514671 0.349981 0.506080 0.046621
C43   C     C_R   0.648360 0.230496 0.336103 0.069473
C44   C     C_R   0.690421 0.802666 0.735588 0.259950
C45   C     C_R   0.752249 0.878230 0.682969 -0.104538
C46   C     C_R   0.836730 0.831231 0.578735 0.028291
C47   C     C_R   0.860897 0.708195 0.529756 -0.182614
C48   C     C_R   0.802741 0.633150 0.584347 0.197979
Cu1   Cu    Cu3+1 0.529370 0.098270 0.475420 0.948363
Cu2   Cu    Cu3+1 0.470630 0.901730 0.524580 0.953117
H1    H     H_    0.669949 0.623413 0.729875 0.169182
H2    H     H_    0.219281 0.523122 0.479275 0.164484
H3    H     H_    0.300087 0.344332 0.307531 0.156080
H4    H     H_    0.252112 0.481215 0.219226 0.136714
H5    H     H_    0.268980 0.267022 0.095874 0.158133
H6    H     H_    0.558137 0.376226 0.803453 0.201191
H7    H     H_    0.690171 0.892298 0.122989 0.167980
H8    H     H_    0.790938 0.734242 0.948117 0.202914
H9    H     H_    0.321286 0.689888 0.261944 0.159592
H10   H     H_    0.690895 0.145467 0.282723 0.134753
H11   H     H_    0.727609 0.304943 0.215848 0.169199
H12   H     H_    0.450499 0.352251 0.582146 0.126668
H13   H     H_    0.288681 0.847005 0.699615 0.182436
H14   H     H_    0.389712 0.526391 0.695691 0.152330
H15   H     H_    0.280685 0.711629 0.795352 0.212549
H16   H     H_    0.625081 0.714884 0.387477 0.205466
H17   H     H_    0.736134 0.973888 0.724209 0.163813
H18   H     H_    0.928755 0.671827 0.451096 0.143582
H19   H     H_    0.079808 0.854359 0.549259 0.174836
H20   H     H_    0.921009 0.142418 0.449253 0.176070
H21   H     H_    0.056962 0.298924 0.655304 0.198275
N1    N     N_R   0.573890 0.246290 0.438210 -0.186170
N2    N     N_R   0.426890 0.754320 0.561170 -0.223139
O1    O     O_R   0.536940 0.972510 0.318130 -0.580787
O2    O     O_R   0.487330 0.806530 0.359650 -0.606940
O3    O     O_R   0.705160 0.082990 0.479250 -0.579174
O4    O     O_R   0.655550 0.917010 0.520760 -0.598264
O5    O     O_R   0.512670 0.193470 0.640350 -0.594120
O6    O     O_R   0.463060 0.027490 0.681870 -0.536386
O7    O     O_R   0.344450 0.082990 0.479240 -0.572304
O8    O     O_R   0.294840 0.917010 0.520750 -0.596786
C49   C     C_3   0.260842 0.108611 0.269739 -0.761474
H22   H     H_    0.234853 0.021302 0.277388 0.225468
H23   H     H_    0.216852 0.105640 0.199656 0.239078
H24   H     H_    0.364753 0.117494 0.245505 0.249209
Br1   Br    Br    0.300110 0.040489 0.901138 -0.531438
Br2   Br    Br    0.778147 0.474506 0.856024 -0.532187
Br3   Br    Br    0.574671 0.868361 0.876372 -0.516747
C50   C     C_3   0.732682 0.521836 0.227555 -0.823271
H25   H     H_    0.744641 0.607706 0.216658 0.233330
H26   H     H_    0.826538 0.501457 0.231263 0.229924
H27   H     H_    0.696883 0.449386 0.150488 0.256280
C51   C     C_3   0.838157 0.504876 0.534348 -0.781308
H28   H     H_    0.784200 0.454736 0.584736 0.260031
H29   H     H_    0.822963 0.456661 0.444022 0.219279
H30   H     H_    0.939739 0.504862 0.531726 0.259029
Br4   Br    Br    0.065164 0.556929 0.711751 -0.545314

loop_
_geom_bond_atom_site_label_1
_geom_bond_atom_site_label_2
_ccdc_geom_bond_type
C43   N1    A    
C17   C29   A    
C31   H11   S    
C35   C36   A    
Cu2   O6    S    
C28   H6    S    
C33   H15   S    
C7    C8    A    
C45   C46   A    
C26   C27   A    
C51   H28   S    
C31   C43   A    
C1    O1    A    
C36   C37   A    
C3    H19   S    
C38   C42   A    
C5    C6    A    
C20   Br2   S    
Cu1   O5    S    
C18   C19   A    
C11   H2    S    
C34   O7    A    
C19   C20   A    
C2    C44   A    
Cu1   N1    S    
C45   H17   S    
C35   H14   S    
C18   C30   A    
C34   O8    A    
C40   C50   S    
C50   H26   S    
C9    C10   A    
C42   H12   S    
C51   H29   S    
C21   C22   A    
C37   C41   A    
C26   H4    S    
C13   H3    S    
C19   H8    S    
C7    C12   S    
C4    C34   S    
C48   C51   S    
C1    O2    A    
C24   C28   A    
C24   C25   A    
C3    C8    A    
C10   C11   A    
Cu2   N2    S    
C32   N2    A    
C2    C48   A    
C16   C29   A    
C10   Br4   S    
C18   H7    S    
C47   C48   A    
C12   O4    A    
C42   N1    A    
Cu1   O3    S    
C17   C23   S    
C50   H27   S    
C29   Br1   S    
C41   H16   S    
C43   H10   S    
C40   C41   A    
C49   H22   S    
C51   H30   S    
C49   H23   S    
C22   C27   A    
C12   O3    A    
C14   C49   S    
C3    C4    A    
Cu2   O4    S    
C47   H18   S    
C39   C40   A    
C44   C45   A    
C16   C25   A    
C6    H20   S    
C37   N2    A    
C46   C47   A    
C22   C30   A    
Cu1   O1    S    
C17   C28   A    
C9    H21   S    
C32   H13   S    
C4    C5    A    
C6    C7    A    
C49   H24   S    
Cu1   O7    S    
C32   C33   A    
C36   C38   A    
C25   C26   A    
C16   H5    S    
C27   H9    S    
Cu2   O2    S    
C11   C13   A    
C38   C39   A    
C1    C30   S    
C33   C35   A    
C31   C39   A    
C44   Br3   S    
C23   O5    A    
C9    C15   A    
C8    C46   S    
C5    C15   S    
C2    H1    S    
C20   C21   A    
Cu1   Cu2   S    
C21   C24   A    
C14   C15   A    
C23   O6    A    
C50   H25   S    
C13   C14   A    
Cu2   O8    S    
