data_mof_unit_13485.cif
_audit_creation_date              2012-12-11T17:57:14-0500
_audit_creation_method            fapswitch 2.2
_symmetry_space_group_name_H-M    P1
_symmetry_Int_Tables_number       1
_space_group_crystal_system       triclinic
_cell_length_a                    8.236062
_cell_length_b                    12.753432
_cell_length_c                    17.193666
_cell_angle_alpha                 98.117426
_cell_angle_beta                  96.73484
_cell_angle_gamma                 98.57536
_cell_volume                      1750.16701401

loop_
_atom_site_label
_atom_site_type_symbol
_atom_type_description
_atom_site_fract_x
_atom_site_fract_y
_atom_site_fract_z
_atom_type_partial_charge
Ba1   Ba    Ba6+2 0.843240 0.548600 0.461650 1.682835
Ba2   Ba    Ba6+2 0.346590 0.451490 0.538360 1.694840
C1    C     C_3   0.538924 0.808197 0.138826 -0.306325
C2    C     C_3   0.623603 0.789547 0.218213 0.266010
C3    C     C_3   0.399639 0.303272 0.300403 0.351243
C4    C     C_3   0.384277 0.282939 0.210150 -0.297534
C5    C     C_3   0.114104 0.235072 0.752062 0.311726
C6    C     C_3   0.147069 0.209926 0.835788 -0.319406
C7    C     C_3   0.603405 0.181060 0.719036 0.329030
C8    C     C_3   0.654842 0.092539 0.762215 -0.373023
C9    C     C_2   0.247836 0.522758 0.276468 -0.255181
C10   C     C_3   0.343573 0.585379 0.223988 -0.019284
C11   C     C_2   0.291021 0.544804 0.137098 -0.098460
C12   C     C_3   0.035308 0.733902 0.241039 0.387943
C13   C     C_2   0.136112 0.490827 0.111720 0.020226
C14   C     C_2   0.033895 0.453833 0.172347 -0.158803
C15   C     C_1   0.101517 0.463726 0.247881 -0.007668
C16   C     C_R   0.884082 0.460558 0.861359 -0.125684
C17   C     C_R   0.819197 0.447832 0.781385 0.015027
C18   C     C_R   0.078224 0.540397 0.751804 0.058843
C19   C     C_R   0.143569 0.554581 0.832534 -0.114457
C20   C     C_R   0.048438 0.512219 0.887661 0.010675
C21   C     C_2   0.065581 0.468867 0.026025 -0.070475
C22   C     C_2   0.120177 0.529676 0.972754 -0.079347
C23   C     C_3   0.996934 0.742712 0.153061 -0.284135
C24   C     C_R   0.917770 0.483928 0.726526 -0.290502
C25   C     C_R   0.780294 0.175851 0.510275 -0.236970
C26   C     C_R   0.419990 0.807129 0.467047 -0.334247
C27   C     C_R   0.412878 0.968364 0.409646 0.342886
C28   C     C_R   0.331245 0.869522 0.423048 -0.031822
C29   C     C_R   0.580657 0.847179 0.507050 0.066718
C30   C     C_R   0.649660 0.957263 0.507571 -0.084804
C31   C     C_R   0.560452 0.020698 0.460918 -0.106945
C32   C     C_R   0.623596 0.133485 0.467706 0.052971
C33   C     C_R   0.874123 0.112421 0.549708 0.015410
C34   C     C_3   0.264938 0.785213 0.630370 0.276929
C35   C     C_R   0.806311 0.005278 0.551489 -0.075166
C36   C     C_3   0.270030 0.905924 0.644547 -0.333371
C37   C     C_3   0.926255 0.220491 0.222064 0.242153
C38   C     C_3   0.881792 0.098434 0.200697 0.235341
C39   C     C_3   0.778392 0.707800 0.700083 0.292479
C40   C     C_3   0.816557 0.744868 0.789337 -0.357436
H1    H     H_    0.732077 0.854515 0.237889 0.105072
H2    H     H_    0.360543 0.943083 0.697516 0.117933
H3    H     H_    0.307427 0.940606 0.592465 0.064080
H4    H     H_    0.145667 0.924083 0.654427 0.142583
H5    H     H_    0.043355 0.245945 0.198919 0.022326
H6    H     H_    0.824326 0.254856 0.191858 0.008101
H7    H     H_    0.748088 0.073450 0.202454 0.072952
H8    H     H_    0.952962 0.058663 0.243189 0.120793
H9    H     H_    0.892419 0.688007 0.677637 0.015586
H10   H     H_    0.680289 0.635370 0.688168 0.060743
H11   H     H_    0.531447 0.894665 0.140754 0.161119
H12   H     H_    0.917798 0.815591 0.802920 0.142610
H13   H     H_    0.855967 0.679714 0.819448 0.059727
H14   H     H_    0.704172 0.767327 0.812702 0.138618
H15   H     H_    0.542857 0.797174 0.265327 0.075657
H16   H     H_    0.412024 0.760944 0.125104 0.078391
H17   H     H_    0.274770 0.295829 0.318515 0.006576
H18   H     H_    0.471703 0.384564 0.323594 0.040053
H19   H     H_    0.311659 0.201967 0.186548 0.187849
H20   H     H_    0.322309 0.343341 0.184007 0.048989
H21   H     H_    0.509126 0.285762 0.191382 0.137596
H22   H     H_    0.610227 0.783225 0.090502 0.153430
H23   H     H_    0.925200 0.808213 0.144985 0.191643
H24   H     H_    0.209802 0.303873 0.746766 0.103550
H25   H     H_    0.989192 0.257909 0.743203 -0.051867
H26   H     H_    0.275095 0.192637 0.847536 0.152376
H27   H     H_    0.133398 0.279851 0.879503 0.086679
H28   H     H_    0.058133 0.138822 0.843172 0.139159
H29   H     H_    0.710333 0.213036 0.690248 -0.066865
H30   H     H_    0.497350 0.146121 0.671934 0.071999
H31   H     H_    0.765716 0.125608 0.806808 0.130272
H32   H     H_    0.684887 0.027127 0.719217 0.083024
H33   H     H_    0.949251 0.665941 0.255005 0.082357
H34   H     H_    0.553300 0.059490 0.793541 0.139147
H35   H     H_    0.221638 0.596469 0.991634 0.073945
H36   H     H_    0.902869 0.422666 0.154559 0.092981
H37   H     H_    0.804154 0.432766 0.902470 0.076422
H38   H     H_    0.962925 0.402739 0.007684 0.097980
H39   H     H_    0.374596 0.568184 0.096014 0.072446
H40   H     H_    0.267729 0.598957 0.852366 0.088317
H41   H     H_    0.285462 0.546319 0.339927 0.068871
H42   H     H_    0.866093 0.473299 0.664573 0.072960
H43   H     H_    0.160435 0.714529 0.251375 -0.005584
H44   H     H_    0.877996 0.960713 0.587213 0.094374
H45   H     H_    0.830153 0.260023 0.513130 0.060424
H46   H     H_    0.361702 0.726758 0.471409 0.069039
H47   H     H_    0.112532 0.758549 0.126431 0.092688
H48   H     H_    0.924312 0.665870 0.119705 0.086168
H49   H     H_    0.387308 0.768150 0.617734 0.006196
H50   H     H_    0.168723 0.750818 0.578626 0.067743
O1    O     O_2   0.825360 0.427200 0.308020 -0.445528
O2    O     O_3   0.725071 0.791373 0.664845 -0.639921
O3    O     O_3   0.026295 0.830873 0.290110 -0.541256
O4    O     O_2   0.364350 0.572830 0.692030 -0.464506
O5    O     O_3   0.090660 0.565070 0.594010 -0.506337
O6    O     O_3   0.566030 0.372000 0.644040 -0.488475
O7    O     O_3   0.230033 0.744735 0.699134 -0.630700
O8    O     O_3   0.601410 0.366560 0.460070 -0.489911
O9    O     O_3   0.134540 0.313430 0.604520 -0.486989
O10   O     O_2   0.216693 0.122250 0.558563 -0.481417
O11   O     O_3   0.123328 0.144142 0.697188 -0.612797
O12   O     O_3   0.099050 0.435020 0.406000 -0.478513
O13   O     O_3   0.588300 0.633530 0.539940 -0.490761
O14   O     O_2   0.332090 0.232110 0.462130 -0.446927
O15   O     O_3   0.481360 0.224407 0.326807 -0.525456
O16   O     O_2   0.480649 0.453066 0.782052 -0.491250
O17   O     O_3   0.553397 0.258800 0.773718 -0.595693
O18   O     O_3   0.623690 0.628090 0.355970 -0.477417
O19   O     O_2   0.621355 0.490119 0.221894 -0.493886
O20   O     O_3   0.946612 0.255006 0.304793 -0.618879
O21   O     O_3   0.681329 0.691006 0.207374 -0.621728
O22   O     O_2   0.857620 0.767930 0.537920 -0.478276
O23   O     O_3   0.055170 0.686660 0.395490 -0.514065
O24   O     O_2   0.997410 0.880654 0.440484 -0.474080
P1    P     P_3+3 0.996360 0.395990 0.320310 0.993134
P2    P     P_3+3 0.688190 0.753610 0.561600 0.974440
P3    P     P_3+3 0.105577 0.821075 0.387660 1.036071
P4    P     P_3+3 0.193350 0.604100 0.679700 0.977797
P5    P     P_3+3 0.085109 0.173530 0.600804 0.966353
P6    P     P_3+3 0.567626 0.597099 0.252979 0.941941
P7    P     P_3+3 0.505209 0.233919 0.429700 1.082924
P8    P     P_3+3 0.603711 0.385603 0.746761 0.954735
S1    S     S_3+6 0.923207 0.055157 0.102255 -0.100922
O25   O     O_2   0.098404 0.034220 0.105882 -0.268701
O26   O     O_2   0.807070 0.953534 0.065363 -0.324239
O27   O     O_3   0.899079 0.150322 0.045342 -0.518083
H51   H     H_    0.780005 0.156327 0.041948 0.325101
S2    S     S_3+6 0.377285 0.995288 0.311720 -0.111213
O28   O     O_2   0.248103 0.066518 0.306579 -0.308846
O29   O     O_2   0.538642 0.044576 0.289336 -0.344435
O30   O     O_3   0.310539 0.886266 0.244234 -0.593438
H52   H     H_    0.278199 0.914800 0.195081 0.382676

loop_
_geom_bond_atom_site_label_1
_geom_bond_atom_site_label_2
_ccdc_geom_bond_type
C32   P7    S    
C27   C31   A    
O2    P2    S    
C39   C40   S    
C7    H30   S    
O15   P7    S    
O27   H51   S    
O30   H52   S    
C5    C6    S    
C39   O2    S    
C1    H22   S    
O6    P8    S    
C10   C11   S    
C23   H48   S    
C4    H19   S    
C33   C35   A    
C16   C17   A    
C3    C4    S    
C40   H13   S    
C8    H31   S    
C28   P3    S    
C13   C14   S    
C11   H39   S    
Ba1   Ba2   S    
C17   C24   A    
C36   H3    S    
C40   H14   S    
O7    P4    S    
C8    H34   S    
O21   P6    S    
C27   S2    S    
Ba2   O5    S    
C14   C15   D    
O14   P7    D    
C26   H46   S    
S1    O27   S    
C21   C22   D    
C8    H32   S    
C21   H38   S    
O10   P5    D    
C7    C8    S    
C39   H10   S    
C15   P1    S    
C34   H50   S    
C13   C21   S    
Ba2   O8    S    
C5    O11   S    
C19   C20   A    
O19   P6    D    
O1    P1    D    
O16   P8    D    
Ba1   O8    S    
C25   C32   A    
C7    O17   S    
C17   P8    S    
C3    H17   S    
C40   H12   S    
C2    O21   S    
C33   P5    S    
C23   H23   S    
Ba1   O5    S    
C37   C38   S    
Ba2   P4    S    
C16   H37   S    
Ba2   O9    S    
O3    P3    S    
Ba2   O14   S    
O9    P5    S    
C4    H21   S    
C2    H15   S    
S2    O29   D    
C29   P2    S    
C36   H2    S    
C27   C28   A    
Ba1   O18   S    
C35   H44   S    
C29   C30   A    
Ba2   O12   S    
C31   C32   A    
C6    H27   S    
Ba1   P1    S    
C30   C35   A    
C19   H40   S    
C25   H45   S    
Ba1   O12   S    
O22   P2    D    
C34   H49   S    
C37   O20   S    
C6    H26   S    
O23   P3    S    
C11   C13   D    
S1    O25   D    
C20   C22   S    
O13   P2    S    
S2    O30   S    
Ba1   O22   S    
C1    C2    S    
O11   P5    S    
C12   O3    S    
C18   P4    S    
C34   C36   S    
C37   H5    S    
O12   P1    S    
C3    O15   S    
C9    C15   D    
C24   H42   S    
C3    H18   S    
C16   C20   A    
C23   H47   S    
O4    P4    D    
C26   C29   A    
C7    H29   S    
C12   H43   S    
C9    C10   S    
O17   P8    S    
C2    H1    S    
Ba2   O13   S    
C6    H28   S    
O24   P3    D    
O8    P7    S    
C25   C33   A    
C30   C31   A    
C4    H20   S    
O5    P4    S    
Ba2   O4    S    
S2    O28   D    
C12   H33   S    
C5    H24   S    
C1    H11   S    
C9    H41   S    
O20   P1    S    
C18   C24   A    
C38   H8    S    
C38   S1    S    
C26   C28   A    
C34   O7    S    
C14   H36   S    
Ba1   P2    S    
C12   C23   S    
C36   H4    S    
C5    H25   S    
C1    H16   S    
C22   H35   S    
C10   P6    S    
C18   C19   A    
Ba2   O6    S    
Ba1   O1    S    
S1    O26   D    
Ba1   O23   S    
C39   H9    S    
O18   P6    S    
C38   H7    S    
Ba1   O13   S    
C37   H6    S    
