data_mof_unit_22730.cif
_audit_creation_date              2013-03-05T15:45:30-0500
_audit_creation_method            fapswitch 2.2
_symmetry_space_group_name_H-M    P1
_symmetry_Int_Tables_number       1
_space_group_crystal_system       triclinic
_cell_length_a                    10.819234
_cell_length_b                    11.028261
_cell_length_c                    18.825748
_cell_angle_alpha                 90.492155
_cell_angle_beta                  90.295173
_cell_angle_gamma                 60.608574
_cell_volume                      1957.04531992

loop_
_atom_site_label
_atom_site_type_symbol
_atom_site_description
_atom_site_fract_x
_atom_site_fract_y
_atom_site_fract_z
_atom_type_partial_charge
O1    O     O_R   0.507430 0.255570 0.581420 -0.481712
O2    O     O_R   0.280190 0.527390 0.578910 -0.449438
C1    C     C_R   0.232273 0.648204 0.609010 0.576171
O3    O     O_R   0.260310 0.739740 0.584580 -0.458175
O4    O     O_R   0.532250 0.695150 0.573830 -0.492312
C2    C     C_R   0.626985 0.586131 0.608519 0.540821
O5    O     O_R   0.744930 0.503430 0.576380 -0.504807
O6    O     O_R   0.699250 0.276390 0.571950 -0.510512
C3    C     C_R   0.631510 0.224442 0.601326 0.545034
O7    O     O_R   0.499020 0.256400 0.419850 -0.527502
O8    O     O_R   0.272400 0.528160 0.429140 -0.504653
C4    C     C_R   0.220158 0.649053 0.402000 0.544465
O9    O     O_R   0.251910 0.740570 0.423020 -0.519576
O10   O     O_R   0.524460 0.695920 0.424060 -0.500751
C5    C     C_R   0.641117 0.622112 0.392106 0.549117
O11   O     O_R   0.736530 0.504260 0.414810 -0.503743
O12   O     O_R   0.691460 0.277160 0.422180 -0.496938
C6    C     C_R   0.619876 0.223445 0.396807 0.552733
Cr1   Cr    Cr6+3 0.392930 0.397900 0.502230 1.095775
Cr2   Cr    Cr6+3 0.398240 0.708600 0.501260 1.077508
Cr3   Cr    Cr6+3 0.708800 0.393470 0.496460 1.065737
O13   O     O_3   0.499990 0.499990 0.499980 -0.302033
C7    C     C_3   0.624312 0.781918 0.777261 -0.258816
H1    H     H_    0.523479 0.851789 0.804354 0.240402
C8    C     C_3   0.591114 0.764428 0.700325 -0.226426
H2    H     H_    0.474652 0.822733 0.691631 0.228258
H3    H     H_    0.640338 0.808222 0.664250 0.137424
H4    H     H_    0.911161 0.575226 0.788274 0.133627
H5    H     H_    0.859075 0.584364 0.673995 0.164829
C9    C     C_3   0.833292 0.537346 0.781997 0.102855
C10   C     C_3   0.584094 0.587682 0.812976 -0.221538
C11   C     C_3   0.689384 0.645057 0.818815 0.005969
H6    H     H_    0.615749 0.493790 0.845458 0.195268
C12   C     C_3   0.647741 0.609324 0.684601 -0.022966
C13   C     C_3   0.808234 0.532676 0.702732 -0.189459
C14   C     C_3   0.569551 0.555902 0.733722 -0.257083
C15   C     C_R   0.778271 0.169257 0.711211 -0.093210
H7    H     H_    0.840347 0.213151 0.689980 0.196731
C16   C     C_R   0.790005 0.135614 0.782886 -0.134756
C17   C     C_R   0.697195 0.097255 0.813867 -0.020418
C18   C     C_R   0.588655 0.093198 0.769918 0.170731
C19   C     C_R   0.602768 0.097065 0.697023 -0.101428
C20   C     C_R   0.681776 0.152084 0.668477 -0.003132
C21   C     C_R   0.191092 0.557498 0.723220 0.102623
C22   C     C_R   0.201812 0.560100 0.797651 0.109447
C23   C     C_R   0.179571 0.680918 0.832658 -0.075799
C24   C     C_R   0.174544 0.792112 0.793103 0.098880
C25   C     C_R   0.156365 0.793757 0.719021 0.125543
C26   C     C_R   0.177023 0.671399 0.683090 -0.076177
C27   C     C_R   0.779111 0.632179 0.291470 -0.133143
H8    H     H_    0.871657 0.597901 0.325176 0.131952
C28   C     C_R   0.790426 0.646084 0.219301 -0.122239
C29   C     C_R   0.673924 0.683326 0.173852 0.051186
C30   C     C_R   0.542738 0.713229 0.201667 -0.082719
H9    H     H_    0.452048 0.742332 0.167246 0.151144
C31   C     C_R   0.530135 0.702585 0.274684 -0.112270
C32   C     C_R   0.649382 0.659188 0.319361 0.026327
C33   C     C_R   0.557033 0.121761 0.297228 -0.107864
H10   H     H_    0.462453 0.138774 0.325200 0.171290
C34   C     C_R   0.564548 0.092295 0.225571 0.195080
C35   C     C_R   0.685971 0.071812 0.187439 -0.002726
C36   C     C_R   0.795378 0.081898 0.223227 -0.165869
H11   H     H_    0.888227 0.068738 0.195343 0.155317
C37   C     C_R   0.781084 0.121166 0.294076 -0.148172
H12   H     H_    0.861116 0.139239 0.319017 0.145628
C38   C     C_R   0.658991 0.146320 0.330401 -0.011766
C39   C     C_R   0.127811 0.792075 0.298395 -0.144191
C40   C     C_R   0.128022 0.795250 0.226235 -0.142813
H13   H     H_    0.116373 0.889029 0.202156 0.154602
C41   C     C_R   0.135912 0.683621 0.186342 0.017553
C42   C     C_R   0.156322 0.562852 0.220066 -0.135740
H14   H     H_    0.160197 0.477068 0.189942 0.190432
C43   C     C_R   0.169092 0.554669 0.293482 -0.133404
C44   C     C_R   0.158131 0.668957 0.332455 0.018600
O14   O     O_R   0.089490 0.825610 0.930610 -0.458329
O15   O     O_R   0.818370 0.054540 0.929880 -0.468097
C45   C     C_R   0.721887 0.049666 0.888085 0.531476
O16   O     O_R   0.605870 0.077310 0.915530 -0.419131
O17   O     O_R   0.646440 0.806700 0.917570 -0.513828
C46   C     C_R   0.716430 0.679977 0.892280 0.536909
O18   O     O_R   0.837200 0.593290 0.915250 -0.444244
O19   O     O_R   0.065330 0.635370 0.931590 -0.456583
C47   C     C_R   0.118253 0.708690 0.905180 0.578851
O20   O     O_R   0.068300 0.828790 0.091860 -0.528986
O21   O     O_R   0.798730 0.057480 0.079370 -0.500680
C48   C     C_R   0.701005 0.042143 0.111331 0.555422
O22   O     O_R   0.584680 0.080480 0.076790 -0.421440
O23   O     O_R   0.626790 0.809640 0.067050 -0.471863
C49   C     C_R   0.697419 0.691985 0.098597 0.536637
O24   O     O_R   0.816010 0.596460 0.076500 -0.507103
O25   O     O_R   0.045680 0.638310 0.081070 -0.503128
C50   C     C_R   0.091807 0.711257 0.113185 0.535879
Cr4   Cr    Cr6+3 0.937620 0.938540 0.007640 1.107851
Cr5   Cr    Cr6+3 0.625150 0.937450 0.994520 1.165577
Cr6   Cr    Cr6+3 0.937990 0.625080 0.001190 1.128709
O26   O     O_3   0.833590 0.833690 0.001120 -0.351785
H15   H     H_    0.698132 0.824918 0.778711 0.093291
H16   H     H_    0.613836 0.442426 0.726153 0.132155
N1    N     N_R   0.899296 0.394111 0.810397 0.091195
O27   O     O_R   0.859224 0.364238 0.869680 -0.313915
O28   O     O_R   0.010102 0.295867 0.778493 -0.197685
H17   H     H_    0.859099 0.423061 0.683740 0.204635
H18   H     H_    0.865193 0.147672 0.815360 0.244525
N2    N     N_R   0.461228 0.090735 0.793742 0.094847
O29   O     O_R   0.396518 0.147817 0.852574 -0.149625
O30   O     O_R   0.387127 0.063681 0.747948 -0.266729
H19   H     H_    0.532956 0.079587 0.662233 0.198156
N3    N     N_R   0.197110 0.438517 0.688698 0.125899
O31   O     O_R   0.302908 0.315971 0.700744 -0.232309
O32   O     O_R   0.107130 0.453380 0.638877 -0.336905
N4    N     N_R   0.244310 0.437953 0.838865 0.137417
O33   O     O_R   0.346186 0.403199 0.884988 -0.295333
O34   O     O_R   0.157359 0.389674 0.846230 -0.180208
N5    N     N_R   0.192815 0.899714 0.827890 0.120857
O35   O     O_R   0.285448 0.869088 0.878600 -0.319831
O36   O     O_R   0.115910 0.029233 0.810572 -0.201604
N6    N     N_R   0.119125 0.918406 0.679670 0.121246
O37   O     O_R   0.204356 0.970080 0.678855 -0.233821
O38   O     O_R   0.019107 0.959825 0.632103 -0.348287
H20   H     H_    0.891300 0.625902 0.198333 0.138362
H21   H     H_    0.429427 0.721021 0.295794 0.142160
N7    N     N_R   0.440166 0.101853 0.192383 0.095515
O39   O     O_R   0.316196 0.206958 0.207157 -0.367447
O40   O     O_R   0.445956 0.995538 0.159386 -0.324789
H22   H     H_    0.118289 0.882046 0.326970 0.147562
H23   H     H_    0.193620 0.457843 0.319136 0.162340
H24   H     H_    0.479334 0.665030 0.833412 0.176493
H25   H     H_    0.455664 0.606138 0.719194 0.116942

loop_
_geom_bond_atom_site_label_1
_geom_bond_atom_site_label_2
_geom_bond_distance
_ccdc_geom_bond_type
C21   C26   1.413934 A    
C24   N5    1.446263 S    
O11   Cr3   2.083847 S    
C31   H21   1.082635 S    
C4    C44   1.436641 S    
C18   C19   1.384885 A    
Cr6   O26   2.004499 S    
C10   H24   1.100073 S    
C13   H17   1.110695 S    
N2    O30   1.303172 A    
N5    O35   1.301264 A    
C1    C26   1.489985 S    
O24   Cr6   2.070553 S    
O4    Cr2   1.939745 S    
C45   O16   1.250533 A    
C31   C32   1.410914 A    
O8    Cr1   1.958114 S    
C15   H7    1.081828 S    
C9    C13   1.520238 S    
O7    C6    1.251680 A    
N6    O38   1.301309 A    
O4    C2    1.311315 A    
O18   Cr6   2.068073 S    
C23   C47   1.483448 S    
C33   C34   1.378275 A    
C5    O11   1.275003 A    
O22   Cr5   2.089424 S    
N3    O31   1.293171 A    
C12   C13   1.550578 S    
C43   C44   1.406856 A    
C36   C37   1.384506 A    
C23   C24   1.418107 A    
O21   Cr4   1.964152 S    
C33   C38   1.401234 A    
N4    O33   1.302672 A    
C29   C30   1.393812 A    
C40   H13   1.081909 S    
C27   C28   1.381353 A    
C7    H1    1.103581 S    
C10   H6    1.106356 S    
C41   C42   1.396468 A    
C19   H19   1.082697 S    
C10   C14   1.554496 S    
C8    C12   1.534078 S    
Cr3   O13   1.970654 S    
C5    C32   1.448236 S    
C14   H25   1.108632 S    
N2    O29   1.294812 A    
O12   C6    1.273016 A    
O23   Cr5   1.964622 S    
C21   N3    1.431877 S    
C30   C31   1.393658 A    
C3    C20   1.454286 S    
O1    Cr1   2.081712 S    
C39   C40   1.359260 A    
C24   C25   1.406473 A    
O10   Cr2   1.956058 S    
Cr1   O13   1.972924 S    
O1    C3    1.266945 A    
O15   C45   1.325719 A    
O17   Cr5   1.967831 S    
O25   C50   1.282333 A    
C42   C43   1.387599 A    
C48   O22   1.288230 A    
O6    C3    1.262108 A    
C27   H8    1.083580 S    
C8    H2    1.110111 S    
O21   C48   1.300919 A    
C9    N1    1.481351 S    
O12   Cr3   1.959245 S    
C2    C12   1.487984 S    
C34   C35   1.416977 A    
C37   C38   1.391374 A    
C15   C20   1.398510 A    
C34   N7    1.437240 S    
C36   H11   1.080178 S    
O15   Cr4   1.958770 S    
C11   C46   1.498014 S    
N1    O27   1.301358 A    
O7    Cr1   2.092001 S    
O6    Cr3   1.965075 S    
N4    O34   1.296904 A    
C39   C44   1.392099 A    
C4    O9    1.274875 A    
Cr5   O26   1.969062 S    
C2    O5    1.297069 A    
C28   H20   1.077477 S    
C17   C18   1.451374 A    
N1    O28   1.301222 A    
Cr2   O13   2.004663 S    
Cr4   O26   1.972944 S    
C29   C49   1.452849 S    
C6    C38   1.448871 S    
C19   C20   1.380977 A    
N7    O40   1.296266 A    
C1    O3    1.277726 A    
C16   C17   1.398066 A    
C28   C29   1.405809 A    
O14   Cr4   2.082966 S    
C30   H9    1.083305 S    
C25   C26   1.420639 A    
O19   Cr6   1.949980 S    
O9    Cr2   2.058464 S    
C7    H15   1.111226 S    
O2    Cr1   1.970785 S    
C17   C45   1.473142 S    
C27   C32   1.388876 A    
C10   C11   1.554076 S    
C41   C50   1.440515 S    
C21   C22   1.406632 A    
C46   O18   1.258336 A    
N5    O36   1.295185 A    
O8    C4    1.275582 A    
C22   N4    1.426298 S    
C16   H18   1.073696 S    
C25   N6    1.439311 S    
C8    H3    1.113523 S    
H5    C13   1.111896 S    
C18   N2    1.464910 S    
C7    C11   1.535358 S    
C39   H22   1.084227 S    
O2    C1    1.295044 A    
C33   H10   1.083997 S    
C42   H14   1.081876 S    
C15   C16   1.391077 A    
O5    Cr3   2.077241 S    
N6    O37   1.300547 A    
C37   H12   1.083304 S    
C9    C11   1.580259 S    
O14   C47   1.259254 A    
O16   Cr5   2.086686 S    
H4    C9    1.114371 S    
N3    O32   1.300357 A    
C12   C14   1.557088 S    
O20   Cr4   2.075561 S    
C7    C8    1.523778 S    
C35   C36   1.409681 A    
C35   C48   1.458940 S    
O25   Cr6   1.945572 S    
O17   C46   1.306421 A    
O3    Cr2   2.077767 S    
C22   C23   1.392625 A    
O23   C49   1.286685 A    
C40   C41   1.403017 A    
O19   C47   1.301214 A    
N7    O39   1.300850 A    
O10   C5    1.268246 A    
C14   H16   1.106832 S    
O20   C50   1.261053 A    
C49   O24   1.265049 A    
C43   H23   1.083200 S    
