data_mof_unit_15675.cif
_audit_creation_date              2012-12-10T22:11:16-0500
_audit_creation_method            fapswitch 2.2
_symmetry_space_group_name_H-M    P1
_symmetry_Int_Tables_number       1
_space_group_crystal_system       triclinic
_cell_length_a                    12.197801
_cell_length_b                    12.384746
_cell_length_c                    22.939728
_cell_angle_alpha                 90.892111
_cell_angle_beta                  90.307953
_cell_angle_gamma                 91.170409
_cell_volume                      3464.22910387

loop_
_atom_site_label
_atom_site_type_symbol
_atom_type_description
_atom_site_fract_x
_atom_site_fract_y
_atom_site_fract_z
_atom_type_partial_charge
C1    C     C_R   0.654940 0.998196 0.579705 0.869025
C2    C     C_R   0.343907 0.001654 0.420836 0.867189
C3    C     C_R   0.919809 0.757058 0.156426 -0.218934
C4    C     C_R   0.078730 0.243929 0.842777 -0.211987
C5    C     C_R   0.088661 0.917836 0.154685 0.106350
C6    C     C_R   0.912164 0.080769 0.845676 0.107252
C7    C     C_R   0.076876 0.840532 0.107981 0.079507
C8    C     C_R   0.923729 0.158684 0.892191 0.079610
C9    C     C_R   0.909444 0.117041 0.163740 0.269998
C10   C     C_R   0.089991 0.883978 0.836713 0.275167
C11   C     C_R   0.914729 0.199609 0.124665 -0.280411
C12   C     C_R   0.084238 0.801896 0.876160 -0.295264
C13   C     C_R   0.171553 0.931974 0.291656 -0.256271
C14   C     C_R   0.825280 0.065398 0.710060 -0.230273
C15   C     C_R   0.251518 0.925777 0.334048 -0.200218
C16   C     C_R   0.743684 0.070731 0.668410 -0.197736
C17   C     C_R   0.810685 0.074833 0.286852 -0.150605
C18   C     C_R   0.189325 0.925174 0.713346 -0.154679
C19   C     C_R   0.723066 0.073263 0.325284 0.095260
C20   C     C_R   0.276861 0.925969 0.674908 0.096603
C21   C     C_3   0.996546 0.009704 0.247433 -0.050760
C22   C     C_3   0.003169 0.989910 0.752333 -0.051256
C23   C     C_R   0.649824 0.001690 0.418799 0.869193
C24   C     C_R   0.351431 0.998536 0.581800 0.868228
C25   C     C_R   0.092739 0.015060 0.292224 0.063821
C26   C     C_R   0.906141 0.984189 0.708109 0.075416
C27   C     C_R   0.258212 0.004081 0.377594 -0.044680
C28   C     C_R   0.739055 0.994766 0.623652 -0.048226
C29   C     C_R   0.893761 0.996015 0.287147 0.084117
C30   C     C_R   0.105626 0.003491 0.712481 0.091688
C31   C     C_R   0.726836 0.000163 0.371337 -0.096935
C32   C     C_R   0.275604 0.001170 0.629904 -0.092580
C33   C     C_R   0.989988 0.111164 0.209040 0.021386
C34   C     C_R   0.010835 0.888387 0.790619 0.028352
C35   C     C_R   0.994070 0.281119 0.129627 -0.113548
C36   C     C_R   0.005947 0.719443 0.870702 -0.094024
C37   C     C_R   0.007028 0.916789 0.200887 0.058786
C38   C     C_R   0.992595 0.083022 0.798836 0.062905
C39   C     C_R   0.995024 0.757891 0.111979 -0.081311
C40   C     C_R   0.004827 0.242045 0.887843 -0.069158
C41   C     C_R   0.993464 0.664683 0.073109 0.858472
C42   C     C_R   0.006515 0.335240 0.926869 0.859438
C43   C     C_R   0.998202 0.357570 0.082900 0.860353
C44   C     C_R   0.001743 0.642571 0.917164 0.870315
C45   C     C_R   0.099834 0.094365 0.339047 0.139086
C46   C     C_R   0.899559 0.906143 0.660658 0.129348
C47   C     C_R   0.185105 0.088362 0.379296 -0.234636
C48   C     C_R   0.813517 0.911799 0.620953 -0.251543
C49   C     C_R   0.885002 0.912342 0.329997 0.113688
C50   C     C_R   0.114958 0.087384 0.669834 0.107673
C51   C     C_R   0.806194 0.921408 0.373070 -0.271058
C52   C     C_R   0.199942 0.083646 0.629991 -0.276638
C53   C     C_R   0.068831 0.196797 0.213859 -0.251863
C54   C     C_R   0.934924 0.800639 0.784556 -0.275044
C55   C     C_R   0.066969 0.285918 0.177291 0.108889
C56   C     C_R   0.935612 0.713172 0.822027 0.116674
C57   C     C_R   0.923417 0.836050 0.198463 -0.128855
C58   C     C_R   0.074695 0.165379 0.800435 -0.155647
H1    H     H_    0.194051 0.149997 0.413178 0.153420
H2    H     H_    0.805631 0.851461 0.586336 0.158474
H3    H     H_    0.134885 0.194127 0.244889 0.153629
H4    H     H_    0.871261 0.799966 0.751961 0.150896
H5    H     H_    0.855167 0.833781 0.227871 0.182889
H6    H     H_    0.141641 0.169443 0.770212 0.178215
H7    H     H_    0.171166 0.867949 0.259206 0.146647
H8    H     H_    0.825609 0.129069 0.742687 0.142729
H9    H     H_    0.814613 0.143046 0.258614 0.152014
H10   H     H_    0.185824 0.857272 0.741868 0.152232
H11   H     H_    0.806950 0.866007 0.409188 0.162565
H12   H     H_    0.205850 0.145570 0.597224 0.169919
H13   H     H_    0.856390 0.694576 0.158609 0.163821
H14   H     H_    0.141135 0.307319 0.840176 0.159256
H15   H     H_    0.856648 0.198674 0.088917 0.194342
H16   H     H_    0.141156 0.803812 0.912425 0.193711
H17   H     H_    0.309356 0.860548 0.332191 0.155996
H18   H     H_    0.684455 0.134642 0.671063 0.151005
O1    O     O_R   0.621380 0.090460 0.561410 -0.622124
O2    O     O_R   0.378620 0.909540 0.438590 -0.623046
O3    O     O_R   0.617150 0.909540 0.438590 -0.626349
O4    O     O_R   0.382850 0.090460 0.561410 -0.628692
O5    O     O_R   0.619720 0.093230 0.440890 -0.631250
O6    O     O_R   0.380280 0.906770 0.559110 -0.631376
O7    O     O_R   0.618800 0.906770 0.559110 -0.638062
O8    O     O_R   0.381200 0.093230 0.440890 -0.636789
O9    O     O_R   0.087590 0.627480 0.058790 -0.631857
O10   O     O_R   0.912410 0.372520 0.941210 -0.626671
O11   O     O_R   0.905660 0.383870 0.059980 -0.636464
O12   O     O_R   0.094340 0.616130 0.940020 -0.641542
O13   O     O_R   0.092570 0.390420 0.063230 -0.625927
O14   O     O_R   0.907430 0.609580 0.936770 -0.623794
O15   O     O_R   0.900680 0.620930 0.055550 -0.611861
O16   O     O_R   0.099320 0.379070 0.944450 -0.613379
Zn1   Zn    Zn3+2 0.501730 0.123520 0.501540 0.926028
Zn2   Zn    Zn3+2 0.498270 0.876480 0.498460 0.926090
Zn3   Zn    Zn3+2 0.125690 0.504390 0.002180 0.925687
Zn4   Zn    Zn3+2 0.874310 0.495610 0.997820 0.926926
C59   C     C_3   0.957240 0.813544 0.334260 -0.431386
C60   C     C_3   0.889598 0.706981 0.336496 -0.351290
C61   C     C_3   0.960377 0.609225 0.324064 -0.903884
H19   H     H_    0.910714 0.533853 0.329225 0.249740
H20   H     H_    0.990937 0.611814 0.278597 0.269397
H21   H     H_    0.030981 0.608101 0.354820 0.269316
H22   H     H_    0.852846 0.697250 0.380331 0.220775
H23   H     H_    0.821958 0.707359 0.303853 0.227060
H24   H     H_    0.012077 0.805871 0.297029 0.224797
H25   H     H_    0.009241 0.821493 0.374115 0.209740
C62   C     C_3   0.042761 0.185998 0.664917 -0.433304
C63   C     C_3   0.979832 0.188773 0.606613 -0.316741
C64   C     C_3   0.901058 0.282969 0.605457 -0.866597
H26   H     H_    0.842024 0.277834 0.642015 0.264190
H27   H     H_    0.947502 0.360905 0.609008 0.254085
H28   H     H_    0.854331 0.280862 0.563792 0.250323
H29   H     H_    0.037484 0.198197 0.569683 0.201265
H30   H     H_    0.933321 0.112028 0.599282 0.244474
H31   H     H_    0.985031 0.194082 0.701016 0.211388
H32   H     H_    0.096404 0.259579 0.668393 0.192023
C65   C     C_3   0.193926 0.988893 0.158998 -0.426721
C66   C     C_3   0.213326 0.074177 0.111510 -0.317512
C67   C     C_3   0.303063 0.155685 0.129902 -0.898276
H33   H     H_    0.286346 0.190852 0.173504 0.260971
H34   H     H_    0.383478 0.115239 0.131637 0.270392
H35   H     H_    0.308167 0.221741 0.097781 0.259348
H36   H     H_    0.244740 0.038831 0.070805 0.230681
H37   H     H_    0.136307 0.116161 0.101677 0.241918
H38   H     H_    0.197553 0.033665 0.200210 0.227227
H39   H     H_    0.265569 0.935886 0.162277 0.182821
C68   C     C_3   0.808603 0.006695 0.842438 -0.426916
C69   C     C_3   0.792536 0.922633 0.890928 -0.315263
C70   C     C_3   0.707052 0.835847 0.873709 -0.892007
H40   H     H_    0.624804 0.872428 0.871029 0.265909
H41   H     H_    0.725743 0.798016 0.830999 0.261480
H42   H     H_    0.704690 0.771992 0.907163 0.260777
H43   H     H_    0.871455 0.885087 0.901787 0.239954
H44   H     H_    0.758527 0.958693 0.930864 0.229550
H45   H     H_    0.735405 0.057592 0.839129 0.181351
H46   H     H_    0.805191 0.960617 0.801567 0.227882
Br1   Br    Br    0.786205 0.019613 0.149646 -0.631039
Br2   Br    Br    0.212088 0.982641 0.851047 -0.625528
C71   C     C_3   0.144392 0.382698 0.188044 -0.389201
C72   C     C_3   0.156614 0.415284 0.252723 -0.385982
C73   C     C_3   0.219552 0.522610 0.259959 -0.887087
H47   H     H_    0.303445 0.515653 0.241856 0.264589
H48   H     H_    0.176357 0.588050 0.237223 0.257770
H49   H     H_    0.226311 0.544483 0.306985 0.251993
H50   H     H_    0.074242 0.422662 0.272657 0.234127
H51   H     H_    0.202815 0.353278 0.276498 0.219426
H52   H     H_    0.226259 0.365368 0.169799 0.208753
H53   H     H_    0.112921 0.454284 0.165261 0.212812
C74   C     C_3   0.861546 0.615559 0.808573 -0.428312
C75   C     C_3   0.928842 0.516419 0.791689 -0.319378
C76   C     C_3   0.854969 0.417585 0.779361 -0.893166
H54   H     H_    0.808476 0.395553 0.819111 0.266749
H55   H     H_    0.796550 0.433986 0.743403 0.257254
H56   H     H_    0.905854 0.348113 0.766201 0.247118
H57   H     H_    0.977455 0.534406 0.751997 0.215742
H58   H     H_    0.986795 0.496631 0.827258 0.212647
H59   H     H_    0.807540 0.597728 0.846063 0.229614
H60   H     H_    0.805562 0.632634 0.771551 0.189063
C77   C     C_3   0.142745 0.848567 0.051353 -0.366018
C78   C     C_3   0.261945 0.809963 0.057216 -0.328419
C79   C     C_3   0.313691 0.787422 0.997986 -0.853849
H61   H     H_    0.271754 0.717638 0.976013 0.279859
H62   H     H_    0.309069 0.859742 0.970109 0.283465
H63   H     H_    0.401297 0.767345 0.004033 0.243176
H64   H     H_    0.314843 0.871460 0.079265 0.216320
H65   H     H_    0.264416 0.735354 0.083405 0.236523
H66   H     H_    0.101675 0.801291 0.015858 0.202905
H67   H     H_    0.136766 0.929799 0.032864 0.179054
C80   C     C_3   0.858055 0.150991 0.948892 -0.368646
C81   C     C_3   0.738557 0.188473 0.942721 -0.328924
C82   C     C_3   0.686594 0.212180 0.001763 -0.852657
H68   H     H_    0.691606 0.140604 0.030163 0.283697
H69   H     H_    0.728096 0.282734 0.023244 0.279219
H70   H     H_    0.598867 0.231586 0.995518 0.243269
H71   H     H_    0.735556 0.262376 0.915968 0.233279
H72   H     H_    0.686238 0.125940 0.921134 0.216205
H73   H     H_    0.864806 0.070255 0.967848 0.179163
H74   H     H_    0.898603 0.199112 0.984228 0.203716
C83   C     C_3   0.631768 0.154571 0.318082 -0.430114
C84   C     C_3   0.585827 0.157829 0.255615 -0.317966
C85   C     C_3   0.489644 0.234551 0.252086 -0.910718
H75   H     H_    0.417507 0.200654 0.275457 0.264115
H76   H     H_    0.512491 0.314738 0.271403 0.265423
H77   H     H_    0.467315 0.246410 0.205778 0.259770
H78   H     H_    0.649706 0.187018 0.225066 0.246859
H79   H     H_    0.557930 0.075559 0.241277 0.247740
H80   H     H_    0.561064 0.135410 0.346427 0.229906
H81   H     H_    0.664017 0.236113 0.330722 0.197982
C86   C     C_3   0.367133 0.843788 0.682466 -0.438268
C87   C     C_3   0.417546 0.847100 0.744002 -0.312997
C88   C     C_3   0.512827 0.769455 0.748178 -0.914860
H82   H     H_    0.487185 0.687395 0.732496 0.264168
H83   H     H_    0.583265 0.798953 0.721868 0.265178
H84   H     H_    0.539101 0.763407 0.794268 0.258721
H85   H     H_    0.447682 0.930361 0.754929 0.244057
H86   H     H_    0.355395 0.822877 0.776727 0.249280
H87   H     H_    0.332469 0.761633 0.673355 0.195358
H88   H     H_    0.435847 0.857719 0.652067 0.232595
C89   C     C_3   0.026098 0.191071 0.347973 -0.457489
C90   C     C_3   0.962808 0.186250 0.405723 -0.321067
C91   C     C_3   0.888545 0.283147 0.412920 -0.878690
H89   H     H_    0.938656 0.358890 0.416542 0.256961
H90   H     H_    0.832136 0.288711 0.375081 0.256553
H91   H     H_    0.839008 0.274318 0.453075 0.254285
H92   H     H_    0.912600 0.111030 0.407154 0.237809
H93   H     H_    0.020131 0.186047 0.443474 0.207035
H94   H     H_    0.078614 0.265498 0.348703 0.191204
H95   H     H_    0.967935 0.202014 0.312129 0.215936
C92   C     C_3   0.975393 0.811615 0.649978 -0.447571
C93   C     C_3   0.037614 0.821548 0.592057 -0.330186
C94   C     C_3   0.113704 0.726794 0.582411 -0.870781
H96   H     H_    0.172100 0.720756 0.619331 0.257595
H97   H     H_    0.065180 0.650143 0.578355 0.253095
H98   H     H_    0.160951 0.738701 0.541687 0.257676
H99   H     H_    0.979579 0.823162 0.554658 0.208448
H100  H     H_    0.086209 0.897903 0.591820 0.237504
H101  H     H_    0.034149 0.799843 0.685447 0.214743
H102  H     H_    0.924578 0.735961 0.648411 0.195512

loop_
_geom_bond_atom_site_label_1
_geom_bond_atom_site_label_2
_ccdc_geom_bond_type
C86   H88   S    
C16   C28   A    
C15   H17   S    
C82   H68   S    
C90   H92   S    
O6    Zn2   S    
C5    C37   A    
C93   C94   S    
C17   C29   A    
C80   C81   S    
C2    O8    A    
C19   C31   A    
C69   C70   S    
C24   C32   S    
C79   H61   S    
C39   C41   S    
C29   C49   A    
C85   H75   S    
C77   H67   S    
C82   H69   S    
C71   H52   S    
C43   O13   A    
C2    O2    A    
C92   H102  S    
C68   H45   S    
C6    C68   S    
C12   H16   S    
C64   H27   S    
C77   C78   S    
C20   C32   A    
C1    O1    A    
C93   H100  S    
C67   H35   S    
C83   H80   S    
C81   C82   S    
C25   C45   A    
C18   H10   S    
C60   H22   S    
C22   C38   S    
C59   C60   S    
C55   C71   S    
C63   C64   S    
C91   H89   S    
C76   H56   S    
C63   H30   S    
C24   O6    A    
C66   C67   S    
C32   C52   A    
O15   Zn4   S    
C38   C58   A    
C9    Br1   S    
C11   C35   A    
C24   O4    A    
C4    C40   A    
C90   C91   S    
C49   C51   A    
C1    C28   S    
C50   C52   A    
C62   C63   S    
C6    C38   A    
C48   H2    S    
C2    C27   S    
C42   O10   A    
C78   H65   S    
C12   C36   A    
C35   C43   S    
C65   H39   S    
C64   H26   S    
C18   C20   A    
C7    C77   S    
C87   H86   S    
C66   H36   S    
C70   H42   S    
C59   H24   S    
C10   Br2   S    
C53   C55   A    
C30   C50   A    
O12   Zn3   S    
C3    C39   A    
C89   C90   S    
C75   H58   S    
C9    C33   A    
C91   H90   S    
C13   C25   A    
C53   H3    S    
C80   H73   S    
C79   H62   S    
C57   H5    S    
C46   C48   A    
C81   H71   S    
C45   C47   A    
C33   C53   A    
C22   C34   S    
C82   H70   S    
C54   C56   A    
C71   H53   S    
C17   H9    S    
C47   H1    S    
C35   C55   A    
C88   H82   S    
C72   C73   S    
O3    Zn2   S    
C11   H15   S    
C85   H76   S    
C72   H51   S    
C20   C86   S    
C5    C7    A    
C41   O9    A    
C81   H72   S    
C83   H81   S    
C54   H4    S    
C58   H6    S    
O7    Zn2   S    
C21   C29   S    
O16   Zn3   S    
C14   C26   A    
C64   H28   S    
C5    C65   S    
C23   C31   S    
C63   H29   S    
O13   Zn3   S    
C3    H13   S    
C88   H83   S    
C94   H96   S    
C69   H43   S    
C36   C56   A    
C69   H44   S    
O5    Zn1   S    
C15   C27   A    
C61   H19   S    
O10   Zn4   S    
C76   H54   S    
O11   Zn4   S    
C61   H21   S    
C89   H94   S    
C92   C93   S    
C14   H8    S    
C21   C37   S    
C10   C34   A    
C66   H37   S    
C78   H64   S    
C68   H46   S    
C67   H33   S    
C9    C11   A    
C62   H31   S    
C67   H34   S    
C10   C12   A    
C87   H85   S    
C18   C30   A    
C59   H25   S    
C3    C57   A    
C27   C47   A    
C41   O15   A    
C34   C54   A    
C75   H57   S    
C13   C15   A    
C50   C62   S    
C91   H91   S    
C14   C16   A    
C36   C44   S    
C1    O7    A    
C68   C69   S    
C19   C83   S    
C80   H74   S    
C4    H14   S    
C79   H63   S    
C44   O14   A    
C8    C80   S    
O1    Zn1   S    
C70   H40   S    
C74   H60   S    
C85   H77   S    
C86   H87   S    
C94   H97   S    
C21   C25   S    
C28   C48   A    
C90   H93   S    
C22   C30   S    
C61   H20   S    
C16   H18   S    
C23   O5    A    
C31   C51   A    
C72   H50   S    
C6    C8    A    
C71   C72   S    
O14   Zn4   S    
C73   H49   S    
C45   C89   S    
C46   C92   S    
C51   H11   S    
C65   C66   S    
C84   H79   S    
C43   O11   A    
C78   C79   S    
C73   H48   S    
C56   C74   S    
C88   H84   S    
C92   H101  S    
C44   O12   A    
C74   C75   S    
O9    Zn3   S    
C65   H38   S    
O2    Zn2   S    
C60   H23   S    
C40   C42   S    
C89   H95   S    
C17   C19   A    
C77   H66   S    
C42   O16   A    
O8    Zn1   S    
C76   H55   S    
C86   C87   S    
C13   H7    S    
C62   H32   S    
C87   C88   S    
C52   H12   S    
C84   H78   S    
C26   C46   A    
C49   C59   S    
C83   C84   S    
C94   H98   S    
C21   C33   S    
C60   C61   S    
C22   C26   S    
C4    C58   A    
C7    C39   A    
C75   C76   S    
C8    C40   A    
C23   O3    A    
O4    Zn1   S    
C73   H47   S    
C74   H59   S    
C37   C57   A    
C84   C85   S    
C93   H99   S    
C70   H41   S    
