data_mof_unit_15116.cif
_audit_creation_date              2012-12-10T19:49:41-0500
_audit_creation_method            fapswitch 2.2
_symmetry_space_group_name_H-M    P1
_symmetry_Int_Tables_number       1
_space_group_crystal_system       triclinic
_cell_length_a                    10.869245
_cell_length_b                    16.134238
_cell_length_c                    17.270157
_cell_angle_alpha                 96.819496
_cell_angle_beta                  93.806756
_cell_angle_gamma                 92.126222
_cell_volume                      2997.45887354

loop_
_atom_site_label
_atom_site_type_symbol
_atom_type_description
_atom_site_fract_x
_atom_site_fract_y
_atom_site_fract_z
_atom_type_partial_charge
C1    C     C_R   0.501951 0.488896 0.350100 0.799605
C2    C     C_R   0.497651 0.511081 0.649894 0.824789
C3    C     C_R   0.871142 0.498280 0.499628 -0.132485
C4    C     C_R   0.128882 0.501781 0.499034 -0.118569
C5    C     C_R   0.939397 0.443317 0.542008 -0.054660
C6    C     C_R   0.060788 0.556595 0.456831 -0.037775
C7    C     C_R   0.501557 0.482379 0.265422 0.009071
C8    C     C_R   0.496482 0.517368 0.734538 0.007398
C9    C     C_R   0.424099 0.533100 0.226025 -0.271197
C10   C     C_R   0.570240 0.464647 0.774114 -0.273338
C11   C     C_R   0.415923 0.526015 0.145101 -0.114758
C12   C     C_R   0.576906 0.471257 0.854998 -0.115428
C13   C     C_R   0.488351 0.469561 0.102701 0.136751
C14   C     C_R   0.506003 0.528925 0.897207 0.136707
C15   C     C_R   0.568236 0.419617 0.141711 -0.199017
C16   C     C_R   0.429203 0.580557 0.857963 -0.204809
C17   C     C_R   0.575961 0.426073 0.223409 0.191653
C18   C     C_R   0.423274 0.574739 0.776309 0.196078
C19   C     C_2   0.483177 0.464877 0.017194 0.092777
C20   C     C_2   0.510185 0.533585 0.982743 0.094760
C21   C     C_R   0.460432 0.737968 0.444758 -0.004051
C22   C     C_R   0.539630 0.262097 0.555243 0.013616
C23   C     C_R   0.262708 0.500579 0.498508 0.851334
C24   C     C_R   0.737318 0.499464 0.500865 0.815882
C25   C     C_R   0.447705 0.821984 0.438268 -0.310112
C26   C     C_R   0.552330 0.178131 0.561758 -0.299734
C27   C     C_R   0.478953 0.881380 0.502081 -0.038599
C28   C     C_R   0.521456 0.118689 0.497886 -0.024671
C29   C     C_R   0.526151 0.855200 0.573074 0.201956
C30   C     C_R   0.474372 0.144829 0.426843 0.196598
C31   C     C_R   0.557137 0.769639 0.573288 0.466752
C32   C     C_R   0.443270 0.230373 0.426610 0.464468
C33   C     C_2   0.455751 0.969557 0.491974 -0.009378
C34   C     C_2   0.544378 0.030482 0.508038 0.007526
C35   C     C_R   0.146840 0.769348 0.402728 0.214724
C36   C     C_R   0.859938 0.237472 0.611941 0.168023
C37   C     C_R   0.121064 0.704693 0.447524 -0.145541
C38   C     C_R   0.878326 0.297422 0.561046 -0.148167
C39   C     C_R   0.118867 0.620766 0.414745 0.128231
C40   C     C_R   0.881120 0.382994 0.588360 0.087182
C41   C     C_R   0.144594 0.601226 0.336560 -0.176650
C42   C     C_R   0.857588 0.408414 0.666116 -0.215251
C43   C     C_R   0.170346 0.665119 0.291260 -0.246956
C44   C     C_R   0.836886 0.348916 0.716952 -0.227231
C45   C     C_R   0.171695 0.749224 0.323557 0.165129
C46   C     C_R   0.838311 0.263112 0.690651 0.169828
C47   C     C_R   0.932186 0.553222 0.455471 0.119001
C48   C     C_R   0.068702 0.446610 0.542648 0.119604
Cu1   Cu    Cu3+1 0.493640 0.415410 0.495980 1.027491
Cu2   Cu    Cu3+1 0.506360 0.584590 0.504020 1.006422
H1    H     H_    0.626476 0.377269 0.109048 0.133244
H2    H     H_    0.371904 0.623798 0.890368 0.133480
H3    H     H_    0.636799 0.431080 0.884747 0.142563
H4    H     H_    0.353740 0.564877 0.115448 0.142321
H5    H     H_    0.423109 0.693870 0.396522 0.173907
H6    H     H_    0.576757 0.306185 0.603553 0.170551
H7    H     H_    0.634052 0.016140 0.533229 0.167641
H8    H     H_    0.366073 0.983730 0.466585 0.163425
H9    H     H_    0.590328 0.159758 0.616335 0.182224
H10   H     H_    0.408254 0.840512 0.384064 0.207365
H11   H     H_    0.096485 0.720028 0.507182 0.159122
H12   H     H_    0.900768 0.277401 0.501700 0.171043
H13   H     H_    0.138809 0.536879 0.309740 0.139135
H14   H     H_    0.862795 0.474157 0.688555 0.145973
H15   H     H_    0.186414 0.649430 0.230157 0.147042
H16   H     H_    0.823538 0.369881 0.777601 0.143571
H17   H     H_    0.369168 0.577545 0.258236 0.151049
H18   H     H_    0.623293 0.418817 0.742077 0.155791
N1    N     N_R   0.515930 0.711660 0.510070 -0.239441
N2    N     N_R   0.484070 0.288340 0.489930 -0.238120
O1    O     O_R   0.494030 0.420280 0.382610 -0.498625
O2    O     O_R   0.505970 0.579720 0.617390 -0.498086
O3    O     O_R   0.504770 0.563150 0.389400 -0.629806
O4    O     O_R   0.495230 0.436850 0.610600 -0.619806
O5    O     O_R   0.314270 0.428570 0.496610 -0.492761
O6    O     O_R   0.685730 0.571430 0.503390 -0.533416
O7    O     O_R   0.325020 0.571440 0.503400 -0.606461
O8    O     O_R   0.674980 0.428560 0.496600 -0.589238
N3    N     N_3   0.195753 0.813641 0.275515 -0.564282
H19   H     H_    0.281916 0.804283 0.253179 0.231180
H20   H     H_    0.129282 0.806713 0.228316 0.246643
N4    N     N_3   0.823207 0.202022 0.743791 -0.556530
H21   H     H_    0.738548 0.169658 0.727937 0.237144
H22   H     H_    0.817362 0.231423 0.800658 0.227245
S1    S     S_3+6 0.345179 0.257945 0.347067 0.074883
O9    O     O_2   0.422487 0.280377 0.283122 -0.289497
O10   O     O_2   0.259396 0.185005 0.315014 -0.204496
O11   O     O_3   0.256212 0.337796 0.372385 -0.526176
H23   H     H_    0.221800 0.354737 0.322333 0.349836
S2    S     S_3+6 0.655944 0.742160 0.652559 0.072620
O12   O     O_2   0.741569 0.815255 0.684412 -0.205015
O13   O     O_2   0.579343 0.719519 0.716748 -0.289124
O14   O     O_3   0.745150 0.662532 0.626979 -0.529115
H24   H     H_    0.781139 0.646283 0.676929 0.350258
S3    S     S_3+6 0.529246 0.926492 0.661212 0.049575
O15   O     O_2   0.431789 0.989610 0.655124 -0.305785
O16   O     O_2   0.653153 0.972279 0.675013 -0.239275
O17   O     O_3   0.503227 0.876830 0.739120 -0.416965
H25   H     H_    0.417719 0.852729 0.728784 0.341751
S4    S     S_3+6 0.471121 0.073422 0.338755 0.058205
O18   O     O_2   0.568278 0.010114 0.344930 -0.295232
O19   O     O_2   0.347044 0.027862 0.324953 -0.228644
O20   O     O_3   0.497466 0.122900 0.260784 -0.417646
H26   H     H_    0.583045 0.146874 0.271135 0.343887
N5    N     N_3   0.140577 0.854245 0.438065 -0.552853
H27   H     H_    0.165742 0.896569 0.400003 0.271829
H28   H     H_    0.205259 0.863596 0.486173 0.216262
N6    N     N_3   0.873070 0.151262 0.584152 -0.560407
H29   H     H_    0.946668 0.129651 0.617117 0.263011
H30   H     H_    0.793378 0.117346 0.594274 0.234253
N7    N     N_3   0.865213 0.604169 0.405652 -0.561034
H31   H     H_    0.826450 0.652863 0.439846 0.271491
H32   H     H_    0.796541 0.567507 0.370717 0.218993
N8    N     N_3   0.141106 0.397263 0.591240 -0.555211
H33   H     H_    0.121669 0.333899 0.572501 0.249674
H34   H     H_    0.118941 0.410753 0.649233 0.224877
N9    N     N_3   0.338855 0.623741 0.735889 -0.566568
H35   H     H_    0.356348 0.686565 0.757890 0.255068
H36   H     H_    0.249551 0.606941 0.749172 0.204775
N10   N     N_3   0.662898 0.378606 0.263595 -0.572542
H37   H     H_    0.646615 0.315479 0.242341 0.257472
H38   H     H_    0.751292 0.396272 0.249306 0.205583
N11   N     N_3   0.547909 0.611427 0.029129 -0.587901
H39   H     H_    0.634310 0.630394 0.012551 0.239440
H40   H     H_    0.485445 0.656275 0.015942 0.223725
N12   N     N_3   0.445040 0.387032 0.970968 -0.588077
H41   H     H_    0.507262 0.342088 0.984304 0.224128
H42   H     H_    0.358587 0.368334 0.987661 0.239903

loop_
_geom_bond_atom_site_label_1
_geom_bond_atom_site_label_2
_ccdc_geom_bond_type
C30   C32   A    
O14   H24   S    
C36   N6    S    
N6    H29   S    
C44   H16   S    
C19   C20   D    
C33   H8    S    
N8    H33   S    
S3    O17   S    
N11   H39   S    
C39   C41   A    
S1    O9    D    
C27   C33   S    
N5    H28   S    
C1    O1    A    
C35   C37   A    
Cu2   N1    S    
N9    H36   S    
N11   H40   S    
C27   C29   A    
C30   S4    S    
Cu1   O8    S    
C7    C9    A    
C3    C47   A    
Cu1   Cu2   S    
Cu2   O2    S    
C20   N11   S    
C17   N10   S    
C46   N4    S    
S2    O13   D    
N7    H32   S    
S3    O15   D    
C44   C46   A    
C7    C17   A    
C34   H7    S    
Cu1   O5    S    
C36   C46   A    
C25   H10   S    
C15   H1    S    
C26   H9    S    
C12   H3    S    
C2    O4    A    
C40   C42   A    
C28   C34   S    
Cu1   O4    S    
C29   C31   A    
C41   C43   A    
C3    C24   S    
C42   C44   A    
C2    O2    A    
N10   H38   S    
S1    O10   D    
C5    C48   A    
C6    C47   A    
C13   C19   S    
C14   C20   S    
C4    C6    A    
Cu2   O3    S    
C21   H5    S    
C4    C23   S    
C24   O6    A    
C22   H6    S    
S4    O20   S    
C8    C18   A    
C21   N1    A    
N8    H34   S    
C9    H17   S    
C35   N5    S    
Cu2   O6    S    
C43   C45   A    
C37   H11   S    
C43   H15   S    
C31   S2    S    
S4    O19   D    
C33   C34   D    
C45   N3    S    
C16   C18   A    
C23   O7    A    
C9    C11   A    
C18   N9    S    
C11   H4    S    
C10   C12   A    
C24   O8    A    
C12   C14   A    
N4    H21   S    
N4    H22   S    
Cu1   N2    S    
C13   C15   A    
Cu1   O1    S    
C14   C16   A    
C41   H13   S    
C35   C45   A    
Cu2   O7    S    
C42   H14   S    
N10   H37   S    
S2    O14   S    
C48   N8    S    
C4    C48   A    
S1    O11   S    
C15   C17   A    
C21   C25   A    
N12   H42   S    
N7    H31   S    
C1    C7    S    
C2    C8    S    
C16   H2    S    
C23   O5    A    
C3    C5    A    
C32   N2    A    
S3    O16   D    
C10   H18   S    
C25   C27   A    
N5    H27   S    
C19   N12   S    
C26   C28   A    
C1    O3    A    
C36   C38   A    
C37   C39   A    
N9    H35   S    
C38   C40   A    
C11   C13   A    
S2    O12   D    
N12   H41   S    
C47   N7    S    
C32   S1    S    
C28   C30   A    
S4    O18   D    
N6    H30   S    
N3    H20   S    
C29   S3    S    
N3    H19   S    
C31   N1    A    
O11   H23   S    
C8    C10   A    
O17   H25   S    
C22   C26   A    
C5    C40   S    
O20   H26   S    
C6    C39   S    
C22   N2    A    
C38   H12   S    
