data_mof_unit_12190.cif
_audit_creation_date              2012-12-10T17:36:36-0500
_audit_creation_method            fapswitch 2.2
_symmetry_space_group_name_H-M    P1
_symmetry_Int_Tables_number       1
_space_group_crystal_system       triclinic
_cell_length_a                    12.079255
_cell_length_b                    12.754822
_cell_length_c                    15.69891
_cell_angle_alpha                 91.506535
_cell_angle_beta                  87.239402
_cell_angle_gamma                 95.22293
_cell_volume                      2405.29021287

loop_
_atom_site_label
_atom_site_type_symbol
_atom_type_description
_atom_site_fract_x
_atom_site_fract_y
_atom_site_fract_z
_atom_type_partial_charge
C1    C     C_R   0.523705 0.700354 0.497770 0.950420
C2    C     C_R   0.543449 0.026473 0.473523 -0.070503
C3    C     C_R   0.947987 0.410808 0.411078 0.125330
C4    C     C_R   0.054340 0.606184 0.575877 0.126674
C5    C     C_R   0.833727 0.420193 0.421032 -0.112597
C6    C     C_R   0.168387 0.594985 0.567208 -0.095741
C7    C     C_R   0.860250 0.537547 0.540070 0.306570
C8    C     C_R   0.138314 0.452641 0.467556 0.310849
C9    C     C_R   0.978431 0.538218 0.528551 -0.099733
C10   C     C_R   0.022189 0.466640 0.467837 -0.098244
C11   C     C_R   0.500898 0.499990 0.661789 0.895305
C12   C     C_R   0.476424 0.299548 0.501611 0.939014
C13   C     C_R   0.499100 0.499985 0.338241 0.903004
C14   C     C_3   0.551736 0.589812 0.028654 -0.204777
C15   C     C_3   0.446300 0.406079 0.971508 -0.208948
C16   C     C_3   0.602410 0.506795 0.969708 0.287693
C17   C     C_3   0.395643 0.489102 0.030551 0.291279
C18   C     C_1   0.502329 0.499143 0.750617 -0.171786
C19   C     C_1   0.497246 0.499301 0.249454 -0.176488
C20   C     C_3   0.446042 0.580576 0.975048 -0.249608
C21   C     C_3   0.551985 0.415327 0.025175 -0.250461
C22   C     C_3   0.499358 0.497836 0.916881 0.101584
C23   C     C_R   0.622555 0.970710 0.426220 0.482783
C24   C     C_3   0.498761 0.498104 0.083278 0.102191
C25   C     C_1   0.501615 0.498412 0.825951 -0.059947
C26   C     C_1   0.497229 0.498604 0.174152 -0.054577
C27   C     C_R   0.460511 0.187369 0.507078 -0.242759
C28   C     C_R   0.542039 0.812538 0.494650 -0.254580
C29   C     C_3   0.801154 0.528062 0.993634 -0.802016
C30   C     C_3   0.196532 0.466947 0.007740 -0.805869
C31   C     C_3   0.205891 0.170396 0.597321 -0.231498
C32   C     C_3   0.790306 0.812883 0.385840 -0.218052
C33   C     C_3   0.785676 0.073406 0.404464 -0.391903
C34   C     C_R   0.395260 0.032742 0.586293 0.456087
C35   C     C_3   0.379201 0.999654 0.727699 -0.329475
C36   C     C_3   0.227679 0.356488 0.347719 -0.624709
C37   C     C_3   0.776096 0.682858 0.619203 -0.640124
C38   C     C_3   0.995637 0.411879 0.260857 -0.791386
C39   C     C_3   0.035045 0.791908 0.583905 -0.791302
C40   C     C_R   0.618857 0.861276 0.434776 0.418645
C41   C     C_R   0.387005 0.138863 0.569044 0.408119
C42   C     C_R   0.473876 0.869712 0.548019 -0.312527
C43   C     C_R   0.533568 0.130938 0.457414 -0.302920
C44   C     C_R   0.471495 0.976338 0.537011 -0.062545
H1    H     H_    0.595931 0.663595 0.053522 0.154174
H2    H     H_    0.883690 0.539781 0.959251 0.239002
H3    H     H_    0.798917 0.456470 0.032748 0.235113
H4    H     H_    0.790607 0.597932 0.035966 0.251849
H5    H     H_    0.270527 0.536852 0.114366 0.223484
H6    H     H_    0.114355 0.455178 0.042667 0.239462
H7    H     H_    0.206946 0.396824 0.965672 0.250951
H8    H     H_    0.198101 0.538226 0.968339 0.235932
H9    H     H_    0.170630 0.099956 0.632760 0.197412
H10   H     H_    0.196876 0.156263 0.527518 0.126102
H11   H     H_    0.155627 0.236286 0.616913 0.169211
H12   H     H_    0.402120 0.332303 0.946617 0.147322
H13   H     H_    0.814316 0.840544 0.450788 0.094479
H14   H     H_    0.829914 0.868170 0.337626 0.198514
H15   H     H_    0.824593 0.735801 0.373656 0.175406
H16   H     H_    0.821565 0.024885 0.452245 0.142038
H17   H     H_    0.763375 0.148242 0.435529 0.177027
H18   H     H_    0.852091 0.093607 0.354837 0.190483
H19   H     H_    0.389645 0.084679 0.746203 0.195464
H20   H     H_    0.461056 0.965729 0.725560 0.153005
H21   H     H_    0.325548 0.958627 0.778090 0.189168
H22   H     H_    0.127287 0.290475 0.447887 0.189974
H23   H     H_    0.596783 0.349534 0.047187 0.150277
H24   H     H_    0.180597 0.297169 0.307215 0.213423
H25   H     H_    0.312835 0.330956 0.348844 0.225108
H26   H     H_    0.229447 0.434643 0.317800 0.240894
H27   H     H_    0.848026 0.557720 0.672385 0.207564
H28   H     H_    0.821077 0.732883 0.667593 0.214626
H29   H     H_    0.686712 0.680511 0.639084 0.227043
H30   H     H_    0.790839 0.720027 0.556300 0.231665
H31   H     H_    0.942882 0.280482 0.331130 0.212526
H32   H     H_    0.034032 0.364643 0.208866 0.239343
H33   H     H_    0.048962 0.486818 0.269223 0.250171
H34   H     H_    0.401208 0.646370 0.953084 0.146838
H35   H     H_    0.911900 0.429535 0.241944 0.237092
H36   H     H_    0.052639 0.696761 0.685993 0.222650
H37   H     H_    0.998531 0.853448 0.624824 0.232421
H38   H     H_    0.992807 0.786489 0.522400 0.236950
H39   H     H_    0.125157 0.815743 0.571784 0.257541
H40   H     H_    0.584684 0.170686 0.407276 0.209380
H41   H     H_    0.417561 0.828972 0.594721 0.213976
H42   H     H_    0.226436 0.647265 0.602258 0.154531
H43   H     H_    0.777237 0.379002 0.377393 0.153877
H44   H     H_    0.727929 0.459038 0.886378 0.223378
N1    N     N_R   0.207800 0.519340 0.515560 -0.123668
N2    N     N_R   0.792200 0.480660 0.484440 -0.123635
N3    N     N_2   0.714786 0.516038 0.932618 -0.304196
N4    N     N_2   0.283523 0.479751 0.068177 -0.306446
N5    N     N_2   0.178476 0.357500 0.433762 -0.271108
N6    N     N_2   0.811564 0.577285 0.617586 -0.265080
N7    N     N_2   0.986745 0.353068 0.338933 -0.308685
N8    N     N_2   0.019436 0.691956 0.626535 -0.306220
O1    O     O_R   0.421700 0.658830 0.504150 -0.627304
O2    O     O_3   0.674314 0.799384 0.375829 -0.583238
O3    O     O_3   0.693815 0.019494 0.364545 -0.586638
O4    O     O_3   0.326914 0.983714 0.649435 -0.623407
O5    O     O_R   0.578300 0.341170 0.495850 -0.635273
O6    O     O_R   0.609310 0.646410 0.494170 -0.591230
O7    O     O_R   0.390690 0.353590 0.505830 -0.562051
O8    O     O_R   0.406210 0.506220 0.628210 -0.609286
O9    O     O_R   0.593790 0.493780 0.371790 -0.608501
O10   O     O_R   0.593830 0.493800 0.618230 -0.600322
O11   O     O_R   0.406170 0.506200 0.381770 -0.621202
O12   O     O_3   0.317088 0.198407 0.618623 -0.596046
Zn1   Zn    Zn3+2 0.374730 0.508290 0.506660 0.968197
Zn2   Zn    Zn3+2 0.625270 0.491710 0.493340 0.958019

loop_
_geom_bond_atom_site_label_1
_geom_bond_atom_site_label_2
_ccdc_geom_bond_type
C23   O3    S    
C30   H7    S    
C11   C18   S    
C16   C21   S    
C41   O12   S    
C31   O12   S    
C32   H14   S    
C13   O11   A    
C37   H30   S    
H31   N7    S    
H27   N6    S    
C38   H32   S    
C34   C41   A    
C29   H3    S    
O9    Zn2   S    
C24   C26   S    
C40   O2    S    
O8    Zn1   S    
C38   H35   S    
C35   H21   S    
C23   C40   A    
N1    Zn1   S    
C17   C20   S    
C7    C9    A    
C14   C24   S    
C19   C26   T    
C37   H29   S    
C4    N8    S    
C36   N5    S    
C15   C22   S    
C2    C44   A    
C33   H18   S    
C22   C25   S    
C38   N7    S    
C1    C28   S    
C34   O4    S    
C11   O8    A    
H36   N8    S    
C9    C10   A    
C5    N2    A    
C30   H6    S    
C21   H23   S    
C43   H40   S    
O11   Zn1   S    
C17   N4    S    
C42   C44   A    
C32   H13   S    
C36   H26   S    
C14   H1    S    
C17   C24   S    
C13   C19   S    
C12   C27   S    
C14   C20   S    
C34   C44   A    
C39   H37   S    
C12   O7    A    
C4    C6    A    
C1    O1    A    
C29   H4    S    
O5    Zn2   S    
C7    N2    A    
C33   O3    S    
O1    Zn1   S    
C27   C41   A    
H44   N3    S    
C2    C43   A    
C11   O10   A    
C42   H41   S    
C31   H9    S    
C35   H20   S    
H22   N5    S    
C33   H17   S    
C20   C22   S    
C33   H16   S    
C14   C16   S    
C21   C24   S    
O6    Zn2   S    
N2    Zn2   S    
H5    N4    S    
C35   O4    S    
C29   N3    S    
C36   H25   S    
O10   Zn2   S    
C15   C17   S    
C7    N6    S    
C30   H8    S    
C16   C22   S    
C8    N5    S    
C39   H38   S    
C3    C5    A    
C3    N7    S    
C36   H24   S    
C38   H33   S    
C6    N1    A    
C6    H42   S    
C20   H34   S    
C29   H2    S    
O7    Zn1   S    
C15   H12   S    
C39   H39   S    
C12   O5    A    
C3    C10   A    
C18   C25   T    
C28   C42   A    
C32   O2    S    
C37   N6    S    
C31   H10   S    
C39   N8    S    
C5    H43   S    
C27   C43   A    
C15   C21   S    
C16   N3    S    
C8    C10   A    
C37   H28   S    
C2    C23   A    
C28   C40   A    
C35   H19   S    
C8    N1    A    
C32   H15   S    
C31   H11   S    
C4    C9    A    
C1    O6    A    
C13   O9    A    
C30   N4    S    
