data_mof_unit_16294.cif
_audit_creation_date              2013-03-05T16:45:56-0500
_audit_creation_method            fapswitch 2.2
_symmetry_space_group_name_H-M    P1
_symmetry_Int_Tables_number       1
_space_group_crystal_system       triclinic
_cell_length_a                    9.885794
_cell_length_b                    10.596684
_cell_length_c                    16.629066
_cell_angle_alpha                 89.309629
_cell_angle_beta                  92.853699
_cell_angle_gamma                 89.268216
_cell_volume                      1739.56252239

loop_
_atom_site_label
_atom_site_type_symbol
_atom_site_description
_atom_site_fract_x
_atom_site_fract_y
_atom_site_fract_z
_atom_type_partial_charge
O1    O     O_R   0.614690 0.316790 0.499990 -0.595895
O2    O     O_R   0.385350 0.316760 0.500000 -0.619904
C1    C     C_R   0.500410 0.260506 0.500020 0.884213
O3    O     O_R   0.627460 0.498860 0.616130 -0.615499
O4    O     O_R   0.398120 0.498820 0.616130 -0.607424
C2    C     C_R   0.515535 0.501554 0.653690 0.897020
Zn1   Zn    Zn3+2 0.653130 0.500020 0.499990 0.973982
Zn2   Zn    Zn3+2 0.346870 0.499980 0.500010 1.014132
O5    O     O_R   0.614650 0.683240 0.500000 -0.625703
O6    O     O_R   0.385310 0.683210 0.500010 -0.568857
O7    O     O_R   0.601880 0.501180 0.383870 -0.597985
O8    O     O_R   0.372540 0.501140 0.383870 -0.583397
C3    C     C_R   0.498977 0.739545 0.499487 0.886135
C4    C     C_R   0.484563 0.508528 0.346246 0.892987
C5    C     C_R   0.518100 0.514928 0.740628 -0.087532
C6    C     C_R   0.399993 0.556964 0.775674 -0.300802
C7    C     C_R   0.393352 0.562168 0.858644 0.315861
C8    C     C_R   0.511708 0.534442 0.907330 0.210922
C9    C     C_R   0.630378 0.494613 0.872107 -0.198275
C10   C     C_R   0.633983 0.484744 0.788936 -0.184386
C11   C     C_R   0.571926 0.648673 0.144761 0.140408
C12   C     C_R   0.589351 0.602431 0.224391 0.107445
C13   C     C_R   0.449466 0.626942 0.101110 0.269702
N1    N     N_2   0.514745 0.542092 0.991760 -0.150698
N2    N     N_2   0.446110 0.631365 0.016915 -0.114866
C14   C     C_R   0.478337 0.543794 0.260690 -0.100582
H1    H     H_    0.720333 0.471398 0.909489 0.178224
H2    H     H_    0.726110 0.452380 0.762645 0.173241
C15   C     C_R   0.354033 0.532818 0.217213 -0.240105
C16   C     C_R   0.340066 0.573632 0.137938 -0.188252
H3    H     H_    0.267774 0.490196 0.244103 0.193091
H4    H     H_    0.246096 0.557142 0.103708 0.209469
H5    H     H_    0.309978 0.580948 0.738585 0.204123
C17   C     C_R   0.533570 0.065777 0.430808 0.061012
C18   C     C_R   0.498008 0.128764 0.499423 -0.064537
C19   C     C_R   0.435611 0.064944 0.561412 -0.140255
H6    H     H_    0.395184 0.115337 0.611447 0.145058
C20   C     C_R   0.433352 0.934452 0.560712 -0.137945
H7    H     H_    0.391733 0.883136 0.610356 0.153474
C21   C     C_R   0.494230 0.871414 0.498278 -0.047033
C22   C     C_R   0.533863 0.936835 0.430761 0.081157
C23   C     C_3   0.658973 0.927470 0.384104 -0.458399
C24   C     C_3   0.658341 0.071481 0.383393 0.026727
H8    H     H_    0.746211 0.885726 0.420348 0.217505
H9    H     H_    0.639637 0.883923 0.324321 0.195734
H10   H     H_    0.746663 0.111952 0.417335 0.203925
C25   C     C_R   0.073982 0.393219 0.520049 0.065520
N3    N     N_R   0.142860 0.499130 0.500540 -0.156910
C26   C     C_R   0.066907 0.601690 0.471676 0.318613
C27   C     C_R   0.923475 0.601753 0.473253 -0.177173
H11   H     H_    0.865534 0.683632 0.451777 0.185729
N4    N     N_R   0.857210 0.499170 0.500530 -0.139096
C28   C     C_R   0.931580 0.392267 0.518503 0.085205
C29   C     C_3   0.931476 0.316592 0.594969 0.070408
C30   C     C_3   0.086451 0.317292 0.596716 -0.082338
H12   H     H_    0.884632 0.368431 0.644610 0.121604
H13   H     H_    0.137118 0.224301 0.588279 0.206584
N5    N     N_2   0.715347 0.618893 0.268402 -0.292788
H14   H     H_    0.757901 0.706325 0.261048 0.225844
C31   C     C_3   0.812024 0.516216 0.261190 -0.706982
H15   H     H_    0.843180 0.508201 0.198233 0.220150
H16   H     H_    0.767854 0.425375 0.279794 0.242280
H17   H     H_    0.903397 0.533669 0.300812 0.239711
N6    N     N_2   0.636674 0.128192 0.303239 -0.293135
H18   H     H_    0.670335 0.219709 0.300514 0.222449
C32   C     C_3   0.507648 0.112544 0.259143 -0.725605
H19   H     H_    0.515547 0.147820 0.196437 0.238275
H20   H     H_    0.427203 0.167934 0.287693 0.233192
H21   H     H_    0.479121 0.011719 0.256585 0.252574
N7    N     N_R   0.130093 0.709622 0.438554 0.220368
O9    O     O_R   0.192743 0.698841 0.372032 -0.388880
O10   O     O_R   0.097454 0.821742 0.462799 -0.377082
N8    N     N_R   0.875887 0.190544 0.582857 0.225190
O11   O     O_R   0.780320 0.151565 0.627678 -0.390478
O12   O     O_R   0.925578 0.114031 0.530867 -0.399722
N9    N     N_2   0.144625 0.386824 0.664369 -0.289281
H22   H     H_    0.103698 0.475905 0.671432 0.237929
C33   C     C_3   0.158066 0.314133 0.738601 -0.694731
H23   H     H_    0.204703 0.372302 0.787138 0.260356
H24   H     H_    0.224078 0.229968 0.730803 0.241169
H25   H     H_    0.057025 0.283671 0.757258 0.246052
N10   N     N_2   0.678251 0.710745 0.105666 -0.299387
H26   H     H_    0.775484 0.684860 0.124533 0.241514
C34   C     C_3   0.659861 0.845989 0.097536 -0.741585
H27   H     H_    0.662183 0.890020 0.157921 0.233055
H28   H     H_    0.561957 0.869338 0.064682 0.256838
H29   H     H_    0.742759 0.885780 0.062815 0.255612
N11   N     N_R   0.264510 0.586319 0.892119 0.202710
O13   O     O_R   0.220523 0.509769 0.946414 -0.413251
O14   O     O_R   0.180961 0.669045 0.858098 -0.387722

loop_
_geom_bond_atom_site_label_1
_geom_bond_atom_site_label_2
_geom_bond_distance
_ccdc_geom_bond_type
C32   H20   1.111192 S    
C7    N11   1.436452 S    
N8    O11   1.300515 A    
C18   C19   1.399149 A    
C34   H29   1.110329 S    
C28   C29   1.495157 S    
Zn1   O7    1.971632 S    
C31   H17   1.110049 S    
C8    N1    1.406158 S    
N9    C33   1.446692 S    
C19   H6    1.084209 S    
C20   C21   1.398188 A    
C34   H28   1.111049 S    
Zn1   N4    2.016971 S    
C8    C9    1.399712 A    
C20   H7    1.084067 S    
O7    C4    1.291063 A    
C33   H24   1.111066 S    
C32   H21   1.109249 S    
N5    C31   1.449010 S    
C5    C6    1.400728 A    
C31   H16   1.109056 S    
C17   C18   1.386824 A    
C22   C23   1.495259 S    
O5    C3    1.282642 A    
C3    C21   1.397429 S    
C2    C5    1.453315 S    
C34   H27   1.111659 S    
C9    C10   1.390458 A    
C6    C7    1.386250 A    
C27   N4    1.361039 A    
N7    O9    1.299912 A    
C9    H1    1.083253 S    
C25   C28   1.406881 A    
C32   H19   1.110226 S    
C11   C12   1.408091 A    
N8    O12   1.301970 A    
C17   C22   1.366334 A    
C23   H8    1.111205 S    
O3    Zn1   1.960300 S    
C24   N6    1.460342 S    
C27   H11   1.080695 S    
C5    C10   1.397432 A    
C29   H12   1.113612 S    
C13   C16   1.391776 A    
N1    N2    1.245654 D    
O3    C2    1.297550 A    
C33   H23   1.107305 S    
C10   H2    1.083276 S    
N5    H14   1.030851 S    
C4    C14   1.464735 S    
C31   H15   1.109827 S    
O1    C1    1.284252 A    
C23   H9    1.110034 S    
N6    C32   1.451668 S    
Zn2   N3    2.017393 S    
C15   C16   1.382224 A    
C6    H5    1.082891 S    
C29   N8    1.463164 S    
C25   N3    1.364255 A    
C1    C18   1.396685 S    
Zn2   O8    1.960300 S    
C7    C8    1.414907 A    
N9    H22   1.032583 S    
C30   N9    1.451073 S    
C21   C22   1.388035 A    
N11   O14   1.301438 A    
C26   C27   1.419483 A    
N10   C34   1.446184 S    
C26   N7    1.427918 S    
C11   C13   1.403260 A    
C23   C24   1.525863 S    
N4    C28   1.364487 A    
C25   C30   1.498334 S    
Zn1   O5    1.973669 S    
C29   C30   1.530988 S    
N3    C26   1.380577 A    
O1    Zn1   1.983225 S    
O2    Zn2   1.973670 S    
C17   C24   1.498109 S    
O8    C4    1.301543 A    
O6    C3    1.279499 A    
C12   N5    1.426665 S    
O4    Zn2   1.971632 S    
N6    H18   1.030508 S    
C30   H13   1.113242 S    
O2    C1    1.277418 A    
C15   H3    1.083522 S    
C16   H4    1.082324 S    
C11   N10   1.426718 S    
C33   H25   1.111244 S    
O4    C2    1.291276 A    
C19   C20   1.383427 A    
C13   N2    1.399036 S    
C24   H10   1.109589 S    
N11   O13   1.301048 A    
C14   C15   1.401248 A    
Zn2   O6    1.983225 S    
N10   H26   1.028968 S    
C12   C14   1.424495 A    
N7    O10   1.301129 A    
