data_mof_unit_50257.cif
_audit_creation_date              2012-12-10T16:53:32-0500
_audit_creation_method            fapswitch 2.2
_symmetry_space_group_name_H-M    P1
_symmetry_Int_Tables_number       1
_space_group_crystal_system       triclinic
_cell_length_a                    7.855676
_cell_length_b                    8.579681
_cell_length_c                    13.652597
_cell_angle_alpha                 92.81683
_cell_angle_beta                  78.610686
_cell_angle_gamma                 93.409396
_cell_volume                      899.799573478

loop_
_atom_site_label
_atom_site_type_symbol
_atom_type_description
_atom_site_fract_x
_atom_site_fract_y
_atom_site_fract_z
_atom_type_partial_charge
C1    C     C_R   0.545840 0.794426 0.497262 0.941044
C2    C     C_1   0.568165 0.497094 0.120897 -0.027123
C3    C     C_2   0.570299 0.957890 0.496260 -0.378753
C4    C     C_2   0.431904 0.042306 0.499815 -0.377815
C5    C     C_1   0.259330 0.527731 0.048646 0.204144
C6    C     C_1   0.743102 0.484182 0.951145 0.209917
C7    C     C_3   0.977852 0.316081 0.330641 -0.144531
C8    C     C_3   0.035712 0.761278 0.621302 -0.133970
C9    C     C_R   0.454675 0.205653 0.501493 0.943680
C10   C     C_R   0.470498 0.503367 0.686776 0.875929
C11   C     C_R   0.529583 0.496975 0.313200 0.878137
C12   C     C_1   0.551544 0.496700 0.209047 -0.165616
C13   C     C_1   0.449259 0.507022 0.790922 -0.144614
C14   C     C_2   0.575059 0.498497 0.016809 -0.044091
C15   C     C_2   0.427230 0.512037 0.983159 -0.036015
C16   C     C_1   0.433462 0.510069 0.879076 -0.022725
H1    H     H_    0.701356 0.008370 0.493875 0.187262
H2    H     H_    0.301795 0.992279 0.500853 0.171101
H3    H     H_    0.971799 0.423775 0.289759 0.175655
H4    H     H_    0.850224 0.251613 0.349533 0.176097
H5    H     H_    0.065391 0.238138 0.279249 0.139020
H6    H     H_    0.072824 0.829573 0.552777 0.136739
H7    H     H_    0.148122 0.739515 0.655527 0.183795
H8    H     H_    0.946989 0.832840 0.676607 0.140281
N1    N     N_2   0.954190 0.457600 0.473930 0.193841
N2    N     N_2   0.045810 0.542400 0.526070 0.196319
N3    N     N_1   0.125131 0.540437 0.100751 -0.223499
N4    N     N_1   0.877248 0.472845 0.898715 -0.180666
O1    O     O_R   0.388300 0.738660 0.506400 -0.654008
O2    O     O_3   0.945440 0.621879 0.601236 -0.517843
O3    O     O_R   0.611700 0.261340 0.493600 -0.634808
O4    O     O_R   0.679920 0.711490 0.489690 -0.600007
O5    O     O_R   0.320080 0.288510 0.510310 -0.573964
O6    O     O_R   0.333200 0.515510 0.649910 -0.627085
O7    O     O_R   0.666800 0.484490 0.350090 -0.658842
O8    O     O_R   0.624820 0.488340 0.633200 -0.554859
O9    O     O_R   0.375180 0.511660 0.366800 -0.577131
O10   O     O_3   0.049536 0.350131 0.415699 -0.529726
Zn1   Zn    Zn3+2 0.305280 0.518140 0.511160 1.031624
Zn2   Zn    Zn3+2 0.694720 0.481860 0.488840 1.023107

loop_
_geom_bond_atom_site_label_1
_geom_bond_atom_site_label_2
_ccdc_geom_bond_type
C8    H6    S    
C11   C12   S    
N2    O2    S    
N1    O10   S    
C6    C14   S    
C2    C12   T    
C8    O2    S    
O1    Zn1   S    
C11   O7    A    
O7    Zn2   S    
C4    C9    S    
C4    H2    S    
C10   O6    A    
C7    H5    S    
C9    O5    A    
O5    Zn1   S    
C1    O1    A    
C8    H8    S    
C7    O10   S    
C3    H1    S    
C7    H3    S    
O4    Zn2   S    
N1    Zn2   S    
C2    C14   S    
N2    Zn1   S    
C5    C15   S    
C15   C16   S    
C9    O3    A    
C3    C4    D    
O8    Zn2   S    
C8    H7    S    
O3    Zn2   S    
O9    Zn1   S    
C7    H4    S    
C13   C16   T    
C11   O9    A    
C14   C15   D    
C10   O8    A    
N1    N2    D    
C5    N3    T    
C1    O4    A    
C6    N4    T    
O6    Zn1   S    
C1    C3    S    
C10   C13   S    
