data_mof_unit_61975.cif
_audit_creation_date              2012-12-10T16:43:16-0500
_audit_creation_method            fapswitch 2.2
_symmetry_space_group_name_H-M    P1
_symmetry_Int_Tables_number       1
_space_group_crystal_system       triclinic
_cell_length_a                    30.231121
_cell_length_b                    31.31325
_cell_length_c                    21.805474
_cell_angle_alpha                 90.033411
_cell_angle_beta                  135.004629
_cell_angle_gamma                 89.953643
_cell_volume                      14594.7848932

loop_
_atom_site_label
_atom_site_type_symbol
_atom_type_description
_atom_site_fract_x
_atom_site_fract_y
_atom_site_fract_z
_atom_type_partial_charge
C1    C     C_R   0.689297 0.808278 0.882009 0.896328
C2    C     C_R   0.310772 0.808276 0.117994 0.890452
C3    C     C_R   0.189352 0.308278 0.882006 0.896819
C4    C     C_R   0.810659 0.308276 0.117996 0.893945
C5    C     C_R   0.450181 0.788752 0.993485 -0.005731
C6    C     C_R   0.549404 0.788502 0.006192 0.046159
C7    C     C_R   0.950828 0.288194 0.994407 0.048176
C8    C     C_R   0.049066 0.288211 0.005506 0.048457
C9    C     C_R   0.476584 0.671871 0.999359 -0.176458
C10   C     C_R   0.520582 0.671860 0.995064 -0.178041
C11   C     C_R   0.978048 0.171425 0.002137 -0.176767
C12   C     C_R   0.022446 0.171426 0.998541 -0.176801
C13   C     C_R   0.526608 0.827132 0.007494 -0.137875
C14   C     C_R   0.476973 0.827321 0.999869 -0.211105
C15   C     C_R   0.024676 0.326876 0.003670 -0.168852
C16   C     C_R   0.975022 0.326866 0.996000 -0.169297
C17   C     C_2   0.578367 0.897442 0.726663 -0.227963
C18   C     C_2   0.421618 0.897473 0.273230 -0.227665
C19   C     C_2   0.078199 0.397239 0.726252 -0.228030
C20   C     C_2   0.921851 0.397181 0.273769 -0.227539
C21   C     C_2   0.601416 0.915407 0.698118 0.193335
C22   C     C_2   0.398618 0.915403 0.301899 0.192495
C23   C     C_2   0.101390 0.415409 0.698074 0.193621
C24   C     C_2   0.898638 0.415429 0.301901 0.193109
C25   C     C_2   0.616065 0.869124 0.802704 0.470546
C26   C     C_2   0.383877 0.869190 0.197142 0.474907
C27   C     C_2   0.115880 0.368956 0.802312 0.470658
C28   C     C_2   0.884158 0.368898 0.197702 0.472453
C29   C     C_2   0.653314 0.839674 0.812834 -0.344521
C30   C     C_2   0.346826 0.839664 0.187202 -0.345446
C31   C     C_2   0.153448 0.339669 0.812826 -0.344430
C32   C     C_2   0.846585 0.339664 0.187187 -0.346416
C33   C     C_R   0.133070 0.751389 0.078436 -0.193111
C34   C     C_R   0.867177 0.750004 0.921989 -0.189534
C35   C     C_R   0.633070 0.251390 0.078436 -0.193359
C36   C     C_R   0.367177 0.250004 0.921989 -0.189677
C37   C     C_R   0.115994 0.751720 0.999968 -0.039248
C38   C     C_R   0.884207 0.751063 0.000395 -0.040945
C39   C     C_R   0.615994 0.251720 0.999968 -0.039788
C40   C     C_R   0.384207 0.251063 0.000395 -0.040916
C41   C     C_R   0.053125 0.754297 0.921626 -0.191621
C42   C     C_R   0.947076 0.753485 0.078733 -0.193212
C43   C     C_R   0.553125 0.254296 0.921626 -0.191570
C44   C     C_R   0.447076 0.253486 0.078732 -0.193331
C45   C     C_R   0.664643 0.749555 0.000696 0.887196
C46   C     C_R   0.335346 0.749487 0.999337 0.893511
C47   C     C_R   0.164751 0.249470 0.000887 0.887628
C48   C     C_R   0.835266 0.249456 0.999143 0.887525
C49   C     C_R   0.006009 0.755576 0.920293 -0.048974
C50   C     C_R   0.994142 0.755578 0.080014 -0.046580
C51   C     C_R   0.506009 0.255575 0.920293 -0.048974
C52   C     C_R   0.494142 0.255578 0.080014 -0.046558
C53   C     C_R   0.023420 0.755061 0.000162 -0.033738
C54   C     C_R   0.976823 0.754096 0.000225 -0.033795
C55   C     C_R   0.523420 0.255061 0.000161 -0.033770
C56   C     C_R   0.476823 0.254096 0.000225 -0.033865
C57   C     C_R   0.087516 0.754894 0.079951 -0.048341
C58   C     C_R   0.912873 0.750974 0.920525 -0.047673
C59   C     C_R   0.587516 0.254895 0.079950 -0.048198
C60   C     C_R   0.412873 0.250974 0.920525 -0.047697
C61   C     C_R   0.941885 0.755521 0.840999 0.379412
C62   C     C_R   0.058159 0.758389 0.159204 0.379737
C63   C     C_R   0.441885 0.255520 0.840998 0.379340
C64   C     C_R   0.558159 0.258391 0.159203 0.379651
C65   C     C_R   0.896059 0.750363 0.841178 0.381458
C66   C     C_R   0.104429 0.757527 0.159258 0.382462
C67   C     C_R   0.396059 0.250362 0.841178 0.381403
C68   C     C_R   0.604429 0.257528 0.159257 0.382375
C69   C     C_2   0.903596 0.591746 0.250306 -0.136498
C70   C     C_2   0.096334 0.591801 0.749671 -0.137130
C71   C     C_2   0.403595 0.091745 0.250304 -0.136660
C72   C     C_2   0.596335 0.091801 0.749671 -0.136834
C73   C     C_2   0.902668 0.589014 0.310729 -0.310124
C74   C     C_2   0.097266 0.589025 0.689250 -0.309829
C75   C     C_2   0.402668 0.089014 0.310729 -0.310183
C76   C     C_2   0.597266 0.089025 0.689250 -0.310036
C77   C     C_2   0.862815 0.622128 0.177504 -0.141484
C78   C     C_2   0.137121 0.622178 0.822476 -0.141212
C79   C     C_2   0.362814 0.122128 0.177504 -0.141555
C80   C     C_2   0.637121 0.122178 0.822476 -0.140938
C81   C     C_2   0.847911 0.660028 0.187497 -0.308844
C82   C     C_2   0.152055 0.660038 0.812498 -0.306923
C83   C     C_2   0.347910 0.160028 0.187496 -0.308914
C84   C     C_2   0.652056 0.160038 0.812498 -0.309115
C85   C     C_R   0.059985 0.557848 0.619145 0.844353
C86   C     C_R   0.939994 0.557846 0.380852 0.844224
C87   C     C_R   0.559985 0.057848 0.619144 0.844342
C88   C     C_R   0.439994 0.057846 0.380852 0.844304
C89   C     C_R   0.810358 0.691559 0.118111 0.827155
C90   C     C_R   0.189633 0.691562 0.881889 0.823632
C91   C     C_R   0.310358 0.191559 0.118111 0.827011
C92   C     C_R   0.689633 0.191562 0.881889 0.827202
C93   C     C_R   0.560994 0.943031 0.620964 0.760375
C94   C     C_R   0.439023 0.943029 0.379043 0.760838
C95   C     C_R   0.060986 0.443031 0.620947 0.760239
C96   C     C_R   0.939027 0.443037 0.379044 0.760428
C97   C     C_R   0.835826 0.750185 0.000325 0.780888
C98   C     C_R   0.164218 0.750286 0.999759 0.776308
C99   C     C_R   0.335826 0.250185 0.000325 0.780760
C100  C     C_R   0.664218 0.250286 0.999758 0.778180
C101  C     C_R   0.399845 0.788291 0.985691 0.410248
C102  C     C_R   0.599277 0.788181 0.013726 0.381377
C103  C     C_R   0.900960 0.287983 0.986819 0.386097
C104  C     C_R   0.098930 0.288020 0.013083 0.385701
C105  C     C_R   0.383320 0.749643 0.998406 -0.097818
C106  C     C_R   0.616891 0.749590 0.002125 -0.138811
C107  C     C_R   0.882849 0.249353 0.997411 -0.140864
C108  C     C_R   0.117222 0.249376 0.002717 -0.141249
C109  C     C_R   0.409932 0.710994 0.005169 -0.335660
C110  C     C_R   0.589396 0.710965 0.993389 -0.313261
C111  C     C_R   0.909691 0.210614 0.004860 -0.314600
C112  C     C_R   0.090585 0.210622 0.995536 -0.314370
C113  C     C_R   0.453692 0.710563 0.000426 0.115056
C114  C     C_R   0.544361 0.710522 0.995808 0.111878
C115  C     C_R   0.954553 0.210107 0.002084 0.115697
C116  C     C_R   0.045740 0.210112 0.998339 0.115689
C117  C     C_R   0.475457 0.749610 0.997605 0.040613
C118  C     C_R   0.522865 0.749540 0.999382 0.019642
C119  C     C_R   0.976438 0.249116 0.999358 0.016851
C120  C     C_R   0.023658 0.249121 0.000816 0.016776
Cu1   Cu    Cu3+1 0.719490 0.719480 0.938970 0.991923
Cu2   Cu    Cu3+1 0.280510 0.719480 0.061030 0.994012
Cu3   Cu    Cu3+1 0.219490 0.219480 0.938970 0.992185
Cu4   Cu    Cu3+1 0.780510 0.219480 0.061030 0.995925
Cu5   Cu    Cu3+1 0.780480 0.780500 0.060980 1.032051
Cu6   Cu    Cu3+1 0.219520 0.780500 0.939020 1.051759
Cu7   Cu    Cu3+1 0.280480 0.280500 0.060980 1.031111
Cu8   Cu    Cu3+1 0.719520 0.280500 0.939020 1.030153
Cu9   Cu    Cu3+1 0.455530 0.999980 0.499990 0.990710
Cu10  Cu    Cu3+1 0.544470 0.999980 0.500010 0.992856
Cu11  Cu    Cu3+1 0.955530 0.499980 0.499990 0.990985
Cu12  Cu    Cu3+1 0.044470 0.499980 0.500010 0.993356
H1    H     H_    0.041824 0.753086 0.862214 0.150286
H2    H     H_    0.958363 0.752652 0.138147 0.150602
H3    H     H_    0.541824 0.253085 0.862213 0.150361
H4    H     H_    0.458363 0.252653 0.138147 0.150524
H5    H     H_    0.931932 0.569792 0.251282 0.176012
H6    H     H_    0.068009 0.569882 0.748699 0.176057
H7    H     H_    0.431929 0.069791 0.251279 0.175905
H8    H     H_    0.568010 0.069882 0.748700 0.175899
H9    H     H_    0.869402 0.607692 0.304584 0.157330
H10   H     H_    0.130525 0.607667 0.695396 0.157758
H11   H     H_    0.369403 0.107692 0.304586 0.157307
H12   H     H_    0.630525 0.107667 0.695395 0.157470
H13   H     H_    0.847910 0.614176 0.116648 0.172831
H14   H     H_    0.152023 0.614255 0.883331 0.173578
H15   H     H_    0.347908 0.114176 0.116647 0.172729
H16   H     H_    0.652023 0.114255 0.883331 0.173385
H17   H     H_    0.868319 0.669934 0.250858 0.158009
H18   H     H_    0.131649 0.669926 0.749139 0.158367
H19   H     H_    0.368319 0.169934 0.250858 0.157905
H20   H     H_    0.631651 0.169926 0.749140 0.157876
H21   H     H_    0.394680 0.681203 0.010673 0.169885
H22   H     H_    0.604663 0.681210 0.987722 0.168957
H23   H     H_    0.894105 0.180863 0.009906 0.168540
H24   H     H_    0.106313 0.180866 0.990662 0.168460
H25   H     H_    0.459905 0.641646 0.000796 0.149130
H26   H     H_    0.536933 0.641634 0.992928 0.148786
H27   H     H_    0.961433 0.141202 0.003694 0.148297
H28   H     H_    0.039216 0.141203 0.997178 0.148244
H29   H     H_    0.546540 0.857480 0.013411 0.195726
H30   H     H_    0.461530 0.857901 0.002233 0.167810
H31   H     H_    0.042999 0.357320 0.006385 0.199676
H32   H     H_    0.956542 0.357303 0.993089 0.199553
H33   H     H_    0.530756 0.904115 0.694553 0.180027
H34   H     H_    0.469182 0.904173 0.305217 0.180334
H35   H     H_    0.030474 0.403733 0.693840 0.180051
H36   H     H_    0.969589 0.403610 0.306219 0.180083
H37   H     H_    0.652174 0.835254 0.762307 0.161927
H38   H     H_    0.348195 0.835184 0.237931 0.159200
H39   H     H_    0.152609 0.335347 0.762572 0.161792
H40   H     H_    0.847437 0.335382 0.237455 0.159207
H41   H     H_    0.182241 0.748611 0.137727 0.153799
H42   H     H_    0.817818 0.749777 0.862640 0.151687
H43   H     H_    0.682241 0.248613 0.137726 0.153681
H44   H     H_    0.317818 0.249776 0.862640 0.151664
O1    O     O_R   0.679710 0.768740 0.859430 -0.592194
O2    O     O_R   0.320290 0.768740 0.140570 -0.593422
O3    O     O_R   0.179710 0.268740 0.859430 -0.591952
O4    O     O_R   0.820290 0.268740 0.140570 -0.591953
O5    O     O_R   0.082020 0.544510 0.588970 -0.583853
O6    O     O_R   0.917980 0.544510 0.411030 -0.584375
O7    O     O_R   0.582020 0.044510 0.588970 -0.583914
O8    O     O_R   0.417980 0.044510 0.411030 -0.584273
O9    O     O_R   0.506970 0.955460 0.589020 -0.589234
O10   O     O_R   0.493030 0.955460 0.410980 -0.588742
O11   O     O_R   0.006970 0.455460 0.589020 -0.589090
O12   O     O_R   0.993030 0.455460 0.410980 -0.588569
O13   O     O_R   0.582050 0.955480 0.588990 -0.586565
O14   O     O_R   0.417950 0.955480 0.411010 -0.587548
O15   O     O_R   0.082050 0.455480 0.588990 -0.586538
O16   O     O_R   0.917950 0.455480 0.411010 -0.587485
O17   O     O_R   0.731220 0.820270 0.962460 -0.522786
O18   O     O_R   0.268780 0.820270 0.037540 -0.522233
O19   O     O_R   0.231220 0.320270 0.962460 -0.523079
O20   O     O_R   0.768780 0.320270 0.037540 -0.523497
O21   O     O_R   0.659370 0.724200 0.948480 -0.584330
O22   O     O_R   0.340630 0.724200 0.051520 -0.595396
O23   O     O_R   0.159370 0.224200 0.948480 -0.583421
O24   O     O_R   0.840630 0.224200 0.051520 -0.583581
O25   O     O_R   0.710880 0.775730 0.051510 -0.570862
O26   O     O_R   0.289120 0.775730 0.948490 -0.526046
O27   O     O_R   0.210880 0.275730 0.051510 -0.572105
O28   O     O_R   0.789120 0.275730 0.948490 -0.571666
O29   O     O_R   0.768760 0.679710 0.037490 -0.583294
O30   O     O_R   0.231240 0.679710 0.962510 -0.583523
O31   O     O_R   0.268760 0.179710 0.037490 -0.583391
O32   O     O_R   0.731240 0.179710 0.962510 -0.582787
O33   O     O_R   0.820270 0.731240 0.140520 -0.593643
O34   O     O_R   0.179730 0.731240 0.859480 -0.594331
O35   O     O_R   0.320270 0.231240 0.140520 -0.593720
O36   O     O_R   0.679730 0.231240 0.859480 -0.593748
O37   O     O_R   0.789100 0.724240 0.948440 -0.589721
O38   O     O_R   0.210900 0.724240 0.051560 -0.585858
O39   O     O_R   0.289100 0.224240 0.948440 -0.589830
O40   O     O_R   0.710900 0.224240 0.051560 -0.585662
O41   O     O_R   0.840600 0.775770 0.051470 -0.587586
O42   O     O_R   0.159400 0.775770 0.948530 -0.590102
O43   O     O_R   0.340600 0.275770 0.051470 -0.587651
O44   O     O_R   0.659400 0.275770 0.948530 -0.588747
O45   O     O_R   0.006940 0.544490 0.589000 -0.575199
O46   O     O_R   0.993060 0.544490 0.411000 -0.574843
O47   O     O_R   0.506940 0.044490 0.589000 -0.575262
O48   O     O_R   0.493060 0.044490 0.411000 -0.574990
O49   O     O_3   0.366750 0.824934 0.967044 -0.640462
H45   H     H_    0.364345 0.842949 0.927452 0.319323
O50   O     O_3   0.629385 0.825918 0.030494 -0.653169
H46   H     H_    0.671240 0.823552 0.090821 0.334029
O51   O     O_3   0.871332 0.325855 0.970938 -0.652262
H47   H     H_    0.829357 0.323800 0.910677 0.334607
O52   O     O_3   0.128361 0.325922 0.028717 -0.652363
H48   H     H_    0.170445 0.323904 0.088861 0.335042
O53   O     O_3   0.921950 0.758406 0.761391 -0.664745
H49   H     H_    0.949112 0.779113 0.766440 0.316673
O54   O     O_3   0.077760 0.762490 0.238457 -0.663759
H50   H     H_    0.048674 0.782052 0.231378 0.315482
O55   O     O_3   0.421949 0.258404 0.761391 -0.664801
H51   H     H_    0.449112 0.279111 0.766439 0.316644
O56   O     O_3   0.577760 0.262492 0.238456 -0.664071
H52   H     H_    0.548673 0.282054 0.231378 0.315381
O57   O     O_3   0.834924 0.746180 0.761786 -0.662852
H53   H     H_    0.814083 0.724728 0.767660 0.316812
O58   O     O_3   0.165822 0.760586 0.238634 -0.661572
H54   H     H_    0.188738 0.779051 0.231936 0.314507
O59   O     O_3   0.334924 0.246179 0.761786 -0.662833
H55   H     H_    0.314083 0.224726 0.767661 0.316753
O60   O     O_3   0.665822 0.260588 0.238633 -0.661724
H56   H     H_    0.688738 0.279053 0.231935 0.314487
O61   O     O_3   0.664227 0.910157 0.745479 -0.727134
H57   H     H_    0.675020 0.927412 0.719572 0.350470
O62   O     O_3   0.335842 0.910109 0.254661 -0.730532
H58   H     H_    0.325052 0.927334 0.280636 0.349172
O63   O     O_3   0.164290 0.410361 0.745750 -0.727067
H59   H     H_    0.175160 0.427820 0.720141 0.350365
O64   O     O_3   0.835725 0.410457 0.254168 -0.730384
H60   H     H_    0.824824 0.427990 0.279703 0.348948
S1    S     S_3+6 0.601397 0.870213 0.867920 0.032181
O65   O     O_2   0.575469 0.827567 0.861101 -0.299643
O66   O     O_2   0.661223 0.878852 0.960554 -0.232660
O67   O     O_3   0.549120 0.908617 0.833566 -0.535785
H61   H     H_    0.541296 0.905552 0.870457 0.382343
S2    S     S_3+6 0.398200 0.870503 0.131545 0.026420
O68   O     O_2   0.424269 0.827950 0.138107 -0.305400
O69   O     O_2   0.338186 0.879154 0.039046 -0.229804
O70   O     O_3   0.450219 0.909028 0.165697 -0.537677
H62   H     H_    0.457895 0.906068 0.128615 0.377200
S3    S     S_3+6 0.100863 0.369877 0.867104 0.032215
O71   O     O_2   0.075118 0.327122 0.860196 -0.299283
O72   O     O_2   0.160517 0.378634 0.959797 -0.233162
O73   O     O_3   0.048287 0.408105 0.832391 -0.535242
H63   H     H_    0.040310 0.404944 0.869091 0.382477
S4    S     S_3+6 0.899124 0.369775 0.132854 0.032272
O74   O     O_2   0.924846 0.326990 0.139686 -0.299279
O75   O     O_2   0.839447 0.378573 0.040190 -0.233277
O76   O     O_3   0.951697 0.407950 0.167566 -0.535165
H64   H     H_    0.959642 0.404766 0.130826 0.382473

loop_
_geom_bond_atom_site_label_1
_geom_bond_atom_site_label_2
_ccdc_geom_bond_type
C103  O51   S    
C71   C75   D    
C55   C56   A    
C44   H4    S    
C28   S4    S    
C100  O44   A    
Cu9   O9    S    
C14   H30   S    
C70   C78   S    
C61   O53   S    
Cu2   O30   S    
C69   C77   S    
O76   H64   S    
C18   C26   S    
C104  C108  A    
C57   C66   A    
C72   C76   D    
Cu3   O31   S    
Cu12  O12   S    
S2    O70   S    
C71   C79   S    
C18   H34   S    
C95   O11   A    
O62   H58   S    
C73   H9    S    
C53   C54   A    
C16   H32   S    
C95   O15   A    
C84   C92   S    
Cu5   O25   S    
O61   H57   S    
C50   C54   A    
C21   C93   S    
C48   O24   A    
C37   C41   A    
C110  H22   S    
C64   C68   A    
C15   H31   S    
C114  C118  A    
C38   C42   A    
C55   C59   A    
Cu10  O7    S    
C24   C96   S    
C87   O7    A    
O63   H59   S    
C59   C68   A    
Cu11  O6    S    
C116  C120  A    
C46   O22   A    
C48   C107  S    
C94   O10   A    
C66   O58   S    
C56   C60   A    
C45   O21   A    
O58   H54   S    
C46   C105  S    
Cu5   O41   S    
Cu8   O44   S    
O57   H53   S    
O55   H51   S    
C25   C29   D    
C101  O49   S    
S1    O65   D    
Cu8   O28   S    
C39   C100  S    
C3    O3    A    
C30   H38   S    
C64   O56   S    
C17   C25   S    
C90   O30   A    
C52   C56   A    
C1    O1    A    
C27   S3    S    
O56   H52   S    
C60   C67   A    
S4    O74   D    
C13   H29   S    
C70   C74   D    
Cu6   O42   S    
O54   H50   S    
C88   O48   A    
C69   C73   D    
C77   C81   D    
C33   H41   S    
O70   H62   S    
C10   H26   S    
C71   H7    S    
C10   C114  A    
Cu10  O13   S    
Cu9   O47   S    
Cu4   Cu8   S    
C25   S1    S    
C44   C52   A    
C31   H39   S    
C32   H40   S    
C46   O26   A    
C45   O25   A    
C97   O37   A    
C13   C14   A    
Cu4   O32   S    
C101  C105  A    
C22   C94   S    
C47   O23   A    
S2    O69   D    
C19   H35   S    
C4    O4    A    
C38   C97   S    
C40   C99   S    
C41   C49   A    
C37   C98   S    
C93   O13   A    
O49   H45   S    
C83   H19   S    
C81   H17   S    
C68   O60   S    
C69   H5    S    
C20   H36   S    
C35   C59   A    
C89   O29   A    
C49   C61   A    
C75   C88   S    
C62   C66   A    
C27   C31   D    
C80   C84   D    
C11   C12   A    
C7    C119  A    
C11   C115  A    
C28   C32   D    
C51   C63   A    
Cu4   O40   S    
Cu6   O34   S    
C90   O34   A    
Cu5   O33   S    
C19   C23   D    
C104  O52   S    
C79   H15   S    
C109  H21   S    
C20   C28   S    
C36   C60   A    
C6    C118  A    
Cu11  O16   S    
C65   O57   S    
C3    O19   A    
Cu2   O38   S    
C5    C117  A    
C2    O18   A    
Cu3   O3    S    
Cu1   O37   S    
Cu2   Cu6   S    
C24   O64   S    
C1    O17   A    
C94   O14   A    
C63   C67   A    
Cu1   Cu5   S    
O51   H47   S    
C34   H42   S    
Cu7   O19   S    
Cu12  O5    S    
C111  C115  A    
Cu6   O18   S    
C58   C65   A    
Cu3   Cu7   S    
O50   H46   S    
C76   C87   S    
Cu5   O17   S    
Cu3   O39   S    
O60   H56   S    
Cu9   O14   S    
C1    C29   S    
C9    H25   S    
C11   H27   S    
C47   O27   A    
Cu11  O45   S    
C12   H28   S    
Cu12  O46   S    
Cu2   O22   S    
Cu4   O24   S    
C43   H3    S    
C8    C104  A    
Cu12  O15   S    
Cu1   O21   S    
C5    C14   A    
C82   H18   S    
C75   H11   S    
C23   O63   S    
C42   C50   A    
C61   C65   A    
C113  C117  A    
C41   H1    S    
C76   H12   S    
C91   O35   A    
C7    C16   A    
Cu9   O8    S    
C99   O43   A    
C80   H16   S    
C70   H6    S    
C8    C15   A    
C115  C119  A    
C98   O42   A    
C52   C64   A    
C50   C62   A    
C97   O41   A    
C92   O36   A    
C111  H23   S    
C72   H8    S    
O64   H60   S    
C84   H20   S    
C110  C114  A    
C112  C116  A    
C36   C40   A    
C19   C27   S    
C45   C106  S    
C8    C120  A    
C86   O6    A    
Cu9   Cu10  S    
C106  C110  A    
Cu7   O35   S    
C96   O12   A    
C4    O20   A    
C105  C109  A    
C100  O40   A    
C33   C57   A    
C62   O54   S    
C2    O2    A    
C63   O55   S    
C34   C38   A    
C107  C111  A    
Cu8   O20   S    
O67   H61   S    
C78   C82   D    
C53   C57   A    
Cu3   O23   S    
C91   O31   A    
C119  C120  A    
Cu10  O10   S    
C36   H44   S    
S2    O68   D    
C26   S2    S    
C85   O5    A    
C109  C113  A    
C92   O32   A    
C83   C91   S    
C48   O28   A    
C82   C90   S    
C5    C101  A    
C2    C30   S    
C42   H2    S    
S1    O67   S    
C35   H43   S    
C96   O16   A    
C18   C22   D    
C81   C89   S    
C22   O62   S    
C72   C80   S    
C17   H33   S    
C117  C118  A    
Cu8   O36   S    
C6    C13   A    
C79   C83   D    
C67   O59   S    
C43   C51   A    
C3    C31   S    
S1    O66   D    
C77   H13   S    
C99   O39   A    
S4    O76   S    
C49   C53   A    
C35   C39   A    
C7    C103  A    
Cu10  O48   S    
C102  O50   S    
S3    O73   S    
C23   C95   S    
C9    C10   A    
C21   O61   S    
C51   C55   A    
C93   O9    A    
C6    C102  A    
C74   C85   S    
C98   O38   A    
Cu11  Cu12  S    
C33   C37   A    
C9    C113  A    
Cu2   O2    S    
C88   O8    A    
C78   H14   S    
C4    C32   S    
Cu6   O26   S    
Cu11  O11   S    
C108  C112  A    
Cu1   O29   S    
C40   C44   A    
Cu4   O4    S    
C54   C58   A    
Cu1   O1    S    
C74   H10   S    
S4    O75   D    
C47   C108  S    
C112  H24   S    
C102  C106  A    
S3    O71   D    
O52   H48   S    
C34   C58   A    
C89   O33   A    
O73   H63   S    
S3    O72   D    
C103  C107  A    
C73   C86   S    
C86   O46   A    
Cu7   O27   S    
C29   H37   S    
Cu7   O43   S    
O59   H55   S    
C85   O45   A    
C39   C43   A    
C20   C24   D    
C15   C16   A    
O53   H49   S    
C87   O47   A    
C12   C116  A    
C26   C30   D    
C17   C21   D    
