data_mof_unit_44146.cif
_audit_creation_date              2012-12-10T18:31:57-0500
_audit_creation_method            fapswitch 2.2
_symmetry_space_group_name_H-M    P1
_symmetry_Int_Tables_number       1
_space_group_crystal_system       triclinic
_cell_length_a                    10.646252
_cell_length_b                    14.981802
_cell_length_c                    15.440916
_cell_angle_alpha                 82.409101
_cell_angle_beta                  89.792791
_cell_angle_gamma                 104.124793
_cell_volume                      2365.7892161

loop_
_atom_site_label
_atom_site_type_symbol
_atom_type_description
_atom_site_fract_x
_atom_site_fract_y
_atom_site_fract_z
_atom_type_partial_charge
C1    C     C_R   0.476535 0.442023 0.662143 0.885059
C2    C     C_3   0.121542 0.500112 0.500124 0.155432
C3    C     C_3   0.065709 0.482585 0.409690 -0.403263
C4    C     C_3   0.103962 0.595615 0.520575 -0.388334
C5    C     C_R   0.437829 0.408370 0.753850 -0.045444
C6    C     C_R   0.503568 0.592145 0.245874 -0.065795
C7    C     C_R   0.333307 0.288380 0.870317 -0.207918
C8    C     C_R   0.376306 0.315229 0.783058 -0.219660
C9    C     C_R   0.452125 0.474081 0.811346 -0.259574
C10   C     C_R   0.401618 0.450063 0.896854 0.084826
C11   C     C_R   0.347454 0.355080 0.927833 0.162786
C12   C     C_R   0.741959 0.500276 0.500873 0.846417
C13   C     C_R   0.412232 0.517947 0.953614 0.069036
C14   C     C_R   0.393968 0.488328 0.044332 0.056384
C15   C     C_R   0.336203 0.393424 0.074022 -0.215901
C16   C     C_R   0.310587 0.328222 0.015949 -0.213233
C17   C     C_R   0.441881 0.614287 0.922730 -0.234849
C18   C     C_R   0.469360 0.679664 0.980330 -0.239066
C19   C     C_R   0.473576 0.650775 0.069505 0.176511
C20   C     C_R   0.437123 0.554644 0.101936 0.093925
C21   C     C_R   0.517512 0.716488 0.126465 -0.201832
C22   C     C_R   0.532115 0.687272 0.214530 -0.199890
C23   C     C_R   0.514764 0.557947 0.337852 0.864604
C24   C     C_R   0.455514 0.527085 0.189775 -0.265257
C25   C     C_R   0.694548 0.843173 0.636027 -0.319335
C26   C     C_R   0.661857 0.753666 0.614521 0.008324
C27   C     C_R   0.514216 0.793614 0.510397 -0.065417
C28   C     C_R   0.542200 0.885671 0.529542 -0.002238
C29   C     C_R   0.635442 0.909668 0.593406 0.181752
C30   C     C_R   0.482535 0.954143 0.487266 0.083625
C31   C     C_R   0.518629 0.046340 0.508965 0.097467
C32   C     C_R   0.614093 0.067259 0.571792 -0.237352
C33   C     C_R   0.670169 0.999896 0.613565 -0.211561
C34   C     C_R   0.258094 0.500004 0.499337 0.831590
C35   C     C_R   0.387555 0.933261 0.424549 -0.250523
C36   C     C_R   0.333333 0.000932 0.381461 -0.157023
C37   C     C_R   0.369764 0.092584 0.399383 0.088368
C38   C     C_R   0.458925 0.114855 0.466558 -0.010422
C39   C     C_R   0.315356 0.162100 0.354257 -0.111306
C40   C     C_R   0.344537 0.249672 0.381393 -0.050458
C41   C     C_R   0.483478 0.205284 0.489344 -0.067089
C42   C     C_3   0.902128 0.419861 0.571034 -0.132666
C43   C     C_3   0.048008 0.422899 0.571852 -0.430582
C44   C     C_3   0.921833 0.484122 0.410178 -0.425969
C45   C     C_3   0.961749 0.596873 0.518763 -0.399096
C46   C     C_3   0.878727 0.500575 0.501942 0.126556
H1    H     H_    0.854626 0.354022 0.545522 0.138238
H2    H     H_    0.159682 0.652970 0.471424 0.176052
H3    H     H_    0.906799 0.539982 0.359087 0.169477
H4    H     H_    0.120408 0.536956 0.357690 0.164542
H5    H     H_    0.266696 0.256112 0.040702 0.162630
H6    H     H_    0.437934 0.454349 0.214836 0.160677
H7    H     H_    0.567119 0.738759 0.257589 0.162719
H8    H     H_    0.493546 0.752917 0.954572 0.147352
H9    H     H_    0.289563 0.215734 0.892874 0.140459
H10   H     H_    0.362634 0.263413 0.738964 0.159021
H11   H     H_    0.506687 0.544151 0.789089 0.160073
H12   H     H_    0.306913 0.368246 0.141637 0.164199
H13   H     H_    0.441919 0.640710 0.854170 0.150633
H14   H     H_    0.543380 0.790173 0.102498 0.141846
H15   H     H_    0.742529 0.018970 0.661530 0.143822
H16   H     H_    0.545976 0.228245 0.540659 0.122264
H17   H     H_    0.304951 0.304659 0.348645 0.153897
H18   H     H_    0.259344 0.979373 0.335543 0.182709
H19   H     H_    0.765722 0.860398 0.685081 0.142885
H20   H     H_    0.706992 0.701430 0.646544 0.131334
H21   H     H_    0.447090 0.768570 0.462069 0.125950
H22   H     H_    0.089592 0.435549 0.636438 0.163983
H23   H     H_    0.649788 0.135574 0.589794 0.128617
H24   H     H_    0.351714 0.864692 0.406974 0.134277
H25   H     H_    0.061781 0.354086 0.560018 0.175118
H26   H     H_    0.863139 0.417028 0.392735 0.190577
H27   H     H_    0.075447 0.414085 0.394044 0.192594
H28   H     H_    0.949078 0.651412 0.465383 0.182443
H29   H     H_    0.930810 0.617644 0.580163 0.173006
H30   H     H_    0.141330 0.609275 0.586033 0.175851
N1    N     N_R   0.573860 0.731700 0.552730 -0.099868
N2    N     N_R   0.426060 0.268290 0.447230 -0.107858
O1    O     O_R   0.462770 0.383110 0.605620 -0.619006
O2    O     O_R   0.510160 0.531900 0.639510 -0.621924
O3    O     O_R   0.661510 0.425600 0.483070 -0.626906
O4    O     O_R   0.708900 0.574390 0.516960 -0.622709
O5    O     O_R   0.489840 0.468100 0.360490 -0.619360
O6    O     O_R   0.537230 0.616890 0.394380 -0.617243
O7    O     O_R   0.291100 0.425610 0.483040 -0.622652
O8    O     O_R   0.338490 0.574400 0.516930 -0.631182
Zn1   Zn    Zn3+2 0.468350 0.400660 0.477370 0.935502
Zn2   Zn    Zn3+2 0.531650 0.599340 0.522630 0.932075
C47   C     C_R   0.844134 0.413446 0.663111 0.120663
C48   C     C_R   0.742959 0.336130 0.695330 -0.159853
C49   C     C_R   0.693874 0.324855 0.781183 -0.133235
C50   C     C_R   0.742375 0.391672 0.835528 -0.092620
C51   C     C_R   0.842636 0.468676 0.804793 -0.150602
C52   C     C_R   0.894598 0.478995 0.719720 -0.149538
H31   H     H_    0.702969 0.283520 0.654508 0.108128
H32   H     H_    0.617600 0.264337 0.805456 0.140390
H33   H     H_    0.702990 0.383345 0.901656 0.139749
H34   H     H_    0.881914 0.519614 0.847505 0.134798
H35   H     H_    0.976927 0.536463 0.699986 0.123849
C53   C     C_2   0.233350 0.148122 0.277159 0.864249
O9    O     O_2   0.141151 0.183349 0.267935 -0.643516
O10   O     O_R   0.265101 0.099005 0.212800 -0.817296
H36   H     H_    0.203111 0.095846 0.162967 0.337114

loop_
_geom_bond_atom_site_label_1
_geom_bond_atom_site_label_2
_ccdc_geom_bond_type
N2    Zn1   S    
C24   H6    S    
O5    Zn1   S    
C51   C52   A    
C19   C20   A    
C16   H5    S    
C7    H9    S    
C8    H10   S    
O1    Zn1   S    
C39   C53   S    
C7    C8    A    
C45   C46   S    
C7    C11   A    
C40   H17   S    
C23   O5    A    
C30   C35   A    
C1    C5    S    
C36   C37   A    
C19   C21   A    
C42   C46   S    
C30   C31   A    
O8    Zn2   S    
C15   C16   A    
C6    C22   A    
C29   C33   A    
C18   C19   A    
C34   O8    A    
C47   C52   A    
C50   C51   A    
C49   H32   S    
C20   C24   A    
C35   H24   S    
C43   H22   S    
C9    C10   A    
C2    C34   S    
C21   C22   A    
O2    Zn2   S    
C41   H16   S    
C3    H4    S    
C44   C46   S    
C50   H33   S    
C22   H7    S    
C4    C45   S    
O7    Zn1   S    
C25   C29   A    
C3    C44   S    
C26   N1    A    
C23   O6    A    
C26   H20   S    
C14   C20   A    
C48   H31   S    
C25   H19   S    
N1    Zn2   S    
C38   C41   A    
C12   C46   S    
C41   N2    A    
C25   C26   A    
C44   H3    S    
C45   H28   S    
C34   O7    A    
C2    C4    S    
C5    C9    A    
C37   C38   A    
C11   C16   A    
C31   C32   A    
C2    C43   S    
C6    C24   A    
C53   O10   S    
C17   C18   A    
C12   O4    A    
C21   H14   S    
O3    Zn1   S    
C17   H13   S    
C1    O1    A    
C15   H12   S    
C40   N2    A    
C42   C43   S    
C49   C50   A    
C4    H2    S    
C28   C29   A    
C43   H25   S    
O6    Zn2   S    
C27   N1    A    
C10   C13   A    
C5    C8    A    
C32   H23   S    
C31   C38   A    
C13   C17   A    
C45   H29   S    
C42   C47   S    
C32   C33   A    
C28   C30   A    
C2    C3    S    
C37   C39   A    
C36   H18   S    
C48   C49   A    
C52   H35   S    
O4    Zn2   S    
C6    C23   S    
C53   O9    D    
C12   O3    A    
C44   H26   S    
C9    H11   S    
C42   H1    S    
O10   H36   S    
C3    H27   S    
C4    H30   S    
C27   H21   S    
C10   C11   A    
C18   H8    S    
C39   C40   A    
C33   H15   S    
C27   C28   A    
C1    O2    A    
C14   C15   A    
C35   C36   A    
C47   C48   A    
C13   C14   A    
C51   H34   S    
