data_mof_unit_40037.cif
_audit_creation_date              2012-12-10T18:56:00-0500
_audit_creation_method            fapswitch 2.2
_symmetry_space_group_name_H-M    P1
_symmetry_Int_Tables_number       1
_space_group_crystal_system       triclinic
_cell_length_a                    10.778275
_cell_length_b                    9.790995
_cell_length_c                    14.897531
_cell_angle_alpha                 89.723072
_cell_angle_beta                  90.021634
_cell_angle_gamma                 89.893499
_cell_volume                      1572.11579561

loop_
_atom_site_label
_atom_site_type_symbol
_atom_type_description
_atom_site_fract_x
_atom_site_fract_y
_atom_site_fract_z
_atom_type_partial_charge
C1    C     C_R   0.259133 0.500084 0.500438 0.979193
C2    C     C_R   0.935488 0.627935 0.480075 0.389933
C3    C     C_R   0.935625 0.378610 0.466808 0.369285
C4    C     C_R   0.062167 0.626674 0.494630 0.379059
C5    C     C_R   0.516946 0.601954 0.087223 -0.276333
C6    C     C_R   0.449674 0.381992 0.911323 -0.279331
C7    C     C_R   0.408798 0.625099 0.902879 -0.279932
C8    C     C_R   0.363052 0.422447 0.102347 -0.312255
C9    C     C_R   0.537236 0.600563 0.179240 0.454109
C10   C     C_R   0.468251 0.377138 0.819091 0.474192
C11   C     C_R   0.427614 0.623429 0.810884 0.462950
C12   C     C_R   0.739644 0.500350 0.492080 0.979369
C13   C     C_R   0.385382 0.414319 0.194997 0.470378
C14   C     C_R   0.475182 0.502747 0.231902 -0.256101
C15   C     C_R   0.465501 0.500325 0.769012 -0.282237
C16   C     C_R   0.430727 0.513293 0.049405 0.038705
C17   C     C_R   0.423128 0.505750 0.952863 0.022993
C18   C     C_R   0.871454 0.502412 0.477374 -0.446380
C19   C     C_R   0.125924 0.500659 0.493369 -0.429890
C20   C     C_3   0.595935 0.822827 0.202136 -0.325224
C21   C     C_3   0.396841 0.169111 0.776174 -0.300644
C22   C     C_3   0.292552 0.765433 0.740203 -0.258796
C23   C     C_R   0.496547 0.500466 0.327474 0.947255
C24   C     C_3   0.270582 0.212650 0.213329 -0.339230
C25   C     C_3   0.118522 0.190226 0.561363 -0.218250
C26   C     C_3   0.843581 0.784652 0.388623 -0.242536
C27   C     C_3   0.859848 0.240805 0.358251 -0.231958
C28   C     C_3   0.138040 0.837520 0.453811 -0.192290
C29   C     C_R   0.493223 0.499836 0.672998 0.914478
C30   C     C_R   0.550423 0.071462 0.569989 -0.069153
C31   C     C_R   0.453520 0.928577 0.428619 -0.134726
C32   C     C_R   0.452370 0.072674 0.429037 -0.079043
C33   C     C_R   0.549664 0.927303 0.570308 -0.019404
C34   C     C_R   0.062437 0.376495 0.479224 0.399389
H1    H     H_    0.591564 0.125767 0.625493 0.181905
H2    H     H_    0.623761 0.854701 0.133404 0.164369
H3    H     H_    0.495586 0.844487 0.213391 0.149408
H4    H     H_    0.423144 0.072659 0.742400 0.199452
H5    H     H_    0.321116 0.217246 0.736115 0.146066
H6    H     H_    0.362896 0.141295 0.844336 0.152217
H7    H     H_    0.256039 0.678772 0.699901 0.178332
H8    H     H_    0.285714 0.858736 0.697907 0.187572
H9    H     H_    0.234093 0.781540 0.800787 0.141998
H10   H     H_    0.187406 0.234604 0.171600 0.164166
H11   H     H_    0.343947 0.159644 0.173942 0.144170
H12   H     H_    0.415138 0.874342 0.372037 0.129408
H13   H     H_    0.240438 0.141661 0.267290 0.189045
H14   H     H_    0.024038 0.150084 0.575250 0.196577
H15   H     H_    0.184009 0.102839 0.562850 0.167182
H16   H     H_    0.147508 0.261238 0.615697 0.118592
H17   H     H_    0.798024 0.886284 0.387187 0.181703
H18   H     H_    0.927183 0.790015 0.345030 0.113066
H19   H     H_    0.777530 0.709818 0.359776 0.209232
H20   H     H_    0.951323 0.233783 0.323854 0.163308
H21   H     H_    0.809438 0.144069 0.345806 0.162412
H22   H     H_    0.803455 0.325280 0.328800 0.140911
H23   H     H_    0.413847 0.127899 0.372681 0.174201
H24   H     H_    0.159738 0.787052 0.388706 0.114539
H25   H     H_    0.217682 0.902976 0.471156 0.171419
H26   H     H_    0.057516 0.907357 0.447240 0.205169
H27   H     H_    0.589409 0.872089 0.626423 0.170821
H28   H     H_    0.571866 0.668365 0.044622 0.164620
H29   H     H_    0.463263 0.290243 0.951183 0.162167
H30   H     H_    0.387874 0.720912 0.935829 0.161362
H31   H     H_    0.294387 0.358795 0.070187 0.150314
H32   H     H_    0.648861 0.886478 0.250099 0.174006
N1    N     N_R   0.500000 0.857200 0.500000 -0.075304
N2    N     N_R   0.500000 0.142800 0.500000 -0.080439
O1    O     O_R   0.316770 0.614620 0.499990 -0.595268
O2    O     O_3   0.502045 0.254577 0.780087 -0.589061
O3    O     O_3   0.417970 0.745156 0.763878 -0.603627
O4    O     O_3   0.315093 0.333391 0.253401 -0.583760
O5    O     O_3   0.123761 0.252159 0.475600 -0.559389
O6    O     O_3   0.874504 0.752559 0.478594 -0.553918
O7    O     O_3   0.874687 0.256549 0.451655 -0.557118
O8    O     O_3   0.119765 0.744384 0.525157 -0.578509
O9    O     O_R   0.683230 0.385380 0.500010 -0.574435
O10   O     O_R   0.683230 0.614620 0.500010 -0.579592
O11   O     O_R   0.316770 0.385380 0.499990 -0.570189
O12   O     O_R   0.499990 0.614660 0.369060 -0.618520
O13   O     O_R   0.500010 0.385340 0.630940 -0.594851
O14   O     O_R   0.500010 0.614660 0.630940 -0.583316
O15   O     O_R   0.499990 0.385340 0.369060 -0.606924
O16   O     O_3   0.626163 0.684262 0.217723 -0.617237
Zn1   Zn    Zn3+2 0.500000 0.653120 0.500000 0.985518
Zn2   Zn    Zn3+2 0.500000 0.346880 0.500000 0.998659

loop_
_geom_bond_atom_site_label_1
_geom_bond_atom_site_label_2
_ccdc_geom_bond_type
C14   C23   S    
C8    C13   A    
C2    C18   A    
N2    Zn2   S    
C27   H20   S    
C7    C11   A    
C24   O4    S    
C11   O3    S    
C23   O15   A    
C30   H1    S    
C24   H11   S    
C20   H32   S    
C10   C15   A    
C27   H21   S    
C22   H7    S    
C3    C18   A    
C25   H16   S    
C5    C16   A    
C4    C19   A    
C11   C15   A    
C21   H4    S    
C31   C32   A    
C16   C17   S    
C7    C17   A    
C31   H12   S    
C12   O10   A    
C23   O12   A    
C3    O7    S    
O13   Zn2   S    
C2    O6    S    
C32   N2    A    
C8    H31   S    
C8    C16   A    
C13   C14   A    
C32   H23   S    
C27   O7    S    
C15   C29   S    
C28   H26   S    
C1    C19   S    
N1    Zn1   S    
C27   H22   S    
C9    O16   S    
C3    C34   A    
C1    O1    A    
C6    H29   S    
C2    C4    A    
C9    C14   A    
C5    C9    A    
O12   Zn1   S    
C26   H18   S    
C22   H9    S    
C21   H5    S    
C12   O9    A    
C25   H14   S    
C10   O2    S    
O10   Zn1   S    
C29   O13   A    
C20   O16   S    
C1    O11   A    
C28   O8    S    
C26   H19   S    
C22   O3    S    
O1    Zn1   S    
C33   N1    A    
C28   H25   S    
C6    C17   A    
C30   C33   A    
C24   H13   S    
C19   C34   A    
O9    Zn2   S    
C13   O4    S    
C28   H24   S    
O14   Zn1   S    
C21   O2    S    
C29   O14   A    
C26   H17   S    
C20   H3    S    
C22   H8    S    
C21   H6    S    
C24   H10   S    
C26   O6    S    
C5    H28   S    
C25   O5    S    
C25   H15   S    
C7    H30   S    
C4    O8    S    
C6    C10   A    
C31   N1    A    
C34   O5    S    
C20   H2    S    
O15   Zn2   S    
C33   H27   S    
C12   C18   S    
O11   Zn2   S    
C30   N2    A    
