data_mof_unit_41113.cif
_audit_creation_date              2012-12-11T15:37:08-0500
_audit_creation_method            fapswitch 2.2
_symmetry_space_group_name_H-M    P1
_symmetry_Int_Tables_number       1
_space_group_crystal_system       triclinic
_cell_length_a                    15.065587
_cell_length_b                    15.067627
_cell_length_c                    34.803294
_cell_angle_alpha                 91.449252
_cell_angle_beta                  91.796142
_cell_angle_gamma                 60.07221
_cell_volume                      6843.16548995

loop_
_atom_site_label
_atom_site_type_symbol
_atom_type_description
_atom_site_fract_x
_atom_site_fract_y
_atom_site_fract_z
_atom_type_partial_charge
C1    C     C_R   0.610859 0.302378 0.444045 0.548743
C2    C     C_R   0.591254 0.106381 0.764039 -0.114635
C3    C     C_R   0.101903 0.760788 0.887879 -0.117391
C4    C     C_R   0.134288 0.747176 0.850111 -0.083400
C5    C     C_R   0.134042 0.669586 0.827042 0.050081
C6    C     C_R   0.109060 0.600636 0.843186 -0.117583
C7    C     C_R   0.077672 0.613592 0.881059 -0.121211
C8    C     C_R   0.204386 0.572788 0.765982 -0.093691
C9    C     C_R   0.212186 0.570343 0.726231 -0.122497
C10   C     C_R   0.164978 0.661770 0.705379 0.020789
C11   C     C_R   0.110875 0.755758 0.724792 -0.116669
C12   C     C_R   0.102853 0.758226 0.764555 -0.110996
C13   C     C_R   0.590594 0.179499 0.790162 0.019845
C14   C     C_R   0.675244 0.784536 0.167714 -0.134855
C15   C     C_R   0.149404 0.666733 0.785441 0.044300
C16   C     C_R   0.208453 0.721801 0.646828 -0.121609
C17   C     C_R   0.239521 0.705189 0.608832 -0.128390
C18   C     C_R   0.200111 0.567624 0.603187 -0.123851
C19   C     C_R   0.169008 0.584354 0.641141 -0.121033
C20   C     C_R   0.177478 0.658345 0.663653 0.032801
C21   C     C_R   0.240329 0.624589 0.587366 0.023153
C22   C     C_R   0.671888 0.081315 0.906650 0.021280
C23   C     C_R   0.595606 0.068855 0.887223 -0.127964
C24   C     C_R   0.545172 0.201782 0.641729 -0.118283
C25   C     C_R   0.564063 0.106133 0.849955 -0.116393
C26   C     C_R   0.810822 0.609122 0.159999 -0.093919
C27   C     C_R   0.549465 0.222624 0.603172 -0.123201
C28   C     C_R   0.688132 0.255943 0.618889 -0.123070
C29   C     C_R   0.682795 0.236529 0.657438 -0.121718
C30   C     C_R   0.609147 0.212535 0.669300 0.028475
C31   C     C_R   0.618732 0.253218 0.591630 0.022891
C32   C     C_R   0.045439 0.739176 0.048601 0.535571
C33   C     C_R   0.745954 0.690827 0.184069 -0.024671
C34   C     C_R   0.747098 0.746254 0.064054 0.576063
C35   C     C_R   0.751538 0.039941 0.050852 0.542038
C36   C     C_R   0.017636 0.722044 0.939942 0.538450
C37   C     C_R   0.717295 0.729994 0.954813 0.549296
C38   C     C_R   0.807948 0.621170 0.120057 0.257795
C39   C     C_R   0.721247 0.024724 0.942154 0.542718
C40   C     C_R   0.758994 0.587909 0.241282 -0.108674
C41   C     C_R   0.750332 0.580141 0.280590 -0.109946
C42   C     C_R   0.730267 0.662675 0.305406 0.022011
C43   C     C_R   0.723919 0.751368 0.290633 -0.106742
C44   C     C_R   0.607858 0.156937 0.831753 0.034399
C45   C     C_R   0.733924 0.758700 0.251310 -0.104540
C46   C     C_R   0.748574 0.678120 0.226131 0.027608
C47   C     C_R   0.614907 0.737784 0.361148 -0.108993
C48   C     C_R   0.593698 0.610185 0.449532 0.545682
C49   C     C_R   0.580573 0.724793 0.396218 -0.120473
C50   C     C_R   0.732341 0.557299 0.402214 -0.126294
C51   C     C_R   0.766163 0.570077 0.367139 -0.121984
C52   C     C_R   0.705940 0.658734 0.345721 0.026381
C53   C     C_R   0.637219 0.632743 0.416330 0.019236
C54   C     C_R   0.101393 0.729234 0.085222 0.018485
C55   C     C_R   0.678489 0.175730 0.852428 -0.102876
C56   C     C_R   0.147234 0.635401 0.104575 -0.103363
C57   C     C_R   0.168984 0.631893 0.143839 -0.111768
C58   C     C_R   0.146662 0.721741 0.164273 0.025085
C59   C     C_R   0.111800 0.813400 0.144340 -0.120685
C60   C     C_R   0.303682 0.591504 0.442430 0.542222
C61   C     C_R   0.089201 0.817198 0.104941 -0.125924
C62   C     C_R   0.204506 0.758217 0.227830 -0.113356
C63   C     C_R   0.211726 0.750190 0.267846 -0.110208
C64   C     C_R   0.162550 0.706126 0.287116 0.028494
C65   C     C_R   0.102747 0.674163 0.265712 -0.112563
C66   C     C_R   0.710179 0.138271 0.889447 -0.112127
C67   C     C_R   0.096700 0.680993 0.225797 -0.111509
C68   C     C_R   0.149292 0.720988 0.206558 0.023577
C69   C     C_R   0.198927 0.590735 0.342898 -0.109715
C70   C     C_R   0.231660 0.563384 0.380852 -0.116714
C71   C     C_R   0.224647 0.726076 0.392026 -0.125100
C72   C     C_R   0.605287 0.301240 0.553916 0.542678
C73   C     C_R   0.191252 0.753709 0.354076 -0.120616
C74   C     C_R   0.181454 0.684853 0.328775 0.026578
C75   C     C_R   0.248461 0.629215 0.405381 0.016112
C76   C     C_R   0.726658 0.094466 0.088058 0.026672
C77   C     C_R   0.586570 0.267877 0.775899 -0.095607
C78   C     C_R   0.805001 0.094309 0.111078 -0.113917
C79   C     C_R   0.790158 0.117805 0.150184 -0.114297
C80   C     C_R   0.696340 0.143413 0.166608 0.029032
C81   C     C_R   0.615086 0.152849 0.142944 -0.115625
C82   C     C_R   0.630264 0.128097 0.103952 -0.123111
C83   C     C_R   0.599413 0.233213 0.225377 -0.104925
C84   C     C_R   0.586960 0.606206 0.559347 0.541597
C85   C     C_R   0.589343 0.239354 0.265163 -0.050227
C86   C     C_R   0.664457 0.162673 0.288650 0.072562
C87   C     C_R   0.750579 0.080409 0.271966 -0.104880
C88   C     C_R   0.590020 0.279603 0.736477 -0.105052
C89   C     C_R   0.761208 0.074713 0.232189 -0.117304
C90   C     C_R   0.685896 0.151374 0.208645 0.024656
C91   C     C_R   0.735100 0.187229 0.349952 -0.176173
C92   C     C_R   0.723074 0.221151 0.387941 -0.140515
C93   C     C_R   0.560599 0.224857 0.389243 -0.100230
C94   C     C_R   0.572752 0.189129 0.351140 0.275472
C95   C     C_R   0.658377 0.175639 0.330690 0.005466
C96   C     C_R   0.298061 0.589279 0.551731 0.543205
C97   C     C_R   0.633450 0.245035 0.407334 -0.030737
C98   C     C_R   0.691669 0.688684 0.919878 0.020507
C99   C     C_R   0.596414 0.203753 0.710593 0.019682
C100  C     C_R   0.763987 0.592989 0.904573 -0.120149
C101  C     C_R   0.751594 0.564842 0.867099 -0.109157
C102  C     C_R   0.666528 0.631551 0.844433 0.074127
C103  C     C_R   0.590906 0.723905 0.860532 -0.060404
C104  C     C_R   0.602795 0.751844 0.898055 -0.121722
C105  C     C_R   0.581082 0.612582 0.783235 0.250461
C106  C     C_R   0.576415 0.613591 0.742943 -0.107550
C107  C     C_R   0.654783 0.612267 0.721714 -0.016277
C108  C     C_R   0.740777 0.718768 0.104026 0.006945
C109  C     C_R   0.740498 0.606095 0.740976 -0.132366
C110  C     C_R   0.593637 0.118713 0.724526 -0.115897
C111  C     C_R   0.744995 0.607496 0.781034 -0.168436
C112  C     C_R   0.664699 0.613478 0.802568 0.008520
C113  C     C_R   0.722829 0.545515 0.656206 -0.119800
C114  C     C_R   0.707549 0.545609 0.616354 -0.129890
C115  C     C_R   0.541241 0.698357 0.622423 -0.124916
C116  C     C_R   0.555902 0.697183 0.662185 -0.122453
C117  C     C_R   0.645386 0.619142 0.679445 0.033291
C118  C     C_R   0.615120 0.620261 0.599189 0.022050
C119  C     C_R   0.069889 0.696289 0.903135 0.023338
C120  C     C_R   0.672906 0.798385 0.128386 -0.166467
Cr1   Cr    Cr6+3 0.426010 0.422500 0.497000 1.024207
Cr2   Cr    Cr6+3 0.651300 0.426310 0.501970 1.012455
Cr3   Cr    Cr6+3 0.422670 0.651170 0.501050 1.014213
Cr4   Cr    Cr6+3 0.905130 0.911420 0.992650 1.020454
Cr5   Cr    Cr6+3 0.911860 0.682710 0.002320 1.111488
Cr6   Cr    Cr6+3 0.682710 0.906840 0.004710 1.022330
H1    H     H_    0.619924 0.873771 0.117335 0.149427
H2    H     H_    0.197787 0.560057 0.158727 0.123111
H3    H     H_    0.062239 0.641996 0.279775 0.111434
H4    H     H_    0.051627 0.654096 0.209813 0.120612
H5    H     H_    0.193273 0.535403 0.324051 0.132714
H6    H     H_    0.249714 0.488065 0.390211 0.149839
H7    H     H_    0.094604 0.883407 0.159711 0.107491
H8    H     H_    0.236181 0.778759 0.410370 0.126313
H9    H     H_    0.880200 0.068269 0.099637 0.127078
H10   H     H_    0.568632 0.128889 0.086793 0.125634
H11   H     H_    0.524287 0.305302 0.277728 0.147778
H12   H     H_    0.507331 0.784441 0.406518 0.136253
H13   H     H_    0.540882 0.293344 0.207716 0.112906
H14   H     H_    0.837155 0.508728 0.355867 0.110645
H15   H     H_    0.853308 0.111610 0.167949 0.111152
H16   H     H_    0.809863 0.021418 0.289791 0.111132
H17   H     H_    0.827821 0.010067 0.219756 0.109879
H18   H     H_    0.801582 0.176380 0.334770 0.118992
H19   H     H_    0.781136 0.234927 0.401225 0.143279
H20   H     H_    0.542068 0.172565 0.155076 0.120093
H21   H     H_    0.492149 0.240822 0.404228 0.173300
H22   H     H_    0.833310 0.542639 0.920631 0.135257
H23   H     H_    0.864956 0.536054 0.172464 0.161208
H24   H     H_    0.546102 0.826392 0.908811 0.130088
H25   H     H_    0.495892 0.755507 0.679652 0.107660
H26   H     H_    0.753872 0.511567 0.291335 0.110785
H27   H     H_    0.511562 0.615377 0.727878 0.123463
H28   H     H_    0.811084 0.493561 0.855033 0.109662
H29   H     H_    0.801904 0.604489 0.725035 0.119351
H30   H     H_    0.809614 0.608161 0.795324 0.115738
H31   H     H_    0.792595 0.484833 0.669062 0.104859
H32   H     H_    0.765665 0.484188 0.599270 0.119848
H33   H     H_    0.526153 0.777719 0.843194 0.147937
H34   H     H_    0.778411 0.485941 0.417257 0.128264
H35   H     H_    0.468983 0.756741 0.610246 0.126100
H36   H     H_    0.097920 0.824250 0.904597 0.128736
H37   H     H_    0.768849 0.525196 0.222610 0.118955
H38   H     H_    0.053311 0.562828 0.892174 0.130234
H39   H     H_    0.143165 0.536120 0.653506 0.103904
H40   H     H_    0.256638 0.497090 0.711828 0.116093
H41   H     H_    0.241948 0.501407 0.781535 0.132040
H42   H     H_    0.155611 0.799737 0.838457 0.137038
H43   H     H_    0.073771 0.827003 0.709142 0.107437
H44   H     H_    0.058021 0.831545 0.778844 0.103745
H45   H     H_    0.158547 0.566147 0.090090 0.161053
H46   H     H_    0.215624 0.779272 0.663784 0.104616
H47   H     H_    0.269947 0.750451 0.597313 0.124998
H48   H     H_    0.107562 0.540602 0.825899 0.099559
H49   H     H_    0.621846 0.847919 0.185405 0.133697
H50   H     H_    0.198675 0.505881 0.587080 0.128707
H51   H     H_    0.564837 0.025170 0.899856 0.124884
H52   H     H_    0.768588 0.149599 0.903875 0.135400
H53   H     H_    0.734046 0.243483 0.678252 0.107011
H54   H     H_    0.589589 0.347100 0.726190 0.132355
H55   H     H_    0.584148 0.326344 0.795309 0.172148
H56   H     H_    0.053920 0.890620 0.090811 0.127223
H57   H     H_    0.508505 0.091749 0.834820 0.106378
H58   H     H_    0.598262 0.059538 0.704972 0.108017
H59   H     H_    0.595749 0.036859 0.774159 0.106008
H60   H     H_    0.488145 0.182885 0.650324 0.105619
H61   H     H_    0.709143 0.815558 0.309394 0.138461
H62   H     H_    0.494922 0.220164 0.582773 0.122416
H63   H     H_    0.714532 0.213593 0.839137 0.112985
H64   H     H_    0.741839 0.279993 0.610982 0.128020
H65   H     H_    0.727850 0.828328 0.240482 0.123412
H66   H     H_    0.567007 0.806648 0.344917 0.134224
H67   H     H_    0.176392 0.827543 0.344175 0.105699
H68   H     H_    0.966105 0.347621 0.099345 0.369136
H69   H     H_    0.376543 0.114982 0.351041 0.367214
H70   H     H_    0.381566 0.602764 0.763508 0.346932
H71   H     H_    0.259425 0.774353 0.283494 0.109841
H72   H     H_    0.245133 0.789705 0.213394 0.114410
O1    O     O_R   0.324990 0.503440 0.453910 -0.515309
O2    O     O_R   0.675430 0.831160 0.051290 -0.529593
O3    O     O_R   0.698870 0.998880 0.039560 -0.503903
O4    O     O_R   0.522030 0.339050 0.458320 -0.499925
O5    O     O_R   0.811290 0.006780 0.950620 -0.513954
O6    O     O_R   0.980960 0.812920 0.953200 -0.503155
O7    O     O_R   0.001480 0.656720 0.955830 -0.516740
O8    O     O_R   0.809240 0.683250 0.968050 -0.490592
O9    O     O_R   0.652500 0.818540 0.967340 -0.517829
O10   O     O_R   0.677620 0.987170 0.961730 -0.501852
O11   O     O_3   0.833240 0.833660 0.999890 -0.258779
O12   O     O_R   0.639980 0.519500 0.542640 -0.502050
O13   O     O_R   0.676180 0.324490 0.458320 -0.515892
O14   O     O_R   0.643570 0.521510 0.464260 -0.503296
O15   O     O_R   0.504630 0.675350 0.460920 -0.515591
O16   O     O_R   0.339850 0.642450 0.459830 -0.501098
O17   O     O_R   0.321120 0.501280 0.538470 -0.517337
O18   O     O_R   0.518440 0.337050 0.536710 -0.498822
O19   O     O_R   0.672300 0.322330 0.542880 -0.519391
O20   O     O_2   0.832072 0.510717 0.055390 -0.276865
O21   O     O_2   0.983021 0.514027 0.082367 -0.282709
O22   O     O_3   0.920647 0.404658 0.116614 -0.545317
O23   O     O_R   0.500750 0.673190 0.545480 -0.519787
O24   O     O_2   0.395688 0.259243 0.311850 -0.308162
O25   O     O_2   0.526190 0.079743 0.300432 -0.290577
O26   O     O_3   0.428315 0.127129 0.364655 -0.542332
O27   O     O_2   0.524600 0.548969 0.844734 -0.241291
O28   O     O_2   0.399362 0.714230 0.817370 -0.320771
O29   O     O_3   0.433434 0.548637 0.780399 -0.538171
O30   O     O_R   0.336260 0.640450 0.538210 -0.505016
O31   O     O_3   0.499990 0.499990 0.500010 -0.237526
O32   O     O_R   0.834210 0.019400 0.034570 -0.514427
O33   O     O_R   0.002210 0.824620 0.031030 -0.508053
O34   O     O_R   0.024400 0.669340 0.039790 -0.479264
O35   O     O_R   0.830490 0.694950 0.045870 -0.418748
S1    S     S_3+6 0.887608 0.511690 0.091912 0.008041
S2    S     S_3+6 0.479127 0.163515 0.330262 -0.020893
S3    S     S_3+6 0.482871 0.607370 0.807999 -0.017194

loop_
_geom_bond_atom_site_label_1
_geom_bond_atom_site_label_2
_ccdc_geom_bond_type
C23   H51   S    
C32   O34   A    
C93   C94   A    
Cr2   O19   S    
C39   O5    A    
C1    O13   A    
C18   C21   A    
C107  C109  A    
C41   C42   A    
C108  C120  A    
C102  C112  S    
C19   C20   A    
C24   C27   A    
Cr5   O34   S    
C14   C33   A    
C83   H13   S    
C81   C82   A    
C120  H1    S    
C47   C49   A    
C41   H26   S    
C85   C86   A    
C56   C57   A    
C40   C46   A    
C72   O19   A    
C66   H52   S    
C61   H56   S    
C101  C102  A    
C96   O17   A    
Cr4   O6    S    
C5    C6    A    
C96   O30   A    
O22   S1    S    
C28   C29   A    
O26   S2    S    
C76   C78   A    
Cr1   O4    S    
C113  C114  A    
C73   H67   S    
C84   O23   A    
C109  C111  A    
C12   H44   S    
H69   O26   S    
C80   C81   A    
C84   O12   A    
C94   S2    S    
C16   C17   A    
Cr4   O11   S    
C24   C30   A    
C115  C116  A    
C1    C97   S    
Cr5   O8    S    
C18   H50   S    
O28   S3    D    
C116  C117  A    
C24   H60   S    
C18   C19   A    
C37   O8    A    
C104  H24   S    
C47   H66   S    
Cr2   O31   S    
C2    C13   A    
C60   O16   A    
Cr1   O1    S    
C3    H36   S    
C45   H65   S    
C22   C66   A    
C111  C112  A    
C77   C88   A    
Cr6   O10   S    
C8    C9    A    
C65   C67   A    
C77   H55   S    
Cr2   O12   S    
C29   C30   A    
C9    C10   A    
C60   O1    A    
C16   C20   A    
C27   H62   S    
C69   C70   A    
C51   H14   S    
C106  H27   S    
C32   O33   A    
C110  H58   S    
C63   C64   A    
C49   H12   S    
C80   C90   S    
C33   C46   S    
C37   O9    A    
O21   S1    D    
C94   C95   A    
C57   H2    S    
C114  H32   S    
C1    O4    A    
C25   C44   A    
C32   C54   S    
C37   C98   S    
C17   H47   S    
C92   C97   A    
C88   H54   S    
C6    C7    A    
C13   C77   A    
C55   H63   S    
Cr6   O3    S    
C48   C53   S    
C35   C76   S    
C54   C56   A    
O24   S2    D    
C59   C61   A    
C50   C53   A    
Cr1   O31   S    
C54   C61   A    
Cr4   O5    S    
C27   C31   A    
C51   C52   A    
Cr4   O33   S    
Cr1   O18   S    
C48   O14   A    
C3    C119  A    
C62   H72   S    
C40   H37   S    
C7    H38   S    
C10   C11   A    
C10   C20   S    
C91   C92   A    
C71   C73   A    
Cr5   O11   S    
C86   C87   A    
C35   O3    A    
H68   O22   S    
Cr3   O30   S    
C6    H48   S    
C50   H34   S    
C58   C59   A    
C89   H17   S    
C99   C110  A    
C30   C99   S    
C59   H7    S    
C17   C21   A    
C4    H42   S    
C14   H49   S    
C115  H35   S    
C67   C68   A    
C62   C63   A    
O29   S3    S    
C8    H41   S    
C7    C119  A    
Cr3   O23   S    
C16   H46   S    
C26   C33   A    
C98   C104  A    
Cr3   O31   S    
C12   C15   A    
C43   H61   S    
Cr6   O9    S    
C69   H5    S    
C115  C118  A    
C39   O10   A    
C70   H6    S    
C50   C51   A    
C69   C74   A    
C106  C107  A    
C43   C45   A    
O20   S1    D    
C114  C118  A    
O25   S2    D    
C113  C117  A    
C58   C68   S    
C40   C41   A    
C72   O18   A    
C105  C112  A    
C11   H43   S    
C8    C15   A    
C98   C100  A    
C87   C89   A    
C56   H45   S    
C105  S3    S    
Cr2   O14   S    
C45   C46   A    
C67   H4    S    
C42   C43   A    
C76   C82   A    
C3    C4    A    
C73   C74   A    
C93   C97   A    
C70   C75   A    
C55   C66   A    
C9    H40   S    
C91   H18   S    
C78   H9    S    
C85   H11   S    
Cr6   O2    S    
C83   C90   A    
C48   O15   A    
C31   C72   S    
C83   C85   A    
C92   H19   S    
C78   C79   A    
O27   S3    D    
C28   C31   A    
C26   C38   A    
C116  H25   S    
C4    C5    A    
Cr6   O11   S    
C28   H64   S    
C38   S1    S    
C65   H3    S    
C11   C12   A    
C47   C52   A    
C21   C96   S    
C36   C119  S    
C36   O6    A    
C105  C106  A    
C60   C75   S    
C14   C120  A    
C62   C68   A    
C35   O32   A    
C34   C108  S    
C64   C65   A    
Cr3   O15   S    
C2    H59   S    
C26   H23   S    
C71   H8    S    
C71   C75   A    
C44   C55   A    
C103  H33   S    
C57   C58   A    
C79   H15   S    
C101  H28   S    
C100  H22   S    
C49   C53   A    
C22   C39   S    
Cr5   O7    S    
C100  C101  A    
C93   H21   S    
C22   C23   A    
C36   O7    A    
C23   C25   A    
C87   H16   S    
C38   C108  A    
C102  C103  A    
C109  H29   S    
C5    C15   S    
H70   O29   S    
C88   C99   A    
Cr5   O35   S    
C86   C95   S    
C82   H10   S    
C91   C95   A    
C79   C80   A    
C34   O2    A    
C111  H30   S    
Cr1   O17   S    
C84   C118  S    
C81   H20   S    
C29   H53   S    
Cr3   O16   S    
C103  C104  A    
C64   C74   S    
Cr2   O13   S    
C63   H71   S    
C19   H39   S    
C113  H31   S    
C89   C90   A    
C34   O35   A    
C107  C117  S    
C13   C44   S    
Cr4   O32   S    
C25   H57   S    
C42   C52   S    
C2    C110  A    
