data_mof_unit_19218.cif
_audit_creation_date              2012-12-11T15:53:42-0500
_audit_creation_method            fapswitch 2.2
_symmetry_space_group_name_H-M    P1
_symmetry_Int_Tables_number       1
_space_group_crystal_system       triclinic
_cell_length_a                    10.790647
_cell_length_b                    10.73545
_cell_length_c                    17.152457
_cell_angle_alpha                 80.206106
_cell_angle_beta                  100.370012
_cell_angle_gamma                 118.815094
_cell_volume                      1704.49081401

loop_
_atom_site_label
_atom_site_type_symbol
_atom_type_description
_atom_site_fract_x
_atom_site_fract_y
_atom_site_fract_z
_atom_type_partial_charge
C1    C     C_R   0.362395 0.230770 0.627822 0.548574
C2    C     C_1   0.319336 0.159365 0.777928 -0.044882
C3    C     C_1   0.332975 0.665026 0.278054 -0.026995
C4    C     C_R   0.376873 0.650384 0.589956 0.568385
C5    C     C_1   0.320719 0.675558 0.207427 0.000506
C6    C     C_R   0.859094 0.682013 0.163332 -0.017573
C7    C     C_R   0.919687 0.617234 0.224488 -0.049176
C8    C     C_R   0.893742 0.604038 0.301041 -0.000741
C9    C     C_R   0.784025 0.759093 0.262847 0.030584
C10   C     C_R   0.799167 0.762117 0.182647 0.078090
C11   C     C_3   0.918303 0.474789 0.234829 -0.098975
C12   C     C_R   0.477028 0.744536 0.718958 -0.136205
C13   C     C_3   0.875746 0.454919 0.317892 -0.047407
C14   C     C_R   0.822799 0.668931 0.322287 -0.026000
C15   C     C_R   0.340537 0.169685 0.161093 -0.040861
C16   C     C_R   0.780649 0.620594 0.626446 0.563953
C17   C     C_R   0.280857 0.247594 0.181285 -0.045425
C18   C     C_R   0.280831 0.259615 0.258849 0.003342
C19   C     C_R   0.414668 0.130294 0.303295 0.070923
C20   C     C_R   0.428327 0.128682 0.222661 -0.043979
C21   C     C_3   0.144286 0.256031 0.156170 -0.224433
C22   C     C_3   0.144885 0.270025 0.243104 -0.077049
C23   C     C_R   0.469627 0.738671 0.799775 0.072696
C24   C     C_R   0.335752 0.191593 0.320553 0.099032
C25   C     C_R   0.946381 0.724670 0.851893 0.554730
C26   C     C_R   0.314499 0.705347 0.899075 0.552752
C27   C     C_R   0.282735 0.112657 0.857298 0.539045
C28   C     C_R   0.351474 0.229252 0.399187 0.599066
C29   C     C_R   0.891585 0.692882 0.084520 0.542442
C30   C     C_R   0.311812 0.702443 0.124375 0.556215
C31   C     C_R   0.287627 0.106934 0.085632 0.544199
C32   C     C_R   0.364906 0.654179 0.360896 0.533326
C33   C     C_R   0.766983 0.621708 0.398357 0.559289
C34   C     C_3   0.113041 0.432356 0.784620 -0.298114
C35   C     C_R   0.335551 0.663163 0.828760 0.033043
C36   C     C_R   0.213994 0.588836 0.776854 -0.025276
C37   C     C_R   0.224150 0.587519 0.697650 0.042399
C38   C     C_2   0.806066 0.371103 0.179938 0.277110
C39   C     C_2   0.536327 0.089939 0.206001 0.260944
C40   C     C_2   0.019273 0.148039 0.279998 0.229440
C41   C     C_2   0.989872 0.396486 0.643904 0.257021
C42   C     C_2   0.719728 0.843874 0.280980 0.336798
C43   C     C_3   0.125788 0.430555 0.698122 -0.109308
C44   C     C_R   0.354935 0.667191 0.667368 -0.005929
C45   C     C_1   0.849585 0.668478 0.703080 -0.044258
C46   C     C_1   0.896338 0.703243 0.769631 -0.048216
C47   C     C_1   0.346047 0.188282 0.710144 -0.042283
Cr1   Cr    Cr6+3 0.608440 0.389080 0.519680 1.070271
Cr2   Cr    Cr6+3 0.288640 0.400090 0.490760 1.054537
Cr3   Cr    Cr6+3 0.602940 0.710800 0.489510 1.037602
Cr4   Cr    Cr6+3 0.052530 0.947560 0.964210 1.009092
Cr5   Cr    Cr6+3 0.059970 0.626800 0.992920 1.041824
Cr6   Cr    Cr6+3 0.373320 0.938440 0.995370 1.052051
H1    H     H_    0.580975 0.802187 0.697765 0.146295
H2    H     H_    0.700914 0.364387 0.168161 0.094555
H3    H     H_    0.001365 0.362925 0.372221 0.236159
H4    H     H_    0.072666 0.538891 0.384118 0.263959
H5    H     H_    0.580690 0.121343 0.378926 0.278189
H6    H     H_    0.441184 0.958689 0.355420 0.281329
H7    H     H_    0.547476 0.075570 0.147668 0.208806
H8    H     H_    0.917539 0.148716 0.268777 0.171082
H9    H     H_    0.612077 0.730315 0.891675 0.231759
H10   H     H_    0.686454 0.863908 0.821161 0.234898
H11   H     H_    0.888246 0.321394 0.665212 0.111725
H12   H     H_    0.764346 0.372242 0.325616 0.177811
H13   H     H_    0.758125 0.900867 0.333720 0.170631
H14   H     H_    0.833712 0.932387 0.099195 0.254394
H15   H     H_    0.683894 0.777202 0.076248 0.235611
H16   H     H_    0.054194 0.156306 0.134304 0.176145
H17   H     H_    0.160287 0.354841 0.116729 0.147303
H18   H     H_    0.162332 0.376024 0.254199 0.094921
H19   H     H_    0.006439 0.411742 0.796557 0.146964
H20   H     H_    0.158842 0.370243 0.826815 0.145366
H21   H     H_    0.178634 0.367262 0.690453 0.146795
H22   H     H_    0.026170 0.487329 0.234091 0.134380
N1    N     N_3   0.978604 0.442495 0.382738 -0.546150
N2    N     N_3   0.470195 0.061225 0.368523 -0.586131
N3    N     N_3   0.597395 0.809396 0.852576 -0.582803
N4    N     N_3   0.747695 0.841661 0.121777 -0.540632
O1    O     O_R   0.754020 0.497590 0.609930 -0.486797
O2    O     O_R   0.406180 0.826930 0.920660 -0.471824
O3    O     O_R   0.358620 0.062870 0.901950 -0.487823
O4    O     O_R   0.481420 0.271390 0.600630 -0.493808
O5    O     O_R   0.163910 0.085460 0.050210 -0.514970
O6    O     O_R   0.935200 0.815170 0.045770 -0.509441
O7    O     O_R   0.916120 0.596690 0.069430 -0.486629
O8    O     O_R   0.192310 0.631200 0.086170 -0.520305
O9    O     O_R   0.406770 0.819480 0.096420 -0.475825
O10   O     O_R   0.359170 0.055960 0.064880 -0.539871
O11   O     O_3   0.161940 0.837600 0.984160 -0.279365
O12   O     O_R   0.295080 0.533620 0.397890 -0.530684
O13   O     O_R   0.263810 0.254550 0.589590 -0.513849
O14   O     O_R   0.300820 0.531200 0.560890 -0.469967
O15   O     O_R   0.491480 0.744020 0.564270 -0.525748
O16   O     O_R   0.726290 0.693800 0.583010 -0.502464
O17   O     O_R   0.747830 0.500190 0.434090 -0.468089
O18   O     O_R   0.475680 0.273800 0.437630 -0.501674
O19   O     O_R   0.257620 0.257160 0.413750 -0.490348
O20   O     O_2   0.834275 0.298819 0.145581 -0.515431
O21   O     O_2   0.628443 0.087327 0.258041 -0.522524
O22   O     O_2   0.029608 0.048949 0.322153 -0.525748
O23   O     O_R   0.485280 0.746620 0.388440 -0.497211
O24   O     O_2   0.992866 0.447805 0.574631 -0.448471
O25   O     O_2   0.622637 0.852098 0.235945 -0.453587
O26   O     O_R   0.720550 0.696220 0.420010 -0.532255
O27   O     O_3   0.500010 0.499990 0.499980 -0.281658
O28   O     O_R   0.163320 0.092900 0.874450 -0.524966
O29   O     O_R   0.934650 0.822080 0.882840 -0.502992
O30   O     O_R   0.915520 0.604140 0.893670 -0.501540
O31   O     O_R   0.191760 0.638110 0.923230 -0.523691

loop_
_geom_bond_atom_site_label_1
_geom_bond_atom_site_label_2
_ccdc_geom_bond_type
C28   O18   A    
C8    C13   S    
H3    N1    S    
Cr5   O11   S    
C19   C20   A    
Cr4   O6    S    
C14   C33   S    
C7    C8    A    
C13   H12   S    
C45   C46   T    
C7    C11   S    
Cr1   O18   S    
C12   C23   A    
C9    C42   S    
C18   C24   A    
H4    N1    S    
C36   C37   A    
Cr4   O11   S    
Cr3   O16   S    
C32   O12   A    
Cr6   O2    S    
C19   N2    S    
H5    N2    S    
C40   O22   D    
Cr1   O27   S    
C38   H2    S    
C35   C36   A    
Cr4   O29   S    
C31   O10   A    
Cr3   O26   S    
C2    C27   S    
C27   O28   A    
C9    C10   A    
C26   O31   A    
C29   O6    A    
C25   O30   A    
H15   N4    S    
Cr2   O19   S    
C21   C22   S    
C41   C43   S    
H6    N2    S    
Cr2   O12   S    
C27   O3    A    
C15   C20   A    
H14   N4    S    
C20   C39   S    
C1    C47   S    
C4    C44   S    
C17   C21   S    
C40   H8    S    
C41   O24   D    
C21   H16   S    
Cr6   O3    S    
C16   O1    A    
C37   C43   S    
C11   C38   S    
C9    C14   A    
C13   N1    S    
Cr5   O31   S    
C22   C40   S    
C17   C18   A    
C33   O26   A    
C29   O7    A    
Cr2   O27   S    
C4    O15   A    
Cr3   O23   S    
C26   O2    A    
C23   C35   A    
Cr6   O10   S    
C32   O23   A    
C1    O4    A    
Cr2   O13   S    
C30   O9    A    
C33   O17   A    
C34   H19   S    
C22   H18   S    
C42   H13   S    
C5    C30   S    
C28   O19   A    
C15   C17   A    
C16   O16   A    
C8    C14   A    
Cr1   O17   S    
C18   C22   S    
H9    N3    S    
Cr5   O8    S    
Cr3   O15   S    
C34   C43   S    
C24   C28   S    
C38   O20   D    
C3    C5    T    
C42   O25   D    
C16   C45   S    
C6    C10   A    
C10   N4    S    
C15   C31   S    
C6    C7    A    
C2    C47   T    
C1    O13   A    
Cr1   O4    S    
C21   H17   S    
Cr1   O1    S    
C37   C44   A    
Cr5   O7    S    
C19   C24   A    
C12   C44   A    
C11   H22   S    
C11   C13   S    
C39   O21   D    
Cr5   O30   S    
C43   H21   S    
C39   H7    S    
C25   C46   S    
Cr6   O9    S    
C34   C36   S    
C23   N3    S    
C3    C32   S    
C31   O5    A    
C34   H20   S    
C4    O14   A    
C26   C35   S    
C6    C29   S    
Cr4   O28   S    
Cr6   O11   S    
Cr3   O27   S    
C41   H11   S    
Cr2   O14   S    
C30   O8    A    
Cr4   O5    S    
C12   H1    S    
C25   O29   A    
H10   N3    S    
