data_mof_unit_45982.cif
_audit_creation_date              2012-12-10T20:57:52-0500
_audit_creation_method            fapswitch 2.2
_symmetry_space_group_name_H-M    P1
_symmetry_Int_Tables_number       1
_space_group_crystal_system       triclinic
_cell_length_a                    18.221047
_cell_length_b                    18.258277
_cell_length_c                    18.366653
_cell_angle_alpha                 120.002361
_cell_angle_beta                  89.930406
_cell_angle_gamma                 120.060482
_cell_volume                      4319.15652074

loop_
_atom_site_label
_atom_site_type_symbol
_atom_type_description
_atom_site_fract_x
_atom_site_fract_y
_atom_site_fract_z
_atom_type_partial_charge
C1    C     C_R   0.358269 0.220045 0.360986 0.836139
C2    C     C_3   0.800131 0.941546 0.721768 -0.362659
C3    C     C_3   0.698810 0.897506 0.698832 0.066598
C4    C     C_R   0.641014 0.780984 0.640014 0.830634
C5    C     C_3   0.799366 0.102368 0.803050 0.096702
C6    C     C_3   0.737516 0.057682 0.848821 -0.379150
C7    C     C_3   0.858745 0.060844 0.781840 -0.376591
C8    C     C_3   0.678429 0.391013 0.241396 -0.560338
C9    C     C_3   0.737669 0.390194 0.181013 0.494013
C10   C     C_3   0.680176 0.530832 0.242818 0.511004
C11   C     C_3   0.799726 0.578337 0.360204 -0.376071
C12   C     C_3   0.265084 0.564779 0.360147 -0.693692
C13   C     C_3   0.698618 0.500391 0.302383 -0.017798
C14   C     C_3   0.799619 0.499599 0.200511 -0.013069
C15   C     C_3   0.740667 0.531706 0.183706 -0.431714
C16   C     C_R   0.359739 0.500989 0.641212 0.815641
C17   C     C_3   0.858801 0.578061 0.300660 -0.469980
C18   C     C_R   0.305313 0.149215 0.584259 0.557552
C19   C     C_R   0.307080 0.105413 0.496908 0.517716
C20   C     C_R   0.255478 0.098837 0.434186 -0.339078
C21   C     C_R   0.201851 0.135823 0.459574 0.527976
C22   C     C_R   0.199862 0.178787 0.546750 0.532502
C23   C     C_3   0.298122 0.498276 0.301830 -0.148527
C24   C     C_R   0.251473 0.185405 0.609003 -0.543917
C25   C     C_R   0.204771 0.943787 0.285896 -0.166343
C26   C     C_R   0.196129 0.892250 0.195647 -0.088114
C27   C     C_R   0.239939 0.949056 0.159629 -0.010719
C28   C     C_R   0.640794 0.500067 0.359537 0.856935
C29   C     C_R   0.292275 0.056156 0.215516 -0.254988
C30   C     C_R   0.300767 0.107663 0.305820 -0.024629
C31   C     C_R   0.255599 0.050768 0.341293 0.212230
C32   C     C_R   0.295857 0.876917 0.038176 -0.110166
C33   C     C_R   0.293498 0.832171 0.949763 -0.221050
C34   C     C_3   0.194729 0.497994 0.201300 -0.161157
C35   C     C_R   0.229478 0.810645 0.886773 -0.243653
C36   C     C_R   0.166905 0.832984 0.911492 0.712599
C37   C     C_R   0.168258 0.878492 0.000789 -0.113830
C38   C     C_R   0.233974 0.900537 0.064561 -0.009260
C39   C     C_R   0.917610 0.685228 0.606124 -0.076777
C40   C     C_R   0.641898 0.500410 0.640351 0.803771
C41   C     C_R   0.867308 0.612995 0.625532 0.060031
C42   C     C_R   0.845107 0.645225 0.704826 -0.034397
C43   C     C_R   0.873906 0.749797 0.763651 0.044587
C44   C     C_R   0.929290 0.822553 0.744684 0.046652
C45   C     C_3   0.157227 0.385075 0.168233 0.376130
C46   C     C_R   0.948147 0.788191 0.664820 -0.255173
C47   C     C_R   0.842415 0.567245 0.781741 -0.227607
C48   C     C_R   0.799447 0.498706 0.806003 -0.060872
C49   C     C_R   0.704594 0.430786 0.775433 -0.022777
C50   C     C_R   0.655331 0.433180 0.720901 -0.209189
C51   C     C_R   0.698309 0.501810 0.696649 -0.067603
C52   C     C_R   0.357290 0.499360 0.359338 0.865538
C53   C     C_R   0.793219 0.569899 0.727369 -0.078784
C54   C     C_R   0.628482 0.253949 0.741643 -0.081136
C55   C     C_R   0.582313 0.184090 0.764132 -0.112562
C56   C     C_3   0.202499 0.563079 0.301769 -0.190688
C57   C     C_R   0.561189 0.215792 0.842761 -0.039358
C58   C     C_R   0.585764 0.317254 0.898826 -0.058073
C59   C     C_R   0.631852 0.387343 0.876553 -0.123491
C60   C     C_R   0.653918 0.356121 0.798066 0.143041
C61   C     C_R   0.390020 0.803476 0.723190 -0.136767
C62   C     C_R   0.368640 0.734758 0.746261 -0.115415
C63   C     C_R   0.289863 0.633353 0.693649 0.054210
C64   C     C_3   0.351164 0.544997 0.252680 0.557483
C65   C     C_R   0.231487 0.600882 0.616836 0.006325
C66   C     C_R   0.253976 0.671598 0.594990 -0.092326
C67   C     C_3   0.680185 0.940857 0.652295 0.502621
C68   C     C_R   0.332808 0.771950 0.647719 -0.138009
C69   C     C_R   0.215309 0.559563 0.773914 -0.259629
C70   C     C_R   0.195571 0.498880 0.805884 -0.033755
C71   C     C_R   0.231732 0.440544 0.784915 0.118978
C72   C     C_R   0.286047 0.444266 0.732066 -0.100890
C73   C     C_R   0.304682 0.503761 0.698967 -0.056448
C74   C     C_R   0.269933 0.563671 0.721492 -0.040144
C75   C     C_R   0.273270 0.407833 0.892973 -0.124437
C76   C     C_3   0.291206 0.547995 0.196080 -0.575620
C77   C     C_R   0.251602 0.338115 0.916011 0.585328
C78   C     C_3   0.739524 0.061084 0.713441 -0.444490
C79   C     C_R   0.172995 0.237507 0.864104 -0.146218
C80   C     C_R   0.114910 0.204562 0.788549 -0.252262
C81   C     C_R   0.135028 0.271997 0.764348 -0.105531
C82   C     C_R   0.213886 0.373470 0.815366 0.028871
C83   C     C_R   0.857080 0.499707 0.142874 0.811347
C84   C     C_R   0.138617 0.499665 0.861668 0.810402
C85   C     C_R   0.856823 0.218969 0.862218 0.784042
C86   C     C_R   0.139245 0.779939 0.141084 0.802203
C87   C     C_R   0.855868 0.499758 0.862001 0.800147
C88   C     C_3   0.213259 0.385917 0.232286 0.463430
C89   C     C_3   0.678595 0.937583 0.787783 -0.509138
C90   C     C_R   0.138378 0.498818 0.142998 0.887321
C91   C     C_2   0.112701 0.525376 0.317119 0.535460
C92   C     C_2   0.101245 0.901614 0.027277 0.487794
C93   C     C_2   0.837689 0.504070 0.562161 0.392068
C94   C     C_2   0.841687 0.779338 0.841254 0.523814
C95   C     C_2   0.973525 0.935849 0.807479 0.479253
C96   C     C_2   0.148156 0.494002 0.559085 0.391191
C97   C     C_2   0.357026 0.514661 0.952021 0.400243
F1    F     F_    0.381242 0.487620 0.198272 -0.557499
F2    F     F_    0.105220 0.809830 0.847786 -0.641773
F3    F     F_    0.236828 0.318812 0.182826 -0.575088
F4    F     F_    0.306597 0.367293 0.989099 -0.637636
F5    F     F_    0.067237 0.329809 0.159983 -0.683086
F6    F     F_    0.696850 0.906488 0.572058 -0.649647
F7    F     F_    0.683025 0.316772 0.092320 -0.662015
F8    F     F_    0.695788 0.627567 0.295151 -0.637163
F9    F     F_    0.355617 0.156364 0.645039 -0.610093
F10   F     F_    0.359308 0.070079 0.473453 -0.615922
F11   F     F_    0.151174 0.129447 0.399657 -0.612138
F12   F     F_    0.147503 0.213662 0.570657 -0.642250
H1    H     H_    0.171545 0.356796 0.268160 0.119734
H2    H     H_    0.902920 0.090312 0.747551 0.182989
H3    H     H_    0.903040 0.089113 0.844691 0.211196
H4    H     H_    0.691753 0.908156 0.822906 0.224356
H5    H     H_    0.779030 0.085937 0.913215 0.207116
H6    H     H_    0.606137 0.332836 0.199502 0.228441
H7    H     H_    0.691682 0.367922 0.282848 0.177208
H8    H     H_    0.779730 0.367428 0.194175 0.102215
H9    H     H_    0.608485 0.473810 0.199099 0.125439
H10   H     H_    0.321469 0.629809 0.220756 0.164908
H11   H     H_    0.697762 0.477704 0.112393 0.178235
H12   H     H_    0.608179 0.912090 0.637393 0.079027
H13   H     H_    0.816990 0.658004 0.405580 0.238565
H14   H     H_    0.814377 0.556884 0.402507 0.205220
H15   H     H_    0.902226 0.557390 0.315182 0.229224
H16   H     H_    0.903865 0.657548 0.317124 0.225226
H17   H     H_    0.784450 0.610367 0.198286 0.204239
H18   H     H_    0.249931 0.218613 0.676475 0.231655
H19   H     H_    0.289003 0.506878 0.125625 0.251314
H20   H     H_    0.169709 0.900655 0.313420 0.175969
H21   H     H_    0.326904 0.099286 0.187888 0.191478
H22   H     H_    0.346075 0.893311 0.086388 0.156019
H23   H     H_    0.782632 0.092245 0.679402 0.205917
H24   H     H_    0.341427 0.814115 0.930046 0.173362
H25   H     H_    0.228106 0.776100 0.818272 0.173746
H26   H     H_    0.989279 0.842328 0.648762 0.146682
H27   H     H_    0.935328 0.662661 0.545954 0.177128
H28   H     H_    0.915177 0.619645 0.805021 0.218635
H29   H     H_    0.582579 0.380688 0.697569 0.202733
H30   H     H_    0.645070 0.228901 0.680887 0.133369
H31   H     H_    0.563009 0.105434 0.720704 0.122993
H32   H     H_    0.525673 0.161701 0.860173 0.143641
H33   H     H_    0.569183 0.341582 0.959569 0.151524
H34   H     H_    0.695578 0.088736 0.726060 0.137433
H35   H     H_    0.161711 0.344158 0.100606 0.194976
H36   H     H_    0.651083 0.465953 0.920632 0.130333
H37   H     H_    0.349494 0.825453 0.630038 0.149969
H38   H     H_    0.450942 0.881392 0.764006 0.128577
H39   H     H_    0.413699 0.760368 0.805121 0.135031
H40   H     H_    0.210611 0.649369 0.536984 0.180896
H41   H     H_    0.187935 0.604353 0.789567 0.179951
H42   H     H_    0.314045 0.400170 0.716977 0.165199
H43   H     H_    0.230519 0.535512 0.399192 0.224023
H44   H     H_    0.157016 0.184794 0.882580 0.191309
H45   H     H_    0.606393 0.907856 0.774201 0.176472
H46   H     H_    0.054258 0.126439 0.748460 0.159030
H47   H     H_    0.088712 0.245257 0.705761 0.202562
H48   H     H_    0.323690 0.646435 0.409569 0.229043
H49   H     H_    0.234385 0.644587 0.324130 0.209983
H50   H     H_    0.072751 0.450588 0.306765 0.150270
H51   H     H_    0.102142 0.936108 0.095741 0.077730
H52   H     H_    0.799134 0.446818 0.575830 0.082944
H53   H     H_    0.831880 0.743458 0.876208 0.078326
H54   H     H_    0.994989 0.983252 0.782237 -0.002726
H55   H     H_    0.130452 0.438494 0.574696 0.105319
H56   H     H_    0.693310 0.085011 0.864057 0.194116
H57   H     H_    0.401489 0.535273 0.008412 0.148387
H58   H     H_    0.814928 0.912996 0.756810 0.199948
H59   H     H_    0.411303 0.625296 0.302512 0.086782
H60   H     H_    0.817720 0.914178 0.659799 0.215817
O1    O     O_3   0.500000 0.500000 0.500000 -0.504853
O2    O     O_R   0.113800 0.731630 0.056520 -0.646956
O3    O     O_R   0.819390 0.439310 0.886160 -0.646447
O4    O     O_R   0.383400 0.268380 0.323710 -0.637993
O5    O     O_R   0.115110 0.560720 0.179280 -0.616803
O6    O     O_R   0.941380 0.560750 0.885620 -0.647566
O7    O     O_R   0.115110 0.439270 0.057830 -0.643753
O8    O     O_R   0.942690 0.268390 0.886930 -0.639025
O9    O     O_R   0.114340 0.731630 0.178520 -0.639976
O10   O     O_R   0.820160 0.439310 0.057830 -0.591853
O11   O     O_R   0.113800 0.560730 0.885620 -0.642680
O12   O     O_R   0.383400 0.560740 0.616060 -0.641261
O13   O     O_R   0.555060 0.731630 0.615290 -0.654258
O14   O     O_R   0.383950 0.439280 0.616600 -0.648644
O15   O     O_R   0.677590 0.560710 0.444390 -0.640365
O16   O     O_R   0.556370 0.439260 0.616600 -0.643806
O17   O     O_R   0.382640 0.439290 0.322940 -0.525279
O18   O     O_R   0.678360 0.560700 0.616060 -0.656427
O19   O     O_R   0.382640 0.560750 0.444390 -0.663288
O20   O     O_2   0.085427 0.580049 0.343791 -0.561529
O21   O     O_2   0.043830 0.882278 0.973149 -0.491906
O22   O     O_2   0.855978 0.476591 0.493350 -0.561600
O23   O     O_R   0.555060 0.439270 0.322940 -0.642663
O24   O     O_2   0.821287 0.840048 0.864060 -0.561825
O25   O     O_2   0.990805 0.978443 0.887820 -0.457882
O26   O     O_2   0.098099 0.466307 0.492900 -0.552140
O27   O     O_2   0.377551 0.581336 0.939812 -0.581400
O28   O     O_R   0.383950 0.268380 0.445700 -0.650677
O29   O     O_R   0.677590 0.731610 0.615290 -0.631580
O30   O     O_3   0.997750 0.500010 0.002220 -0.497353
O31   O     O_R   0.942690 0.560750 0.179280 -0.638063
O32   O     O_R   0.114340 0.439270 0.886160 -0.647344
O33   O     O_R   0.820160 0.268410 0.886930 -0.632843
Zn1   Zn    Zn3+2 0.456040 0.586770 0.543190 0.993509
Zn2   Zn    Zn3+2 0.456820 0.413240 0.543960 0.989482
Zn3   Zn    Zn3+2 0.631110 0.586750 0.543190 0.995431
Zn4   Zn    Zn3+2 0.456040 0.413240 0.369660 1.072916
Zn5   Zn    Zn3+2 0.041710 0.413240 0.959030 0.990893
Zn6   Zn    Zn3+2 0.866640 0.413270 0.959030 0.998393
Zn7   Zn    Zn3+2 0.040930 0.586780 0.958260 0.974078
Zn8   Zn    Zn3+2 0.041710 0.586770 0.132560 1.013979

loop_
_geom_bond_atom_site_label_1
_geom_bond_atom_site_label_2
_ccdc_geom_bond_type
C84   O32   A    
C25   C31   A    
C66   C68   A    
C63   C65   A    
C34   C56   S    
C8    C13   S    
C27   C29   A    
C94   O24   D    
C9    H8    S    
C41   C42   A    
C12   H43   S    
C77   F4    S    
C35   C36   A    
C75   C97   S    
C43   C44   A    
C25   H20   S    
C34   C90   S    
C81   C82   A    
C23   C52   S    
C16   O14   A    
C67   F6    S    
C39   C41   A    
C40   O18   A    
C54   C60   A    
C7    H3    S    
C91   O20   D    
C12   C23   S    
C1    O4    A    
C26   C27   A    
C37   C38   A    
C49   C60   S    
C18   C24   A    
C69   H41   S    
C97   O27   D    
C36   C37   A    
C83   O31   A    
O1    Zn4   S    
C10   C15   S    
C42   C53   S    
C30   C31   A    
O2    Zn7   S    
C79   H44   S    
C27   C38   S    
C97   H57   S    
C90   O7    A    
C86   O9    A    
C43   C94   S    
C15   H11   S    
O9    Zn8   S    
O28   Zn2   S    
C18   C19   A    
C73   C74   A    
C84   O11   A    
C78   H23   S    
C6    H5    S    
C56   H49   S    
C8    H6    S    
C46   H26   S    
O10   Zn6   S    
C96   O26   D    
C41   C93   S    
C47   C48   A    
C44   C46   A    
C8    C9    S    
C15   H17   S    
C1    O28   A    
C45   H35   S    
C13   C28   S    
C70   C71   A    
C32   C38   A    
C12   H48   S    
C29   C30   A    
C70   C84   S    
C94   H53   S    
O1    Zn2   S    
C61   C62   A    
C37   C92   S    
C47   C53   A    
C71   C82   S    
C88   H1    S    
C22   F12   S    
C64   F1    S    
C6    H56   S    
C59   C60   A    
C62   H39   S    
C21   C22   A    
O29   Zn3   S    
C14   C17   S    
C47   H28   S    
O12   Zn1   S    
C67   C78   S    
C52   O17   A    
C14   C83   S    
C67   H12   S    
C35   H25   S    
C92   O21   D    
C57   C58   A    
C39   H27   S    
C56   C91   S    
O32   Zn5   S    
C89   H4    S    
C48   C87   S    
C76   H10   S    
O17   Zn4   S    
C86   O2    A    
O3    Zn6   S    
C45   C88   S    
C79   C80   A    
C66   H40   S    
C57   H32   S    
C5    C7    S    
C8    H7    S    
C16   O12   A    
C72   C73   A    
C40   O16   A    
O11   Zn7   S    
C25   C26   A    
O31   Zn8   S    
C55   H31   S    
C96   H55   S    
O30   Zn7   S    
C9    C14   S    
C18   F9    S    
C62   C63   A    
C10   H9    S    
C95   H54   S    
C24   H18   S    
C58   H33   S    
C17   H15   S    
C54   H30   S    
C93   H52   S    
C26   C86   S    
C72   H42   S    
O18   Zn3   S    
O30   Zn5   S    
C50   C51   A    
C64   C76   S    
C77   C79   A    
C69   C74   A    
C34   C45   S    
C12   C56   S    
C75   C77   A    
O1    Zn1   S    
C88   F3    S    
C85   O33   A    
O1    Zn3   S    
C39   C46   A    
C59   H36   S    
C23   C64   S    
C49   C50   A    
C95   O25   D    
C23   C88   S    
C55   C57   A    
C2    C7    S    
C76   H19   S    
O4    Zn4   S    
C22   C24   A    
C11   H13   S    
C42   C43   A    
O14   Zn2   S    
C3    C4    S    
C6    C89   S    
C68   H37   S    
O7    Zn5   S    
C80   H46   S    
C54   C55   A    
C48   C49   A    
O30   Zn6   S    
C65   C96   S    
C61   H38   S    
O5    Zn8   S    
O23   Zn4   S    
C93   O22   D    
C33   H24   S    
C11   H14   S    
C80   C81   A    
C10   C13   S    
C11   C17   S    
C92   H51   S    
C50   H29   S    
C75   C82   A    
C63   C74   S    
C16   C73   S    
C40   C51   S    
C87   O6    A    
C90   O5    A    
O19   Zn1   S    
C83   O10   A    
C3    C89   S    
O30   Zn8   S    
C4    O13   A    
C32   C33   A    
C19   C20   A    
C2    C3    S    
C58   C59   A    
C5    C85   S    
C71   C72   A    
C64   H59   S    
C44   C95   S    
C78   H34   S    
C11   C13   S    
C61   C68   A    
C17   H16   S    
C89   H45   S    
C5    C6    S    
C3    C67   S    
C9    F7    S    
C87   O3    A    
C4    O29   A    
C1    C30   S    
C33   C35   A    
C7    H2    S    
C36   F2    S    
O6    Zn7   S    
C28   O15   A    
O16   Zn2   S    
C69   C70   A    
C21   F11   S    
C45   F5    S    
O15   Zn3   S    
C2    H60   S    
C91   H50   S    
C29   H21   S    
O8    Zn5   S    
C20   C21   A    
C85   O8    A    
C65   C66   A    
C81   H47   S    
O13   Zn1   S    
C14   C15   S    
C28   O23   A    
C10   F8    S    
O33   Zn6   S    
C52   O19   A    
C51   C53   A    
C5    C78   S    
C2    H58   S    
C32   H22   S    
C34   C76   S    
C20   C31   S    
C19   F10   S    
