data_mof_unit_37706.cif
_audit_creation_date              2012-12-10T18:35:27-0500
_audit_creation_method            fapswitch 2.2
_symmetry_space_group_name_H-M    P1
_symmetry_Int_Tables_number       1
_space_group_crystal_system       triclinic
_cell_length_a                    15.032462
_cell_length_b                    15.332829
_cell_length_c                    16.796291
_cell_angle_alpha                 90.297763
_cell_angle_beta                  99.773088
_cell_angle_gamma                 97.614078
_cell_volume                      3780.03939298

loop_
_atom_site_label
_atom_site_type_symbol
_atom_type_description
_atom_site_fract_x
_atom_site_fract_y
_atom_site_fract_z
_atom_type_partial_charge
C1    C     C_R   0.557121 0.663398 0.511399 0.892497
C2    C     C_R   0.470775 0.181974 0.473757 0.390066
C3    C     C_R   0.553089 0.899321 0.455433 -0.118063
C4    C     C_R   0.448521 0.099543 0.432636 -0.123172
C5    C     C_R   0.646537 0.929980 0.457979 -0.084078
C6    C     C_R   0.356030 0.068623 0.402773 -0.091943
C7    C     C_R   0.487669 0.953695 0.423249 -0.140279
C8    C     C_R   0.515312 0.044484 0.426591 -0.121809
C9    C     C_R   0.608257 0.075978 0.423593 0.342884
C10   C     C_R   0.395972 0.921581 0.388284 0.364237
C11   C     C_R   0.673676 0.016940 0.436737 0.407210
C12   C     C_R   0.442907 0.336949 0.485765 0.899219
C13   C     C_R   0.329916 0.980007 0.377330 0.441496
C14   C     C_R   0.168279 0.642286 0.383586 0.357544
C15   C     C_R   0.826488 0.341714 0.599054 0.423676
C16   C     C_R   0.509246 0.493231 0.349299 0.958374
C17   C     C_R   0.489012 0.501982 0.651219 0.940157
C18   C     C_R   0.254165 0.612125 0.396964 0.432034
C19   C     C_R   0.744437 0.376585 0.592961 0.406229
C20   C     C_R   0.207665 0.511619 0.494185 0.608356
C21   C     C_R   0.797047 0.491120 0.510305 0.545774
C22   C     C_R   0.116996 0.530574 0.474103 -0.235045
C23   C     C_R   0.591826 0.758086 0.506513 -0.245914
C24   C     C_R   0.886156 0.467225 0.527487 -0.106708
C25   C     C_R   0.102161 0.606752 0.429281 -0.207372
C26   C     C_R   0.898112 0.386286 0.565218 -0.274379
C27   C     C_R   0.041883 0.479378 0.499410 -0.082905
C28   C     C_R   0.962353 0.518363 0.502788 -0.007517
C29   C     C_R   0.963711 0.608525 0.485027 0.386676
C30   C     C_R   0.043086 0.390141 0.518915 0.326232
C31   C     C_R   0.024663 0.647476 0.435594 0.394140
C32   C     C_R   0.979327 0.349740 0.564104 0.380014
C33   C     C_R   0.505211 0.465305 0.265206 -0.183149
C34   C     C_R   0.408999 0.243749 0.461809 -0.217340
C35   C     C_R   0.479660 0.491430 0.736945 -0.201695
C36   C     C_R   0.422808 0.420121 0.222432 0.371238
C37   C     C_R   0.550877 0.462494 0.792257 0.386701
C38   C     C_R   0.421425 0.383862 0.145922 -0.355863
C39   C     C_R   0.535600 0.438238 0.869106 -0.348316
C40   C     C_R   0.499776 0.393730 0.111069 -0.007911
C41   C     C_R   0.450758 0.441159 0.891968 -0.014423
C42   C     C_R   0.582211 0.438234 0.152946 0.392784
C43   C     C_R   0.381222 0.474234 0.839062 0.368280
C44   C     C_R   0.585897 0.472103 0.231832 0.259213
C45   C     C_R   0.711472 0.873676 0.483409 -0.142435
C46   C     C_R   0.396698 0.503160 0.762468 0.296366
C47   C     C_2   0.491081 0.375179 0.024858 -0.155189
C48   C     C_2   0.437673 0.422007 0.975031 -0.183484
C49   C     C_3   0.937722 0.733750 0.352229 0.103452
C50   C     C_3   0.928518 0.828543 0.329963 -0.737230
C51   C     C_3   0.062562 0.288535 0.669600 0.118668
C52   C     C_3   0.069231 0.205468 0.718021 -0.786353
C53   C     C_3   0.114795 0.664158 0.251761 0.081674
C54   C     C_3   0.098489 0.733467 0.188466 -0.780150
C55   C     C_3   0.797912 0.191957 0.592328 0.229661
C56   C     C_R   0.291559 0.127391 0.398450 -0.132654
C57   C     C_3   0.801835 0.109147 0.641538 -0.781953
C58   C     C_3   0.666776 0.532809 0.081980 0.067585
C59   C     C_3   0.750181 0.544462 0.041006 -0.797505
C60   C     C_3   0.239638 0.404468 0.844682 0.063322
C61   C     C_3   0.150964 0.412507 0.874496 -0.813701
C62   C     C_R   0.685403 0.788669 0.507765 0.338130
C63   C     C_R   0.318166 0.215558 0.422411 0.339795
C64   C     C_R   0.528128 0.817792 0.490063 0.402952
H1    H     H_    0.389686 0.457364 0.999448 0.205031
H2    H     H_    0.425404 0.812456 0.347190 0.357941
H3    H     H_    0.876037 0.706907 0.377153 0.194551
H4    H     H_    0.938982 0.695209 0.296361 0.137636
H5    H     H_    0.989123 0.858562 0.305284 0.273026
H6    H     H_    0.866597 0.830554 0.283715 0.202026
H7    H     H_    0.922531 0.867361 0.384375 0.264040
H8    H     H_    0.047431 0.340879 0.709676 0.146278
H9    H     H_    0.129747 0.309099 0.651154 0.151405
H10   H     H_    0.079854 0.150527 0.678851 0.263972
H11   H     H_    0.127534 0.217109 0.768905 0.192644
H12   H     H_    0.541072 0.339792 0.004142 0.188820
H13   H     H_    0.005779 0.187156 0.743047 0.266632
H14   H     H_    0.718892 0.567010 0.450220 0.411801
H15   H     H_    0.196339 0.462918 0.598517 0.317825
H16   H     H_    0.628666 0.364147 0.629566 0.414407
H17   H     H_    0.299951 0.682401 0.312470 0.364645
H18   H     H_    0.049097 0.621723 0.253467 0.134030
H19   H     H_    0.163139 0.622483 0.232525 0.133365
H20   H     H_    0.163459 0.776096 0.185157 0.263719
H21   H     H_    0.071386 0.700964 0.128419 0.205642
H22   H     H_    0.048419 0.774832 0.204175 0.256130
H23   H     H_    0.591775 0.419350 0.911461 0.171839
H24   H     H_    0.835808 0.186208 0.541549 0.178400
H25   H     H_    0.725453 0.195569 0.566823 0.195530
H26   H     H_    0.766720 0.114410 0.694100 0.256867
H27   H     H_    0.767612 0.050843 0.603576 0.216263
H28   H     H_    0.873734 0.099799 0.663406 0.262382
H29   H     H_    0.933854 0.721701 0.518311 0.373075
H30   H     H_    0.089419 0.279653 0.500730 0.379306
H31   H     H_    0.280743 0.551525 0.739371 0.364574
H32   H     H_    0.718278 0.503636 0.250442 0.372338
H33   H     H_    0.675317 0.586101 0.129047 0.157181
H34   H     H_    0.358203 0.350585 0.111775 0.173114
H35   H     H_    0.605964 0.540091 0.035684 0.161655
H36   H     H_    0.743580 0.492692 0.993079 0.254766
H37   H     H_    0.756765 0.610012 0.013152 0.212856
H38   H     H_    0.812473 0.539772 0.086124 0.254073
H39   H     H_    0.268734 0.347253 0.874399 0.154980
H40   H     H_    0.224201 0.391949 0.778070 0.136119
H41   H     H_    0.118003 0.466616 0.843302 0.257916
H42   H     H_    0.103904 0.349967 0.861822 0.211250
H43   H     H_    0.164675 0.426603 0.940705 0.263224
H44   H     H_    0.772808 0.103538 0.412569 0.376578
H45   H     H_    0.783459 0.895804 0.486034 0.218999
H46   H     H_    0.230580 0.888393 0.331262 0.410254
H47   H     H_    0.566181 0.145608 0.554374 0.335336
H48   H     H_    0.423102 0.852257 0.529209 0.341835
H49   H     H_    0.276342 0.318141 0.373727 0.374243
H50   H     H_    0.738388 0.708419 0.583297 0.362090
H51   H     H_    0.220710 0.106345 0.373010 0.225903
H52   H     H_    0.294150 0.376377 0.219322 0.332468
H53   H     H_    0.676780 0.437204 0.816343 0.341956
H54   H     H_    0.583268 0.185424 0.372110 0.356141
N1    N     N_R   0.271750 0.551950 0.454510 -0.156502
N2    N     N_R   0.728250 0.448050 0.545490 -0.246786
O1    O     O_R   0.615140 0.606020 0.522930 -0.652599
O2    O     O_3   0.635374 0.459446 0.770919 -0.726300
O3    O     O_3   0.635964 0.161521 0.403810 -0.774008
O4    O     O_3   0.370751 0.835996 0.359366 -0.738064
O5    O     O_3   0.019342 0.732131 0.408080 -0.561121
O6    O     O_3   0.993274 0.271016 0.601082 -0.590432
O7    O     O_3   0.779211 0.550050 0.450049 -0.698394
O8    O     O_3   0.236138 0.459539 0.557546 -0.652096
O9    O     O_3   0.680504 0.331914 0.632835 -0.697076
O10   O     O_3   0.323190 0.643977 0.355995 -0.687851
O11   O     O_3   0.150238 0.706347 0.327729 -0.549011
O12   O     O_R   0.384860 0.393980 0.477070 -0.568761
O13   O     O_3   0.837076 0.266180 0.642648 -0.548164
O14   O     O_3   0.911705 0.658374 0.522488 -0.699293
O15   O     O_3   0.104881 0.343169 0.491340 -0.689243
O16   O     O_3   0.332556 0.543461 0.712035 -0.726076
O17   O     O_3   0.666183 0.513884 0.276622 -0.736137
O18   O     O_3   0.658671 0.448721 0.116260 -0.614888
O19   O     O_3   0.299794 0.483327 0.864194 -0.619335
O20   O     O_3   0.764406 0.042719 0.432053 -0.788975
O21   O     O_3   0.239716 0.952340 0.344131 -0.758788
O22   O     O_3   0.549704 0.201217 0.529872 -0.704726
O23   O     O_R   0.468580 0.639400 0.493740 -0.502805
O24   O     O_3   0.444005 0.797109 0.513275 -0.688472
O25   O     O_3   0.253066 0.271251 0.408167 -0.690154
O26   O     O_3   0.753639 0.738910 0.534533 -0.709632
O27   O     O_R   0.531420 0.360600 0.506260 -0.577926
O28   O     O_R   0.581950 0.481350 0.400520 -0.602126
O29   O     O_R   0.418050 0.518650 0.599480 -0.516587
O30   O     O_R   0.435380 0.514730 0.371330 -0.534413
O31   O     O_R   0.564620 0.485270 0.628670 -0.607890
O32   O     O_3   0.345083 0.410163 0.257098 -0.761845
Zn1   Zn    Zn3+2 0.597860 0.477710 0.519490 0.998808
Zn2   Zn    Zn3+2 0.402140 0.522290 0.480510 1.110492

loop_
_geom_bond_atom_site_label_1
_geom_bond_atom_site_label_2
_ccdc_geom_bond_type
C25   C31   A    
C40   C47   S    
C38   C40   A    
H15   O8    S    
C26   C32   A    
C44   O17   S    
C49   H4    S    
C42   O18   S    
C14   C18   A    
C39   H23   S    
H53   O2    S    
C52   H11   S    
C54   H20   S    
C7    C8    A    
C39   C41   A    
C53   C54   S    
C15   C19   A    
O1    Zn1   S    
C12   O27   A    
C28   C29   A    
C35   C37   A    
C50   H5    S    
C24   C26   A    
C47   H12   S    
C20   O8    S    
C21   N2    A    
C52   H10   S    
C45   H45   S    
C32   O6    S    
C45   C62   A    
C33   C36   A    
C7    C10   A    
H49   O25   S    
C55   H24   S    
C49   C50   S    
H31   O16   S    
H47   O22   S    
C56   H51   S    
C23   C62   A    
C8    C9    A    
C22   C25   A    
O12   Zn2   S    
C43   O19   S    
C53   O11   S    
C13   O21   S    
C48   H1    S    
C21   O7    S    
C60   H39   S    
C12   O12   A    
C4    C8    A    
C14   O11   S    
C2    C34   A    
C40   C42   A    
C29   O14   S    
O29   Zn2   S    
C27   C30   A    
C59   H36   S    
C41   C43   A    
C17   O31   A    
C58   H33   S    
C42   C44   A    
O27   Zn1   S    
H14   O7    S    
C38   H34   S    
C37   C39   A    
C34   C63   A    
C57   H26   S    
C51   C52   S    
C59   H37   S    
C51   H9    S    
H50   O26   S    
C4    C6    A    
H29   O14   S    
H32   O17   S    
C54   H22   S    
C36   O32   S    
O23   Zn2   S    
C64   O24   S    
C3    C7    A    
C3    C5    A    
C58   C59   S    
C3    C64   A    
C5    C45   A    
C53   H18   S    
H46   O21   S    
C2    C4    A    
C11   O20   S    
C1    O23   A    
C16   C33   S    
C47   C48   D    
H30   O15   S    
C56   C63   A    
C50   H7    S    
C61   H42   S    
C9    C11   A    
C59   H38   S    
C57   H27   S    
C23   C64   A    
C20   C22   A    
C19   N2    A    
C1    C23   S    
N1    Zn2   S    
C22   C27   A    
C55   C57   S    
O30   Zn2   S    
C2    O22   S    
H2    O4    S    
C18   O10   S    
C51   H8    S    
C31   O5    S    
C12   C34   S    
C52   H13   S    
H52   O32   S    
C61   H41   S    
H44   O20   S    
C19   O9    S    
H16   O9    S    
C49   H3    S    
C33   C44   A    
C17   O29   A    
C58   H35   S    
C24   C28   A    
C6    C56   A    
C51   O6    S    
C10   C13   A    
C54   H21   S    
C15   C26   A    
C5    C11   A    
C15   O13   S    
C49   O5    S    
C10   O4    S    
C16   O28   A    
C53   H19   S    
H48   O24   S    
C36   C38   A    
C50   H6    S    
C29   C31   A    
C55   O13   S    
C6    C13   A    
C30   C32   A    
C58   O18   S    
H17   O10   S    
N2    Zn1   S    
C9    O3    S    
C41   C48   S    
C57   H28   S    
H54   O3    S    
O31   Zn1   S    
C14   C25   A    
C61   H43   S    
C43   C46   A    
C1    O1    A    
C60   O19   S    
C46   O16   S    
C37   O2    S    
C55   H25   S    
C30   O15   S    
C62   O26   S    
C21   C24   A    
C27   C28   A    
C60   C61   S    
C16   O30   A    
C17   C35   S    
O28   Zn1   S    
C60   H40   S    
C35   C46   A    
C18   N1    A    
C63   O25   S    
C20   N1    A    
