data_mof_unit_29579.cif
_audit_creation_date              2012-12-11T15:53:41-0500
_audit_creation_method            fapswitch 2.2
_symmetry_space_group_name_H-M    P1
_symmetry_Int_Tables_number       1
_space_group_crystal_system       triclinic
_cell_length_a                    10.657962
_cell_length_b                    10.657325
_cell_length_c                    17.035686
_cell_angle_alpha                 80.763118
_cell_angle_beta                  99.215913
_cell_angle_gamma                 118.63339
_cell_volume                      1668.58342225

loop_
_atom_site_label
_atom_site_type_symbol
_atom_type_description
_atom_site_fract_x
_atom_site_fract_y
_atom_site_fract_z
_atom_type_partial_charge
C1    C     C_R   0.384230 0.284227 0.631983 0.541380
C2    C     C_1   0.333399 0.186998 0.781559 -0.032945
C3    C     C_1   0.337664 0.665697 0.277722 -0.062882
C4    C     C_R   0.413921 0.619973 0.601680 0.552260
C5    C     C_1   0.325282 0.674801 0.206934 -0.062870
C6    C     C_R   0.910502 0.702072 0.173821 0.018286
C7    C     C_R   0.867783 0.569616 0.218521 0.030376
C8    C     C_R   0.840437 0.553741 0.295228 0.019846
C9    C     C_R   0.874859 0.796499 0.284022 -0.151107
C10   C     C_R   0.909340 0.815459 0.205763 -0.155250
C11   C     C_3   0.935013 0.471993 0.235687 -0.268547
C12   C     C_R   0.515034 0.713520 0.734410 -0.150529
C13   C     C_3   0.909015 0.458369 0.322226 -0.270112
C14   C     C_R   0.846109 0.665733 0.330279 0.019873
C15   C     C_R   0.328333 0.182249 0.154272 0.019239
C16   C     C_R   0.780897 0.621112 0.626312 0.535069
C17   C     C_R   0.216202 0.178049 0.188563 0.021117
C18   C     C_R   0.231344 0.206379 0.264979 0.030321
C19   C     C_R   0.476878 0.246642 0.278784 -0.153676
C20   C     C_R   0.458499 0.210782 0.200946 -0.152290
C21   C     C_3   0.121832 0.247515 0.160528 -0.269284
C22   C     C_3   0.134636 0.274583 0.246773 -0.269076
C23   C     C_R   0.492675 0.729730 0.810145 -0.132158
C24   C     C_R   0.363379 0.249133 0.309927 0.018424
C25   C     C_R   0.947061 0.724679 0.851488 0.559441
C26   C     C_R   0.316221 0.705686 0.898426 0.541272
C27   C     C_R   0.286533 0.118610 0.858380 0.545965
C28   C     C_R   0.378562 0.291456 0.387897 0.567245
C29   C     C_R   0.952117 0.717653 0.095527 0.567111
C30   C     C_R   0.313399 0.700694 0.123780 0.543965
C31   C     C_R   0.288488 0.114536 0.081893 0.542047
C32   C     C_R   0.365515 0.654578 0.360791 0.555018
C33   C     C_R   0.778406 0.625281 0.402770 0.544578
C34   C     C_3   0.095806 0.484376 0.773191 -0.251707
C35   C     C_R   0.354689 0.651010 0.837521 0.014549
C36   C     C_R   0.252504 0.535019 0.796157 0.012520
C37   C     C_R   0.275130 0.518506 0.721604 0.009776
C38   C     C_3   0.120450 0.465927 0.691396 -0.245946
C39   C     C_R   0.400149 0.617732 0.685928 -0.001587
C40   C     C_1   0.849256 0.669262 0.702776 -0.053474
C41   C     C_1   0.896171 0.703442 0.769406 -0.056088
C42   C     C_1   0.364453 0.233803 0.714355 -0.037325
Cr1   Cr    Cr6+3 0.608440 0.389080 0.519680 1.021224
Cr2   Cr    Cr6+3 0.288640 0.400090 0.490760 1.001599
Cr3   Cr    Cr6+3 0.602940 0.710800 0.489510 1.016819
Cr4   Cr    Cr6+3 0.052530 0.947560 0.964210 1.015857
Cr5   Cr    Cr6+3 0.059970 0.626800 0.992920 1.002615
Cr6   Cr    Cr6+3 0.373320 0.938440 0.995370 1.021395
H1    H     H_    0.617927 0.784043 0.711442 0.143461
H2    H     H_    0.064626 0.570173 0.771783 0.148561
H3    H     H_    0.028545 0.381031 0.807279 0.150892
H4    H     H_    0.067892 0.351788 0.678430 0.153159
H5    H     H_    0.102411 0.540704 0.642981 0.160169
H6    H     H_    0.870242 0.882316 0.307899 0.136652
H7    H     H_    0.935889 0.917567 0.170916 0.141992
H8    H     H_    0.049634 0.527481 0.225418 0.145059
H9    H     H_    0.009488 0.509917 0.362290 0.156089
H10   H     H_    0.032514 0.209833 0.275167 0.141303
H11   H     H_    0.869348 0.370335 0.206982 0.140807
H12   H     H_    0.831505 0.347846 0.344085 0.137625
H13   H     H_    0.578679 0.273189 0.313941 0.143143
H14   H     H_    0.544338 0.205219 0.177681 0.135748
H15   H     H_    0.011321 0.170359 0.138482 0.137076
H16   H     H_    0.174367 0.347528 0.120244 0.153364
H17   H     H_    0.190697 0.389365 0.256725 0.143586
H18   H     H_    0.578792 0.814594 0.842847 0.151590
O1    O     O_R   0.754020 0.497590 0.609930 -0.512996
O2    O     O_R   0.406180 0.826930 0.920660 -0.514387
O3    O     O_R   0.358620 0.062870 0.901950 -0.492159
O4    O     O_R   0.481420 0.271390 0.600630 -0.472462
O5    O     O_R   0.163910 0.085460 0.050210 -0.529472
O6    O     O_R   0.935200 0.815170 0.045770 -0.494903
O7    O     O_R   0.916120 0.596690 0.069430 -0.505457
O8    O     O_R   0.192310 0.631200 0.086170 -0.530048
O9    O     O_R   0.406770 0.819480 0.096420 -0.498453
O10   O     O_R   0.359170 0.055960 0.064880 -0.502634
O11   O     O_3   0.161940 0.837600 0.984160 -0.285069
O12   O     O_R   0.295080 0.533620 0.397890 -0.525592
O13   O     O_R   0.263810 0.254550 0.589590 -0.503335
O14   O     O_R   0.300820 0.531200 0.560890 -0.510715
O15   O     O_R   0.491480 0.744020 0.564270 -0.497941
O16   O     O_R   0.726290 0.693800 0.583010 -0.516502
O17   O     O_R   0.747830 0.500190 0.434090 -0.527887
O18   O     O_R   0.475680 0.273800 0.437630 -0.488981
O19   O     O_R   0.257620 0.257160 0.413750 -0.504134
O20   O     O_R   0.485280 0.746620 0.388440 -0.492980
O21   O     O_R   0.720550 0.696220 0.420010 -0.502025
O22   O     O_3   0.500010 0.499990 0.499980 -0.309809
O23   O     O_R   0.163320 0.092900 0.874450 -0.515199
O24   O     O_R   0.934650 0.822080 0.882840 -0.482782
O25   O     O_R   0.915520 0.604140 0.893670 -0.501855
O26   O     O_R   0.191760 0.638110 0.923230 -0.514830

loop_
_geom_bond_atom_site_label_1
_geom_bond_atom_site_label_2
_ccdc_geom_bond_type
C8    C13   S    
C28   O18   A    
Cr1   O17   S    
Cr5   O26   S    
Cr6   O10   S    
C19   C20   A    
Cr6   O3    S    
C14   C33   S    
C12   H1    S    
C7    C8    A    
Cr4   O23   S    
C7    C11   S    
C12   C23   A    
C25   O24   A    
C18   C24   A    
Cr1   O22   S    
C23   H18   S    
C36   C37   A    
Cr3   O21   S    
C19   H13   S    
C4    O14   A    
C30   O8    A    
C29   O7    A    
C26   O26   A    
C21   H16   S    
C4    O15   A    
Cr3   O16   S    
C27   O23   A    
C2    C27   S    
C9    C10   A    
Cr4   O6    S    
C27   O3    A    
C29   O6    A    
C31   O5    A    
C34   C38   S    
C21   C22   S    
Cr1   O18   S    
Cr6   O9    S    
C11   H11   S    
C15   C20   A    
C25   O25   A    
C34   H2    S    
Cr2   O14   S    
Cr3   O22   S    
Cr5   O7    S    
C25   C41   S    
C13   H12   S    
C17   C21   S    
C35   C36   A    
Cr6   O11   S    
C9    C14   A    
C22   H17   S    
C6    C10   A    
C37   C38   S    
C1    C42   S    
C4    C39   S    
C32   O20   A    
C16   O16   A    
C17   C18   A    
C34   H3    S    
C16   O1    A    
Cr6   O2    S    
C10   H7    S    
C33   O17   A    
Cr4   O5    S    
C16   C40   S    
C40   C41   T    
Cr1   O4    S    
C23   C35   A    
C1    O13   A    
Cr5   O11   S    
Cr2   O19   S    
C5    C30   S    
C15   C17   A    
C8    C14   A    
C18   C22   S    
Cr5   O25   S    
Cr2   O13   S    
Cr3   O15   S    
C24   C28   S    
Cr5   O8    S    
C3    C5    T    
C22   H10   S    
Cr4   O11   S    
C15   C31   S    
C6    C7    A    
Cr4   O24   S    
C1    O4    A    
C26   O2    A    
C12   C39   A    
Cr2   O12   S    
C19   C24   A    
C33   O21   A    
C37   C39   A    
C30   O9    A    
C11   C13   S    
C31   O10   A    
C38   H5    S    
C2    C42   T    
C38   H4    S    
Cr3   O20   S    
C34   C36   S    
C20   H14   S    
C3    C32   S    
C21   H15   S    
C32   O12   A    
C26   C35   S    
C6    C29   S    
C13   H9    S    
Cr1   O1    S    
C28   O19   A    
C9    H6    S    
Cr2   O22   S    
C11   H8    S    
