data_mof_unit_36443.cif
_audit_creation_date              2012-10-26T20:07:45-0400
_audit_creation_method            fapswitch 2.2
_symmetry_space_group_name_H-M    P1
_symmetry_Int_Tables_number       1
_space_group_crystal_system       triclinic
_cell_length_a                    9.624239
_cell_length_b                    10.721906
_cell_length_c                    17.215281
_cell_angle_alpha                 87.144576
_cell_angle_beta                  91.071456
_cell_angle_gamma                 91.24014
_cell_volume                      1773.55062175

loop_
_atom_site_label
_atom_site_type_symbol
_atom_type_description
_atom_site_fract_x
_atom_site_fract_y
_atom_site_fract_z
_atom_type_partial_charge
C1    C     C_R   0.499007 0.262822 0.498957 0.587546
C2    C     C_R   0.076800 0.589559 0.457882 0.259442
C3    C     C_R   0.514396 0.494890 0.650405 0.585426
C4    C     C_R   0.485887 0.504633 0.349218 0.553473
C5    C     C_R   0.517770 0.495441 0.735736 -0.061759
C6    C     C_R   0.483013 0.503989 0.263235 -0.073547
C7    C     C_R   0.424679 0.421507 0.781797 0.031850
C8    C     C_R   0.597969 0.545060 0.217751 0.041038
C9    C     C_R   0.420741 0.436571 0.862867 0.100961
C10   C     C_R   0.595611 0.530313 0.136907 0.108342
C11   C     C_R   0.512125 0.525500 0.897263 0.241193
C12   C     C_R   0.500839 0.737229 0.500030 0.572617
C13   C     C_R   0.474388 0.482231 0.100815 0.240999
C14   C     C_R   0.605257 0.596618 0.850160 0.116762
C15   C     C_R   0.358750 0.445317 0.145588 0.107844
C16   C     C_R   0.610188 0.578491 0.770703 -0.194335
C17   C     C_R   0.364515 0.454957 0.226163 -0.194524
C18   C     C_R   0.540852 0.061909 0.565602 -0.177276
C19   C     C_R   0.459575 0.937949 0.432434 -0.167264
C20   C     C_2   0.716214 0.613877 0.251394 0.566162
C21   C     C_2   0.341812 0.320307 0.746852 0.558548
C22   C     C_3   0.752043 0.681134 0.071018 -0.259064
C23   C     C_R   0.537410 0.932099 0.568145 0.103472
C24   C     C_3   0.363403 0.238561 0.931166 -0.257697
C25   C     C_3   0.634601 0.808185 0.889466 -0.320431
C26   C     C_3   0.148200 0.486265 0.071456 -0.286438
C27   C     C_3   0.430620 0.834534 0.680513 -0.305437
C28   C     C_3   0.536944 0.173176 0.312850 -0.295229
C29   C     C_3   0.129965 0.188015 0.540796 -0.287353
C30   C     C_3   0.884724 0.818057 0.449479 -0.312704
C31   C     C_3   0.871159 0.337508 0.676009 -0.260065
C32   C     C_3   0.132948 0.668951 0.326739 -0.252752
C33   C     C_R   0.457926 0.067860 0.430741 0.102893
C34   C     C_R   0.501023 0.871061 0.500282 0.018631
C35   C     C_R   0.498407 0.128984 0.498066 0.019911
C36   C     C_R   0.071022 0.407321 0.540109 0.215650
C37   C     C_R   0.928473 0.592906 0.460226 0.250106
C38   C     C_R   0.922898 0.411531 0.543002 0.257648
Cu1   Cu    Cu3+1 0.640660 0.500020 0.500000 0.992094
Cu2   Cu    Cu3+1 0.359340 0.499980 0.500000 0.971384
H1    H     H_    0.681572 0.635323 0.735260 0.147872
H2    H     H_    0.824905 0.684740 0.021782 0.157938
H3    H     H_    0.221286 0.373084 0.891680 0.277380
H4    H     H_    0.355023 0.178753 0.880458 0.151652
H5    H     H_    0.293147 0.199203 0.977001 0.150911
H6    H     H_    0.471723 0.236686 0.954628 0.162766
H7    H     H_    0.792067 0.694069 0.857697 0.242379
H8    H     H_    0.706934 0.869129 0.922250 0.131137
H9    H     H_    0.535029 0.799337 0.921124 0.161509
H10   H     H_    0.616072 0.853099 0.830795 0.135364
H11   H     H_    0.182367 0.331361 0.145210 0.242429
H12   H     H_    0.276298 0.421627 0.260034 0.145567
H13   H     H_    0.060155 0.438310 0.041860 0.143039
H14   H     H_    0.206187 0.543746 0.026905 0.181391
H15   H     H_    0.105848 0.548038 0.114895 0.133937
H16   H     H_    0.632337 0.904421 0.675818 0.243013
H17   H     H_    0.378285 0.921792 0.694633 0.132958
H18   H     H_    0.452510 0.780354 0.735587 0.140956
H19   H     H_    0.359450 0.777510 0.644417 0.176241
H20   H     H_    0.342116 0.092928 0.329500 0.242383
H21   H     H_    0.499698 0.225410 0.259527 0.144096
H22   H     H_    0.592238 0.089409 0.295194 0.146798
H23   H     H_    0.571589 0.110378 0.617109 0.154081
H24   H     H_    0.610364 0.234532 0.344659 0.177941
H25   H     H_    0.232556 0.326363 0.603306 0.327703
H26   H     H_    0.201761 0.120171 0.570070 0.133557
H27   H     H_    0.158877 0.201909 0.478734 0.174756
H28   H     H_    0.024243 0.145986 0.543348 0.118068
H29   H     H_    0.764747 0.677262 0.397095 0.325798
H30   H     H_    0.784624 0.860943 0.462448 0.165310
H31   H     H_    0.936468 0.878870 0.404190 0.123347
H32   H     H_    0.950137 0.815458 0.503465 0.131400
H33   H     H_    0.836088 0.237195 0.575917 0.236419
H34   H     H_    0.430280 0.889151 0.380718 0.122867
H35   H     H_    0.962540 0.282260 0.695506 0.193059
H36   H     H_    0.779016 0.299646 0.707872 0.148029
H37   H     H_    0.887684 0.436682 0.690570 0.159242
H38   H     H_    0.154860 0.767650 0.428098 0.232447
H39   H     H_    0.043772 0.725937 0.305734 0.152691
H40   H     H_    0.114756 0.570485 0.311254 0.181767
H41   H     H_    0.227689 0.705539 0.296851 0.131973
H42   H     H_    0.797670 0.783811 0.273724 0.322144
H43   H     H_    0.343486 0.162915 0.687688 0.319664
H44   H     H_    0.803389 0.503847 0.114718 0.255914
H45   H     H_    0.805022 0.727720 0.119723 0.151005
H46   H     H_    0.656952 0.732936 0.053351 0.177853
N1    N     N_2   0.513841 0.548019 0.978173 -0.194112
N2    N     N_2   0.419917 0.136301 0.360937 -0.518663
N3    N     N_2   0.137424 0.305188 0.579683 -0.488948
N4    N     N_2   0.861235 0.694429 0.420332 -0.489200
N5    N     N_2   0.846584 0.327320 0.593368 -0.451309
N6    N     N_2   0.152754 0.677572 0.409867 -0.452033
N7    N     N_2   0.470472 0.458796 0.020707 -0.173674
N8    N     N_R   0.852070 0.500030 0.499980 -0.243015
N9    N     N_R   0.147930 0.499970 0.500020 -0.251889
N10   N     N_2   0.718550 0.551903 0.092646 -0.482995
N11   N     N_2   0.323653 0.365340 0.909503 -0.474135
N12   N     N_2   0.695751 0.687123 0.883089 -0.504491
N13   N     N_2   0.237360 0.394198 0.109631 -0.494900
N14   N     N_2   0.558869 0.863745 0.640142 -0.514552
O1    O     O_R   0.618740 0.319660 0.500000 -0.496466
O2    O     O_R   0.706034 0.742661 0.258619 -0.741250
O3    O     O_2   0.216220 0.312490 0.755835 -0.568450
O4    O     O_R   0.409112 0.231507 0.705291 -0.744902
O5    O     O_R   0.381260 0.680340 0.500000 -0.497213
O6    O     O_R   0.381170 0.319630 0.500010 -0.500638
O7    O     O_R   0.618830 0.680370 0.499990 -0.504491
O8    O     O_R   0.631780 0.498870 0.613920 -0.472819
O9    O     O_R   0.368220 0.501130 0.386080 -0.479246
O10   O     O_R   0.394210 0.498840 0.613930 -0.512223
O11   O     O_R   0.605790 0.501160 0.386070 -0.498788
O12   O     O_2   0.824355 0.560235 0.267952 -0.556462

loop_
_geom_bond_atom_site_label_1
_geom_bond_atom_site_label_2
_ccdc_geom_bond_type
C36   N3    S    
C4    O9    A    
C2    C37   A    
C30   N4    S    
C26   H15   S    
C29   N3    S    
C30   H31   S    
H20   N2    S    
C22   H2    S    
H25   N3    S    
C32   H41   S    
C8    C20   S    
H7    N12   S    
C37   N4    S    
C24   H5    S    
C2    N9    A    
C33   N2    S    
C12   O5    A    
C11   C14   A    
C18   H23   S    
C20   O2    S    
C3    O10   A    
C15   C17   A    
H44   N10   S    
C22   H45   S    
C25   H10   S    
C5    C16   A    
C29   H27   S    
C21   O4    S    
C11   N1    S    
C28   N2    S    
C10   C13   A    
Cu1   O1    S    
C18   C35   A    
C26   N13   S    
C28   H21   S    
Cu1   O11   S    
C23   N14   S    
C20   O12   D    
C26   H14   S    
C17   H12   S    
C30   H30   S    
C14   N12   S    
H11   N13   S    
Cu1   O8    S    
C27   N14   S    
H43   O4    S    
C18   C23   A    
H33   N5    S    
C4    C6    S    
C27   H17   S    
Cu1   Cu2   S    
C5    C7    A    
C6    C8    A    
H38   N6    S    
C7    C21   S    
C38   N5    S    
C19   C34   A    
C24   N11   S    
C13   N7    S    
Cu1   O7    S    
Cu1   N8    S    
C32   H40   S    
C29   H28   S    
C31   H35   S    
C10   N10   S    
C23   C34   A    
C38   N8    A    
H42   O2    S    
C2    N6    S    
C9    C11   A    
C25   H8    S    
C28   H24   S    
C4    O11   A    
C31   N5    S    
C13   C15   A    
C19   C33   A    
C24   H4    S    
C14   C16   A    
H16   N14   S    
Cu2   N9    S    
C12   C34   S    
H29   N4    S    
C26   H13   S    
C1    O1    A    
C1    C35   S    
Cu2   O6    S    
C7    C9    A    
C6    C17   A    
C31   H37   S    
C9    N11   S    
C22   N10   S    
C19   H34   S    
H3    N11   S    
C15   N13   S    
C30   H32   S    
C3    C5    S    
C27   H18   S    
C12   O7    A    
Cu2   O10   S    
Cu2   O9    S    
C3    O8    A    
C1    O6    A    
C24   H6    S    
C36   C38   A    
C27   H19   S    
C32   H39   S    
C36   N9    A    
C31   H36   S    
C32   N6    S    
N1    N7    D    
C33   C35   A    
C37   N8    A    
C22   H46   S    
C25   H9    S    
C29   H26   S    
C21   O3    D    
C25   N12   S    
C8    C10   A    
C16   H1    S    
Cu2   O5    S    
C28   H22   S    
