data_mof_unit_30174.cif
_audit_creation_date              2012-12-10T17:37:21-0500
_audit_creation_method            fapswitch 2.2
_symmetry_space_group_name_H-M    P1
_symmetry_Int_Tables_number       1
_space_group_crystal_system       triclinic
_cell_length_a                    12.046382
_cell_length_b                    12.896321
_cell_length_c                    17.000078
_cell_angle_alpha                 93.763693
_cell_angle_beta                  83.353843
_cell_angle_gamma                 93.077132
_cell_volume                      2614.79351065

loop_
_atom_site_label
_atom_site_type_symbol
_atom_type_description
_atom_site_fract_x
_atom_site_fract_y
_atom_site_fract_z
_atom_type_partial_charge
C1    C     C_R   0.521805 0.699998 0.504964 0.969785
C2    C     C_R   0.508403 0.133858 0.546918 -0.078181
C3    C     C_R   0.475838 0.972303 0.469140 0.027637
C4    C     C_R   0.526082 0.027322 0.532279 0.026580
C5    C     C_R   0.959287 0.380970 0.445526 -0.228719
C6    C     C_R   0.040462 0.618483 0.555164 -0.249293
C7    C     C_R   0.844588 0.393887 0.445401 0.582061
C8    C     C_R   0.155365 0.606153 0.554532 0.588666
C9    C     C_R   0.858449 0.555308 0.520172 0.034875
C10   C     C_R   0.141246 0.443817 0.481096 0.065284
C11   C     C_R   0.974541 0.543765 0.519084 -0.027154
C12   C     C_R   0.478122 0.299769 0.495621 0.967936
C13   C     C_R   0.025143 0.455392 0.482036 -0.023380
C14   C     C_R   0.485640 0.489511 0.652469 1.002393
C15   C     C_R   0.513846 0.505433 0.346549 0.990062
C16   C     C_R   0.480345 0.468995 0.737371 -0.305924
C17   C     C_R   0.514948 0.496951 0.259599 -0.310329
C18   C     C_R   0.578865 0.480767 0.778229 0.389436
C19   C     C_R   0.413450 0.468073 0.226471 0.418183
C20   C     C_R   0.564870 0.489843 0.861193 -0.108900
C21   C     C_R   0.419142 0.407669 0.155214 -0.101201
C22   C     C_R   0.461615 0.460711 0.902032 -0.011562
C23   C     C_R   0.463946 0.187561 0.490021 -0.177749
C24   C     C_R   0.520330 0.406354 0.105665 -0.027080
C25   C     C_R   0.369033 0.435232 0.862254 -0.200059
C26   C     C_R   0.618626 0.449305 0.132818 -0.187012
C27   C     C_R   0.376130 0.438416 0.780388 0.328806
C28   C     C_R   0.617659 0.494283 0.209648 0.427626
C29   C     C_2   0.449647 0.450953 0.986989 -0.169799
C30   C     C_2   0.518498 0.392890 0.020150 -0.153498
C31   C     C_1   0.320133 0.351494 0.130427 0.343443
C32   C     C_1   0.653664 0.535460 0.905120 0.348129
C33   C     C_1   0.524470 0.187376 0.623095 0.257943
C34   C     C_R   0.535975 0.811882 0.511490 -0.184112
C35   C     C_1   0.483567 0.814082 0.376308 0.241001
C36   C     C_1   0.674758 0.027953 0.623802 0.377548
C37   C     C_1   0.325228 0.968460 0.379456 0.388162
C38   C     C_R   0.591592 0.973672 0.578845 -0.139770
C39   C     C_R   0.407919 0.024779 0.423777 -0.139022
C40   C     C_R   0.584024 0.865098 0.575561 0.380016
C41   C     C_R   0.412397 0.133360 0.427737 0.388865
C42   C     C_R   0.494853 0.866247 0.453730 -0.087809
H1    H     H_    0.997952 0.312149 0.417106 0.231732
H2    H     H_    0.136748 0.561920 0.210692 0.400872
H3    H     H_    0.166655 0.831675 0.695153 0.402823
H4    H     H_    0.833390 0.168985 0.304303 0.398712
H5    H     H_    0.888090 0.634062 0.171635 0.395439
H6    H     H_    0.170437 0.535019 0.759710 0.372646
H7    H     H_    0.332717 0.162300 0.229326 0.390350
H8    H     H_    0.651262 0.835205 0.777234 0.400725
H9    H     H_    0.001709 0.687238 0.583615 0.231237
H10   H     H_    0.584774 0.351905 0.984076 0.189794
H11   H     H_    0.385848 0.495555 0.022600 0.195043
H12   H     H_    0.290894 0.411359 0.895865 0.205936
H13   H     H_    0.695018 0.452661 0.092365 0.212023
H14   H     H_    0.180026 0.375583 0.452664 0.213162
H15   H     H_    0.819603 0.623115 0.549248 0.212649
H16   H     H_    0.883490 0.446677 0.764313 0.408631
N1    N     N_R   0.206400 0.519440 0.514690 -0.160859
N2    N     N_R   0.793600 0.480560 0.485310 -0.166206
N3    N     N_1   0.241282 0.306601 0.110673 -0.121106
N4    N     N_1   0.724004 0.572190 0.940434 -0.110536
N5    N     N_1   0.536233 0.229517 0.683989 -0.133263
N6    N     N_1   0.475894 0.772757 0.314529 -0.103470
N7    N     N_1   0.741584 0.070915 0.659326 -0.083662
N8    N     N_1   0.258871 0.923803 0.344456 -0.092793
O1    O     O_R   0.421320 0.658850 0.503920 -0.564694
O2    O     O_2   0.758422 0.574901 0.698422 -0.250289
O3    O     O_3   0.808110 0.441450 0.794438 -0.534848
O4    O     O_2   0.212088 0.434986 0.308084 -0.274310
O5    O     O_2   0.291376 0.614631 0.317056 -0.279598
O6    O     O_3   0.213730 0.546887 0.187096 -0.551347
O7    O     O_2   0.318009 0.683076 0.647585 -0.244631
O8    O     O_2   0.261994 0.793283 0.547929 -0.320912
O9    O     O_3   0.128533 0.766746 0.675479 -0.542415
O10   O     O_2   0.739188 0.206324 0.452014 -0.324610
O11   O     O_2   0.680912 0.316178 0.353057 -0.245036
O12   O     O_R   0.578680 0.341150 0.496080 -0.570654
O13   O     O_3   0.871207 0.234089 0.323952 -0.522376
O14   O     O_2   0.716325 0.651063 0.293210 -0.301716
O15   O     O_2   0.811138 0.486007 0.272036 -0.243325
O16   O     O_3   0.817666 0.603327 0.153415 -0.533802
O17   O     O_2   0.288391 0.321960 0.663144 -0.270995
O18   O     O_2   0.177463 0.328832 0.792507 -0.260497
O19   O     O_3   0.186131 0.491136 0.710035 -0.499374
O20   O     O_2   0.232770 0.209212 0.376855 -0.299208
O21   O     O_2   0.413125 0.300794 0.340374 -0.329047
O22   O     O_3   0.372180 0.125203 0.266213 -0.536430
O23   O     O_R   0.609840 0.646370 0.494500 -0.617809
O24   O     O_2   0.567369 0.699652 0.666605 -0.298427
O25   O     O_2   0.754348 0.780179 0.631471 -0.295880
O26   O     O_3   0.618024 0.874673 0.738440 -0.530788
O27   O     O_R   0.390160 0.353630 0.505500 -0.596660
O28   O     O_R   0.394600 0.506990 0.621070 -0.527688
O29   O     O_R   0.605400 0.493010 0.378930 -0.542513
O30   O     O_R   0.583120 0.494520 0.611640 -0.552191
O31   O     O_R   0.416880 0.505480 0.388360 -0.559946
O32   O     O_2   0.726018 0.388357 0.664453 -0.281368
S1    S     S_3+6 0.719720 0.471857 0.730635 0.061065
S2    S     S_3+6 0.280552 0.517730 0.263839 0.059653
S3    S     S_3+6 0.222478 0.712467 0.605953 0.065749
S4    S     S_3+6 0.777412 0.287508 0.394022 0.081767
S5    S     S_3+6 0.742744 0.559984 0.235471 0.063127
S6    S     S_3+6 0.255129 0.390989 0.735742 0.066846
S7    S     S_3+6 0.355479 0.196811 0.352758 0.038403
S8    S     S_3+6 0.632677 0.800134 0.653206 0.055399
Zn1   Zn    Zn3+2 0.374120 0.508330 0.506290 1.149517
Zn2   Zn    Zn3+2 0.625880 0.491670 0.493710 1.138096

loop_
_geom_bond_atom_site_label_1
_geom_bond_atom_site_label_2
_ccdc_geom_bond_type
C38   C40   A    
C3    C42   A    
C22   C29   S    
C31   N3    T    
C34   C42   A    
C26   H13   S    
O6    S2    S    
C39   C41   A    
C21   C31   S    
C12   C23   S    
C41   S7    S    
C34   C40   A    
C19   C21   A    
C24   C26   A    
C8    N1    A    
C20   C32   S    
H4    O13   S    
C27   S6    S    
O12   Zn2   S    
H5    O16   S    
C35   C42   S    
C17   C19   A    
C7    S4    S    
C12   O12   A    
O16   S5    S    
O13   S4    S    
C35   N6    T    
C6    H9    S    
C10   H14   S    
C8    S3    S    
C5    C13   A    
N2    Zn2   S    
C16   C27   A    
O7    S3    D    
O30   Zn2   S    
C3    C39   A    
O25   S8    D    
O11   S4    D    
C15   O31   A    
C14   O30   A    
O4    S2    D    
C1    C34   S    
O10   S4    D    
O28   Zn1   S    
O17   S6    D    
O14   S5    D    
C25   H12   S    
O24   S8    D    
C9    H15   S    
C6    C11   A    
C5    C7    A    
C36   N7    T    
C6    C8    A    
C22   C25   A    
N1    Zn1   S    
C2    C4    A    
C29   C30   D    
O21   S7    D    
C33   N5    T    
C37   N8    T    
C9    C11   A    
O19   S6    S    
O8    S3    D    
O3    S1    S    
C2    C33   S    
H8    O26   S    
C20   C22   A    
O18   S6    D    
C14   C16   S    
C12   O27   A    
O20   S7    D    
C18   S1    S    
C3    C4    A    
C7    N2    A    
C40   S8    S    
O15   S5    D    
O26   S8    S    
C15   C17   S    
C30   H10   S    
C1    O23   A    
C17   C28   A    
C4    C38   A    
C10   C13   A    
C19   S2    S    
H16   O3    S    
C25   C27   A    
H7    O22   S    
O5    S2    D    
C26   C28   A    
C23   C41   A    
H3    O9    S    
C9    N2    A    
C36   C38   S    
C10   N1    A    
O2    S1    D    
C32   N4    T    
C37   C39   S    
O27   Zn1   S    
C15   O29   A    
O22   S7    S    
C11   C13   A    
C28   S5    S    
O1    Zn1   S    
C29   H11   S    
O23   Zn2   S    
C1    O1    A    
H2    O6    S    
C18   C20   A    
C5    H1    S    
C24   C30   S    
O29   Zn2   S    
O31   Zn1   S    
C16   C18   A    
O32   S1    D    
C21   C24   A    
C2    C23   A    
O9    S3    S    
H6    O19   S    
C14   O28   A    
