data_mof_unit_67686.cif
_audit_creation_date              2013-03-05T16:49:09-0500
_audit_creation_method            fapswitch 2.2
_symmetry_space_group_name_H-M    P1
_symmetry_Int_Tables_number       1
_space_group_crystal_system       triclinic
_cell_length_a                    10.912304
_cell_length_b                    10.807109
_cell_length_c                    9.727826
_cell_angle_alpha                 88.088574
_cell_angle_beta                  89.088766
_cell_angle_gamma                 90.591114
_cell_volume                      1146.35611775

loop_
_atom_site_label
_atom_site_type_symbol
_atom_site_description
_atom_site_fract_x
_atom_site_fract_y
_atom_site_fract_z
_atom_type_partial_charge
O1    O     O_R   0.500060 0.316850 0.620870 -0.533840
O2    O     O_R   0.499940 0.683150 0.379130 -0.533823
O3    O     O_R   0.500000 0.316860 0.379090 -0.516360
O4    O     O_R   0.500000 0.683140 0.620910 -0.516493
C1    C     C_R   0.504160 0.260687 0.501024 0.875176
C2    C     C_R   0.495846 0.739311 0.498973 0.875146
O5    O     O_R   0.319670 0.500010 0.620890 -0.533741
O6    O     O_R   0.680330 0.499990 0.379110 -0.533752
O7    O     O_R   0.319620 0.500010 0.379110 -0.535568
O8    O     O_R   0.680380 0.499990 0.620890 -0.535554
C3    C     C_R   0.262537 0.489664 0.501513 0.841728
C4    C     C_R   0.737462 0.510342 0.498487 0.841695
Cu1   Cu    Cu3+1 0.500030 0.499990 0.643150 1.152653
Cu2   Cu    Cu3+1 0.499970 0.500010 0.356850 1.152693
C5    C     C_R   0.047424 0.202389 0.126176 -0.010275
C6    C     C_R   0.952590 0.797663 0.873795 -0.010132
H1    H     H_    0.038786 0.196091 0.016490 0.263978
H2    H     H_    0.961227 0.803970 0.983480 0.263948
C7    C     C_R   0.048005 0.318955 0.182853 -0.103762
C8    C     C_R   0.951992 0.681091 0.817132 -0.103731
H3    H     H_    0.036568 0.398296 0.115114 0.270429
H4    H     H_    0.963414 0.601753 0.884879 0.270417
C9    C     C_R   0.066719 0.332251 0.323866 -0.035872
C10   C     C_R   0.933287 0.667784 0.676118 -0.035895
C11   C     C_R   0.076948 0.223440 0.408029 0.571759
C12   C     C_R   0.923086 0.776591 0.591942 0.571745
C13   C     C_R   0.074372 0.106988 0.350924 -0.247442
C14   C     C_R   0.925678 0.893048 0.649033 -0.247366
H5    H     H_    0.084597 0.025341 0.417036 0.210386
H6    H     H_    0.915474 0.974691 0.582911 0.210340
C15   C     C_R   0.062000 0.095848 0.209422 0.358357
C16   C     C_R   0.938043 0.904200 0.790534 0.358511
C17   C     C_R   0.943201 0.510434 0.372942 0.282800
C18   C     C_R   0.056795 0.489593 0.627058 0.282831
C19   C     C_R   0.874088 0.523104 0.495154 -0.146129
C20   C     C_R   0.125909 0.476919 0.504847 -0.146096
C21   C     C_R   0.940180 0.542976 0.616097 -0.006362
C22   C     C_R   0.059817 0.457053 0.383902 -0.006380
C23   C     C_3   0.575387 0.034875 0.596254 0.263484
C24   C     C_3   0.424633 0.965119 0.403737 0.263559
C25   C     C_3   0.613338 0.954284 0.474741 -0.341165
C26   C     C_3   0.386683 0.045702 0.525242 -0.341011
H7    H     H_    0.706328 0.917801 0.454490 0.241484
H8    H     H_    0.293695 0.082187 0.545495 0.241509
C27   C     C_3   0.494348 0.876167 0.499371 -0.252783
C28   C     C_3   0.505675 0.123825 0.500608 -0.252847
C29   C     C_3   0.458839 0.957153 0.621132 0.294940
C30   C     C_3   0.541181 0.042825 0.378849 0.294874
C31   C     C_3   0.472246 0.605989 0.046249 0.186462
C32   C     C_3   0.527755 0.394010 0.953749 0.186565
C33   C     C_3   0.394863 0.527902 0.951371 0.221695
C34   C     C_3   0.605138 0.472097 0.048629 0.221851
N1    N     N_3   0.500090 0.499970 0.858290 -0.322156
N2    N     N_3   0.499910 0.500030 0.141710 -0.322116
C35   C     C_3   0.577917 0.578821 0.947745 0.237522
C36   C     C_3   0.422082 0.421180 0.052253 0.237678
N3    N     N_R   0.067811 0.976910 0.150036 0.177568
O9    O     O_R   0.025040 0.879523 0.217476 -0.204173
O10   O     O_R   0.125582 0.964000 0.033503 -0.238690
N4    N     N_R   0.932254 0.023146 0.849907 0.177581
O11   O     O_R   0.874503 0.036071 0.966448 -0.238836
O12   O     O_R   0.975012 0.120523 0.782444 -0.204147
N5    N     N_R   0.276263 0.567279 0.901576 0.190860
O13   O     O_R   0.270441 0.661462 0.815327 -0.289508
O14   O     O_R   0.179511 0.536409 0.974418 -0.318060
N6    N     N_R   0.723744 0.432728 0.098418 0.190870
O15   O     O_R   0.820494 0.463644 0.025599 -0.318090
O16   O     O_R   0.729587 0.338533 0.184650 -0.289728
N7    N     N_R   0.435644 0.725545 0.095930 0.209770
O17   O     O_R   0.518093 0.804790 0.133180 -0.213004
O18   O     O_R   0.322885 0.760578 0.081753 -0.165473
N8    N     N_R   0.564360 0.274452 0.904065 0.209812
O19   O     O_R   0.481912 0.195192 0.866851 -0.213129
O20   O     O_R   0.677114 0.239425 0.918241 -0.165511
N9    N     N_R   0.666820 0.672808 0.901197 0.184207
O21   O     O_R   0.719888 0.739521 0.992029 -0.245782
O22   O     O_R   0.683830 0.700962 0.771881 -0.338595
N10   N     N_R   0.333169 0.327203 0.098800 0.184237
O23   O     O_R   0.316144 0.299065 0.228118 -0.338540
O24   O     O_R   0.280120 0.260473 0.007970 -0.245888
F1    F     F_    0.085361 0.227764 0.546032 -0.615075
F2    F     F_    0.914694 0.772257 0.453937 -0.615063
N11   N     N_R   0.917615 0.586601 0.252183 0.205496
O25   O     O_R   0.819478 0.653723 0.245972 -0.223799
O26   O     O_R   0.005869 0.613640 0.164582 -0.275896
N12   N     N_R   0.082379 0.413432 0.747823 0.205471
O27   O     O_R   0.180510 0.346302 0.754036 -0.223827
O28   O     O_R   0.994125 0.386406 0.835429 -0.275954
N13   N     N_R   0.662564 0.071618 0.697694 0.172351
O29   O     O_R   0.670283 0.007495 0.812465 -0.177458
O30   O     O_R   0.747379 0.152531 0.662748 -0.305076
N14   N     N_R   0.337483 0.928424 0.302252 0.172338
O31   O     O_R   0.329849 0.992559 0.187478 -0.177505
O32   O     O_R   0.252626 0.847541 0.337144 -0.304947
N15   N     N_R   0.409548 0.914771 0.754479 0.211337
O33   O     O_R   0.299946 0.946489 0.793158 -0.221072
O34   O     O_R   0.476127 0.848761 0.837465 -0.207620
N16   N     N_R   0.590384 0.085091 0.245422 0.211310
O35   O     O_R   0.524114 0.151782 0.162865 -0.208186
O36   O     O_R   0.699474 0.052342 0.206119 -0.220137

loop_
_geom_bond_atom_site_label_1
_geom_bond_atom_site_label_2
_geom_bond_distance
_ccdc_geom_bond_type
N6    O16   1.300032 A    
N5    O14   1.296633 A    
C2    C27   1.479408 S    
C13   H5    1.082166 S    
C18   C21   1.406742 A    
N15   O33   1.300874 A    
N9    O21   1.298481 A    
C23   C25   1.545273 S    
C5    C7    1.391845 A    
O1    C1    1.332556 A    
C3    C20   1.495604 S    
C19   C21   1.411066 A    
C10   C12   1.416683 A    
C18   N12   1.444358 S    
N10   O24   1.298483 A    
N3    O10   1.300614 A    
C31   N2    1.486564 S    
C36   N10   1.453583 S    
N4    O12   1.299974 A    
C33   C36   1.523935 S    
C26   C28   1.552504 S    
C27   C29   1.542953 S    
O4    Cu1   1.983929 S    
N7    O18   1.299198 A    
C32   N8    1.452158 S    
C6    C16   1.397316 A    
C8    C10   1.401965 A    
C31   C33   1.529412 S    
C32   C34   1.529431 S    
N13   O30   1.300097 A    
C18   C20   1.409040 A    
C34   C35   1.523952 S    
O6    C4    1.334168 A    
C35   N9    1.453593 S    
C24   C26   1.545158 S    
N6    O15   1.296617 A    
C12   F2    1.349392 S    
C31   N7    1.452131 S    
Cu1   Cu2   2.785080 S    
C11   F1    1.349387 S    
C25   H7    1.109518 S    
O2    C2    1.332512 A    
C26   H8    1.109518 S    
C34   N2    1.490598 S    
O5    C3    1.334165 A    
Cu1   N1    2.092848 S    
N1    C35   1.504237 S    
C24   C27   1.531762 S    
N2    C36   1.504247 S    
C32   N1    1.486564 S    
C13   C15   1.394316 A    
C14   C16   1.394318 A    
C33   N5    1.451971 S    
N8    O20   1.299133 A    
N10   O23   1.294359 A    
C31   C35   1.524696 S    
C32   C36   1.524713 S    
N4    O11   1.300604 A    
C33   N1    1.490583 S    
C7    C9    1.401965 A    
O7    Cu2   1.976486 S    
C17   N11   1.444356 S    
N11   O25   1.300712 A    
C6    C8    1.391850 A    
N14   O32   1.300092 A    
C10   C21   1.489674 S    
C24   N14   1.443785 S    
C4    C19   1.495598 S    
O7    C3    1.335820 A    
O3    Cu2   1.983929 S    
O8    C4    1.335816 A    
C23   C28   1.531797 S    
O4    C2    1.315989 A    
Cu2   N2    2.092847 S    
C8    H4    1.073375 S    
N16   O36   1.300691 A    
O1    Cu1   1.998221 S    
C16   N4    1.428297 S    
C34   N6    1.451990 S    
C23   C29   1.528460 S    
C5    H1    1.076999 S    
C24   C30   1.528373 S    
O6    Cu2   1.983441 S    
N11   O26   1.300205 A    
N12   O27   1.300707 A    
N8    O19   1.299761 A    
O3    C1    1.315975 A    
O8    Cu1   1.976486 S    
N15   O34   1.295907 A    
C5    C15   1.397319 A    
C11   C13   1.392700 A    
C9    C22   1.489670 S    
C30   N16   1.454244 S    
C1    C28   1.479481 S    
C12   C14   1.392703 A    
C17   C22   1.406739 A    
C15   N3    1.428290 S    
C20   C22   1.411068 A    
C25   C27   1.552452 S    
N3    O9    1.299994 A    
C14   H6    1.082163 S    
N14   O31   1.298630 A    
C17   C19   1.409030 A    
C25   C30   1.544380 S    
N12   O28   1.300201 A    
C26   C29   1.544412 S    
C9    C11   1.416686 A    
N7    O17   1.299763 A    
O2    Cu2   1.998221 S    
N5    O13   1.300025 A    
C28   C30   1.543018 S    
O5    Cu1   1.983441 S    
C6    H2    1.076997 S    
N16   O35   1.295375 A    
N9    O22   1.294362 A    
C29   N15   1.454253 S    
N13   O29   1.298622 A    
C23   N13   1.443819 S    
C7    H3    1.073375 S    
