data_mof_unit_67441.cif
_audit_creation_date              2013-03-05T15:40:33-0500
_audit_creation_method            fapswitch 2.2
_symmetry_space_group_name_H-M    P1
_symmetry_Int_Tables_number       1
_space_group_crystal_system       triclinic
_cell_length_a                    15.080478
_cell_length_b                    8.883668
_cell_length_c                    7.594465
_cell_angle_alpha                 103.364013
_cell_angle_beta                  93.131337
_cell_angle_gamma                 93.255415
_cell_volume                      985.875196389

loop_
_atom_site_label
_atom_site_type_symbol
_atom_site_description
_atom_site_fract_x
_atom_site_fract_y
_atom_site_fract_z
_atom_type_partial_charge
O1    O     O_R   0.506510 0.286130 0.619770 -0.531927
O2    O     O_R   0.493490 0.713870 0.380230 -0.538049
O3    O     O_R   0.489600 0.256770 0.308360 -0.579500
O4    O     O_R   0.510400 0.743230 0.691640 -0.561709
C1    C     C_R   0.496898 0.200950 0.454014 0.765896
C2    C     C_R   0.503401 0.799178 0.546211 0.803333
O5    O     O_R   0.378710 0.514640 0.655720 -0.565692
O6    O     O_R   0.621290 0.485360 0.344280 -0.596182
O7    O     O_R   0.361800 0.485290 0.344300 -0.616077
O8    O     O_R   0.638200 0.514710 0.655700 -0.594113
C3    C     C_R   0.329397 0.495407 0.501704 0.886642
C4    C     C_R   0.670445 0.499402 0.497056 0.863221
Cu1   Cu    Cu3+1 0.510010 0.517380 0.684380 1.083788
Cu2   Cu    Cu3+1 0.489990 0.482620 0.315620 1.063102
C5    C     C_R   0.819033 0.639000 0.517321 0.378301
C6    C     C_R   0.179656 0.353569 0.433193 0.429634
C7    C     C_R   0.767026 0.499100 0.493366 -0.299596
C8    C     C_R   0.232670 0.492471 0.503048 -0.315881
C9    C     C_R   0.807220 0.359999 0.474789 0.522770
C10   C     C_R   0.193138 0.632928 0.549307 0.504528
C11   C     C_R   0.899688 0.357471 0.464457 -0.115314
C12   C     C_R   0.100388 0.635745 0.552774 -0.118627
C13   C     C_R   0.953364 0.497969 0.506792 -0.181032
C14   C     C_R   0.046859 0.494873 0.506316 -0.191393
C15   C     C_R   0.913047 0.641154 0.541336 -0.104337
C16   C     C_R   0.086417 0.351843 0.447406 -0.138576
C17   C     C_R   0.938922 0.217197 0.409913 0.510776
C18   C     C_R   0.060482 0.777532 0.592864 0.530023
C19   C     C_R   0.031318 0.212383 0.395788 0.330354
C20   C     C_R   0.966968 0.782035 0.587940 0.327975
C21   C     C_2   0.493796 0.032922 0.428853 0.171678
C22   C     C_2   0.507402 0.966764 0.571981 0.198975
N1    N     N_2   0.474890 0.456420 0.038520 0.194484
N2    N     N_2   0.525110 0.543580 0.961480 0.201710
O9    O     O_3   0.778206 0.773086 0.510342 -0.592880
C23   C     C_3   0.746681 0.776667 0.330657 0.161087
H1    H     H_    0.762862 0.895429 0.316744 0.254329
H2    H     H_    0.673170 0.763260 0.321791 0.196012
C24   C     C_3   0.782579 0.660061 0.167817 -0.428658
H3    H     H_    0.853346 0.641023 0.194075 0.210616
H4    H     H_    0.744577 0.545766 0.144710 0.229110
C25   C     C_3   0.775179 0.714823 0.992493 -0.822056
H5    H     H_    0.704701 0.722979 0.950502 0.312007
H6    H     H_    0.804479 0.630099 0.884202 0.246905
H7    H     H_    0.812090 0.829314 0.009486 0.243204
O10   O     O_3   0.217888 0.221016 0.344002 -0.572373
C26   C     C_3   0.235987 0.222890 0.161200 0.083748
H8    H     H_    0.228602 0.101862 0.081128 0.155557
H9    H     H_    0.306999 0.255692 0.152917 0.207767
C27   C     C_3   0.176858 0.319371 0.063331 -0.475579
H10   H     H_    0.106032 0.283633 0.070769 0.210780
H11   H     H_    0.189269 0.444751 0.128541 0.230013
C28   C     C_3   0.195599 0.296984 0.864644 -0.781392
H12   H     H_    0.265012 0.338960 0.851568 0.302262
H13   H     H_    0.149626 0.365283 0.801164 0.227836
H14   H     H_    0.184606 0.173062 0.792898 0.319735
F1    F     F_    0.755518 0.228191 0.467127 -0.701045
F2    F     F_    0.245513 0.766905 0.574965 -0.651058
F3    F     F_    0.887160 0.082785 0.362898 -0.653835
F4    F     F_    0.112452 0.911789 0.621025 -0.629677
O11   O     O_3   0.067702 0.069034 0.348232 -0.479170
C29   C     C_3   0.038980 0.993133 0.166980 0.183374
H15   H     H_    0.094143 0.998483 0.078604 0.135839
H16   H     H_    0.981846 0.046342 0.113853 0.088038
C30   C     C_3   0.007728 0.823701 0.148783 -0.314381
H17   H     H_    0.967359 0.816157 0.262826 0.276255
H18   H     H_    0.964616 0.782153 0.021431 0.164382
C31   C     C_3   0.083551 0.717163 0.140247 -0.855430
H19   H     H_    0.108605 0.694711 0.002845 0.237266
H20   H     H_    0.058173 0.604259 0.163855 0.237804
H21   H     H_    0.138334 0.769164 0.243501 0.319658
O12   O     O_3   0.926099 0.920166 0.598482 -0.511713
C32   C     C_3   0.963073 0.043859 0.739642 0.219371
H22   H     H_    0.009227 0.119415 0.685282 0.201647
H23   H     H_    0.002863 0.003478 0.841244 0.066947
C33   C     C_3   0.887883 0.136918 0.826278 -0.357412
H24   H     H_    0.836573 0.145060 0.719423 0.309880
H25   H     H_    0.856137 0.073842 0.918776 0.209881
C34   C     C_3   0.919978 0.301216 0.930868 -0.968463
H26   H     H_    0.956735 0.298713 0.060091 0.241540
H27   H     H_    0.861791 0.370843 0.963672 0.263698
H28   H     H_    0.963118 0.359721 0.849162 0.266935
O13   O     O_3   0.481452 0.942689 0.252899 -0.567425
C35   C     C_3   0.394230 0.952348 0.178977 0.129192
H29   H     H_    0.400840 0.997796 0.055180 0.216343
H30   H     H_    0.352933 0.032421 0.270215 0.122834
C36   C     C_3   0.344409 0.791518 0.132528 -0.341227
H31   H     H_    0.391920 0.700588 0.115895 0.294888
H32   H     H_    0.302108 0.778018 0.243870 0.237133
C37   C     C_3   0.288256 0.762826 0.955155 -0.814757
H33   H     H_    0.235973 0.846133 0.962780 0.261301
H34   H     H_    0.256654 0.642888 0.922238 0.246090
H35   H     H_    0.332352 0.775800 0.846850 0.322024
O14   O     O_3   0.516612 0.053639 0.749787 -0.559482
C38   C     C_3   0.606168 0.112709 0.796227 0.147031
H36   H     H_    0.604644 0.236087 0.869913 0.215985
H37   H     H_    0.646436 0.115020 0.677474 0.132887
C39   C     C_3   0.652447 0.022126 0.917900 -0.427207
H38   H     H_    0.603930 0.941961 0.962216 0.315407
H39   H     H_    0.701975 0.952022 0.839226 0.213121
C40   C     C_3   0.698930 0.131042 0.086070 -0.770308
H40   H     H_    0.736986 0.229455 0.051272 0.231829
H41   H     H_    0.745971 0.066831 0.151260 0.300530
H42   H     H_    0.648871 0.177387 0.182251 0.305349
F5    F     F_    0.431895 0.332545 0.926839 -0.561731
F6    F     F_    0.563325 0.671975 0.072092 -0.587352

loop_
_geom_bond_atom_site_label_1
_geom_bond_atom_site_label_2
_geom_bond_distance
_ccdc_geom_bond_type
C22   O14   1.387047 S    
C36   H31   1.100129 S    
C3    C8    1.458073 S    
C40   H40   1.109031 S    
C17   C19   1.405635 A    
C32   H22   1.100841 S    
C2    C22   1.453351 S    
C38   H36   1.111641 S    
C33   C34   1.528843 S    
Cu2   N1    2.061513 S    
C38   C39   1.524972 S    
C26   H9    1.102753 S    
C28   H12   1.108506 S    
C9    F1    1.357300 S    
O5    C3    1.322309 A    
O13   C35   1.416722 S    
O1    C1    1.305961 A    
C23   H1    1.099522 S    
C9    C11   1.402088 A    
C14   C16   1.422323 A    
C5    C15   1.418018 A    
C21   O13   1.386927 S    
O4    Cu1   1.994018 S    
C29   H16   1.106803 S    
C36   H32   1.110622 S    
C21   C22   1.361506 D    
C31   H19   1.107621 S    
C30   H18   1.110566 S    
C4    C7    1.458440 S    
C27   H11   1.110007 S    
C13   C14   1.411966 A    
C35   C36   1.531792 S    
C24   C25   1.520318 S    
O11   C29   1.417634 S    
C28   H13   1.108015 S    
C11   C17   1.395144 A    
C40   H41   1.100854 S    
C12   C18   1.403654 A    
Cu1   Cu2   2.743497 S    
C32   H23   1.089021 S    
O2    C2    1.307891 A    
C25   H6    1.108796 S    
C5    O9    1.381914 S    
N1    N2    1.306389 D    
C26   C27   1.546308 S    
C18   F4    1.356504 S    
C6    C16   1.415578 A    
C19   O11   1.393416 S    
C27   C28   1.520040 S    
N2    F6    1.329781 S    
N1    F5    1.333495 S    
C33   H24   1.107882 S    
C24   H4    1.109386 S    
C6    O10   1.388859 S    
C24   H3    1.104595 S    
C34   H27   1.108574 S    
O9    C23   1.428323 S    
O7    Cu2   1.958048 S    
C29   H15   1.102723 S    
C37   H34   1.109538 S    
C26   H8    1.102253 S    
O6    C4    1.319040 A    
C30   C31   1.519903 S    
C27   H10   1.105071 S    
C35   H29   1.112659 S    
O7    C3    1.301913 A    
O3    Cu2   1.994018 S    
O8    C4    1.304722 A    
O4    C2    1.313380 A    
C10   C12   1.401942 A    
C30   H17   1.097742 S    
C40   H42   1.108811 S    
C39   H39   1.110089 S    
C11   C13   1.409885 A    
C32   C33   1.529242 S    
C12   C14   1.411487 A    
O1    Cu1   1.995688 S    
C25   H5    1.104078 S    
C10   F2    1.359265 S    
C37   H35   1.107658 S    
C28   H14   1.108349 S    
C15   C20   1.414585 A    
C5    C7    1.400709 A    
O10   C26   1.433062 S    
O6    Cu2   1.978288 S    
C29   C30   1.524122 S    
C23   C24   1.562096 S    
C33   H25   1.106753 S    
O12   C32   1.410023 S    
O3    C1    1.314569 A    
O8    Cu1   1.958048 S    
C34   H28   1.110490 S    
C20   O12   1.392098 S    
C38   H37   1.117818 S    
C39   C40   1.520732 S    
C23   H2    1.104903 S    
Cu1   N2    2.061513 S    
C17   F3    1.352490 S    
C37   H33   1.106416 S    
C31   H21   1.108711 S    
C18   C20   1.411774 A    
C7    C9    1.388583 A    
C8    C10   1.393023 A    
C13   C15   1.416864 A    
O14   C38   1.416214 S    
O2    Cu2   1.995688 S    
C34   H26   1.105858 S    
O5    Cu1   1.978288 S    
C16   C19   1.414916 A    
C6    C8    1.407932 A    
C39   H38   1.110989 S    
C36   C37   1.512863 S    
C31   H20   1.109801 S    
C35   H30   1.115156 S    
C25   H7    1.108230 S    
C1    C21   1.458112 S    
