data_mof_unit_41739.cif
_audit_creation_date              2012-12-11T16:53:21-0500
_audit_creation_method            fapswitch 2.2
_symmetry_space_group_name_H-M    P1
_symmetry_Int_Tables_number       1
_space_group_crystal_system       triclinic
_cell_length_a                    14.888246
_cell_length_b                    14.748723
_cell_length_c                    17.09001
_cell_angle_alpha                 108.381558
_cell_angle_beta                  105.8508
_cell_angle_gamma                 108.191218
_cell_volume                      3082.48411148

loop_
_atom_site_label
_atom_site_type_symbol
_atom_type_description
_atom_site_fract_x
_atom_site_fract_y
_atom_site_fract_z
_atom_type_partial_charge
C1    C     C_R   0.088614 0.284289 0.072865 -0.032590
C2    C     C_R   0.067206 0.479839 0.250865 -0.145749
C3    C     C_R   0.239533 0.799098 0.184730 -0.107553
C4    C     C_R   0.940595 0.463362 0.735431 -0.060627
C5    C     C_R   0.738082 0.465871 0.049162 0.000202
C6    C     C_R   0.265779 0.804996 0.270247 0.033299
C7    C     C_R   0.718295 0.549308 0.039829 -0.057939
C8    C     C_R   0.979328 0.417784 0.254566 0.052947
C9    C     C_R   0.999720 0.814786 0.961123 0.143484
C10   C     C_R   0.509856 0.634981 0.019889 0.133591
C11   C     C_R   0.471385 0.601626 0.076967 0.129560
C12   C     C_R   0.035313 0.481508 0.727934 -0.027353
C13   C     C_R   0.538462 0.592384 0.146796 -0.119871
C14   C     C_R   0.631645 0.591672 0.144299 -0.217182
C15   C     C_R   0.653201 0.595016 0.069800 0.014099
C16   C     C_R   0.722624 0.213621 0.823500 -0.021482
C17   C     C_R   0.599756 0.631971 0.016328 -0.025656
C18   C     C_3   0.557263 0.595471 0.915800 0.581849
C19   C     C_3   0.458601 0.598805 0.919860 -0.455603
C20   C     C_R   0.980956 0.380245 0.324738 0.104397
C21   C     C_R   0.053174 0.453022 0.644220 -0.032636
C22   C     C_R   0.160641 0.493877 0.563772 -0.140369
C23   C     C_R   0.668724 0.219337 0.747266 0.006335
C24   C     C_R   0.145313 0.520382 0.643524 -0.106473
C25   C     C_R   0.976598 0.361763 0.563628 -0.079457
C26   C     C_R   0.981183 0.353873 0.480328 0.107994
C27   C     C_R   0.073106 0.422978 0.481993 0.108608
C28   C     C_R   0.300347 0.596987 0.003815 0.601937
C29   C     C_R   0.071487 0.433609 0.403955 -0.191723
C30   C     C_R   0.894141 0.301321 0.318899 -0.193077
C31   C     C_R   0.895293 0.285676 0.395668 -0.139913
C32   C     C_R   0.575891 0.138678 0.670752 0.120705
C33   C     C_R   0.343112 0.896384 0.349473 0.116275
C34   C     C_R   0.360894 0.564559 0.053570 -0.310182
C35   C     C_R   0.523756 0.015188 0.431721 -0.187401
C36   C     C_R   0.440795 0.944031 0.350433 -0.167006
C37   C     C_R   0.324900 0.924126 0.427282 -0.270624
C38   C     C_R   0.407305 0.997571 0.508980 0.213862
C39   C     C_R   0.507574 0.039645 0.510876 0.182553
C40   C     C_R   0.726895 0.313707 0.749956 -0.084276
C41   C     C_R   0.590864 0.105503 0.591897 -0.308539
C42   C     C_R   0.475929 0.103750 0.670612 -0.008249
C43   C     C_R   0.391883 0.028767 0.588673 -0.332023
C44   C     C_R   0.086127 0.129978 0.155736 -0.095258
C45   C     C_R   0.232192 0.703355 0.264194 -0.103714
C46   C     C_R   0.000291 0.110663 0.081851 0.105682
C47   C     C_R   0.907782 0.018553 0.051188 -0.155665
C48   C     C_R   0.906395 0.944427 0.087155 -0.175594
C49   C     C_R   0.997142 0.960066 0.153461 0.074940
C50   C     C_R   0.083987 0.056839 0.191045 0.082891
C51   C     C_3   0.194229 0.079009 0.210025 -0.608487
C52   C     C_R   0.296765 0.499087 0.078323 0.657648
C53   C     C_3   0.197039 0.158281 0.170377 0.684779
C54   C     C_R   0.112538 0.538981 0.814885 -0.125463
C55   C     C_R   0.917596 0.199322 0.997050 -0.150776
C56   C     C_R   0.756684 0.570829 0.979636 -0.098392
C57   C     C_R   0.003539 0.189315 0.044210 0.055534
C58   C     C_2   0.679218 0.388600 0.075135 0.511982
C59   C     C_2   0.263895 0.549221 0.564385 0.568171
C60   C     C_2   0.218960 0.625380 0.721161 0.450053
C61   C     C_2   0.894142 0.278477 0.569006 0.436734
C62   C     C_2   0.678681 0.139502 0.858442 0.585645
C63   C     C_2   0.454690 0.145932 0.751195 0.566266
C64   C     C_2   0.685082 0.368055 0.701066 0.523655
C65   C     C_R   0.895988 0.393000 0.177368 -0.156076
C66   C     C_R   0.084040 0.801998 0.006537 -0.131354
C67   C     C_R   0.914421 0.718710 0.929057 -0.145007
F1    F     F_    0.608399 0.672070 0.892753 -0.664392
F2    F     F_    0.335966 0.686247 0.992177 -0.695091
F3    F     F_    0.208099 0.126738 0.089541 -0.663812
F4    F     F_    0.328057 0.466478 0.142240 -0.711225
H1    H     H_    0.165288 0.311707 0.123325 0.158352
H2    H     H_    0.864400 0.421992 0.680927 0.151050
H3    H     H_    0.547942 0.514595 0.876093 0.054711
H4    H     H_    0.443809 0.661227 0.903287 0.301726
H5    H     H_    0.391400 0.518977 0.884087 0.132612
H6    H     H_    0.137669 0.496103 0.409504 0.127235
H7    H     H_    0.824243 0.255216 0.256813 0.138360
H8    H     H_    0.825409 0.226020 0.388341 0.189156
H9    H     H_    0.668356 0.135251 0.593499 0.164429
H10   H     H_    0.600454 0.048760 0.433025 0.172435
H11   H     H_    0.314278 0.998093 0.586235 0.130539
H12   H     H_    0.753971 0.630023 0.956457 0.158141
H13   H     H_    0.453991 0.920579 0.289337 0.148702
H14   H     H_    0.248007 0.885777 0.424245 0.132638
H15   H     H_    0.837569 0.000759 0.996849 0.152259
H16   H     H_    0.836562 0.871659 0.059514 0.164439
H17   H     H_    0.243661 0.117276 0.283820 0.177010
H18   H     H_    0.203049 0.009639 0.169347 0.215615
H19   H     H_    0.250850 0.241973 0.219918 0.035075
H20   H     H_    0.194251 0.560657 0.835458 0.167956
H21   H     H_    0.839084 0.147980 0.980171 0.092925
H22   H     H_    0.247349 0.679900 0.318513 0.115809
H23   H     H_    0.819302 0.331196 0.152609 0.146600
H24   H     H_    0.650053 0.411777 0.125752 0.019831
H25   H     H_    0.312680 0.632975 0.608274 0.071824
H26   H     H_    0.189697 0.680192 0.750481 0.058268
H27   H     H_    0.915434 0.252361 0.621045 0.032360
H28   H     H_    0.700357 0.166703 0.930322 0.057134
H29   H     H_    0.379288 0.105274 0.749920 0.018714
H30   H     H_    0.612837 0.323073 0.640763 0.034140
H31   H     H_    0.164283 0.856304 0.030238 0.139828
H32   H     H_    0.837794 0.696391 0.880931 0.172788
H33   H     H_    0.146487 0.497314 0.288715 0.116328
H34   H     H_    0.261784 0.863373 0.165913 0.112025
H35   H     H_    0.515537 0.576209 0.197599 0.198251
H36   H     H_    0.680305 0.578088 0.194805 0.128495
N1    N     N_R   0.055640 0.348550 0.045600 -0.055308
N2    N     N_R   0.811290 0.303400 0.871650 -0.091594
N3    N     N_R   0.205180 0.552990 0.997660 -0.146456
N4    N     N_R   0.814810 0.361830 0.823710 -0.052634
N5    N     N_R   0.201660 0.494570 0.045600 -0.145021
N6    N     N_R   0.068420 0.560530 0.871650 -0.041787
N7    N     N_R   0.948050 0.295860 0.997660 -0.058931
N8    N     N_R   0.185190 0.638170 0.176290 -0.050749
N9    N     N_R   0.798340 0.505430 0.954400 -0.036269
N10   N     N_R   0.931580 0.439470 0.128350 -0.049451
N11   N     N_R   0.051950 0.704140 0.002340 -0.052582
N12   N     N_R   0.944360 0.651450 0.954400 -0.048022
N13   N     N_R   0.039170 0.492150 0.176290 -0.043299
N14   N     N_R   0.188710 0.696600 0.128350 -0.044706
N15   N     N_R   0.794820 0.447010 0.002340 -0.047768
N16   N     N_R   0.960830 0.507850 0.823710 -0.032452
Ni1   Ni    Ni4+2 0.119330 0.493420 0.109950 0.241310
Ni2   Ni    Ni4+2 0.880670 0.506580 0.890050 0.287458
Ni3   Ni    Ni4+2 0.872590 0.372590 0.000000 0.234660
Ni4   Ni    Ni4+2 0.127410 0.627410 0.000000 0.267204
O1    O     O_2   0.657921 0.294864 0.036020 -0.585633
O2    O     O_2   0.295581 0.500224 0.515437 -0.567577
O3    O     O_2   0.311553 0.649524 0.755109 -0.559731
O4    O     O_2   0.802439 0.244204 0.520962 -0.621798
O5    O     O_2   0.615856 0.047756 0.806955 -0.568819
O6    O     O_2   0.518717 0.227595 0.818334 -0.586168
O7    O     O_2   0.729116 0.464244 0.729439 -0.583454

loop_
_geom_bond_atom_site_label_1
_geom_bond_atom_site_label_2
_ccdc_geom_bond_type
C58   O1    D    
N8    N14   A    
C6    C45   A    
C27   C29   A    
C66   H31   S    
C61   H27   S    
C3    C6    A    
C45   H22   S    
C41   H9    S    
C35   H10   S    
C67   H32   S    
C39   C41   A    
C20   C30   A    
C3    H34   S    
C26   C27   A    
C8    C20   S    
N9    N15   A    
C5    C58   S    
C63   O6    D    
C37   H14   S    
C19   H5    S    
C37   C38   A    
N14   Ni4   S    
N2    N4    A    
C30   C31   A    
N7    Ni3   S    
N16   Ni2   S    
C52   N5    A    
C10   C17   A    
C18   F1    S    
C23   C40   A    
C54   N6    A    
C33   C36   A    
C18   C19   S    
N1    N7    A    
N11   N12   A    
C9    C66   A    
C44   C53   S    
C59   O2    D    
C28   F2    S    
C42   C43   A    
N4    Ni2   S    
C32   C41   A    
C4    C12   A    
N10   Ni3   S    
N3    Ni4   S    
C7    C15   S    
C28   C34   A    
C8    C65   A    
C18   H3    S    
N5    Ni1   S    
C13   C14   A    
C54   H20   S    
C16   C62   S    
C7    C56   A    
N1    Ni1   S    
C53   F3    S    
C44   C46   A    
C16   N2    A    
C50   C51   S    
C40   N4    A    
C20   C29   A    
C64   H30   S    
C64   O7    D    
C1    H1    S    
C47   H15   S    
C62   O5    D    
C60   H26   S    
N10   N13   A    
C60   O3    D    
C22   C59   S    
C5    C7    A    
C2    N13   A    
C28   N3    A    
C25   C26   A    
C5    N15   A    
C33   C37   A    
C4    N16   A    
C51   C53   S    
C35   C36   A    
N15   Ni3   S    
C35   C39   A    
C58   H24   S    
C9    C67   A    
C63   H29   S    
C1    C57   A    
C45   N8    A    
C47   C48   A    
N6    N16   A    
C2    H33   S    
C10   C19   S    
C24   C60   S    
C17   C18   S    
C56   N9    A    
C48   H16   S    
C25   C61   S    
C4    H2    S    
N12   Ni2   S    
C65   H23   S    
C55   H21   S    
C16   C23   A    
N9    Ni2   S    
C55   C57   A    
C46   C57   S    
C22   C24   A    
N11   Ni4   S    
C14   H36   S    
C56   H12   S    
C44   C50   A    
C15   C17   A    
C21   C25   A    
C46   C47   A    
C48   C49   A    
C65   N10   A    
N8    Ni1   S    
C11   C34   S    
C2    C8    A    
C13   H35   S    
C51   H17   S    
C31   H8    S    
N6    Ni4   S    
C55   N7    A    
C34   C52   A    
C40   C64   S    
C6    C33   S    
C22   C27   A    
C23   C32   S    
C19   H4    S    
C38   C43   A    
C52   F4    S    
C51   H18   S    
C11   C13   A    
C38   C39   A    
C36   H13   S    
C12   C21   S    
C59   H25   S    
N3    N5    A    
C10   C11   A    
C61   O4    D    
C1    N1    A    
C62   H28   S    
C30   H7    S    
C3    N14   A    
N2    Ni3   S    
C26   C31   A    
C29   H6    S    
C49   C50   A    
C66   N11   A    
C21   C24   A    
C53   H19   S    
C43   H11   S    
C32   C42   A    
C14   C15   A    
C67   N12   A    
C42   C63   S    
C12   C54   A    
N13   Ni1   S    
