data_mof_unit_11705.cif
_audit_creation_date              2012-12-10T18:57:44-0500
_audit_creation_method            fapswitch 2.2
_symmetry_space_group_name_H-M    P1
_symmetry_Int_Tables_number       1
_space_group_crystal_system       triclinic
_cell_length_a                    10.928246
_cell_length_b                    10.795002
_cell_length_c                    9.557716
_cell_angle_alpha                 90.305223
_cell_angle_beta                  89.725869
_cell_angle_gamma                 90.260335
_cell_volume                      1127.48752438

loop_
_atom_site_label
_atom_site_type_symbol
_atom_type_description
_atom_site_fract_x
_atom_site_fract_y
_atom_site_fract_z
_atom_type_partial_charge
C1    C     C_R   0.498823 0.262534 0.499773 0.832032
C2    C     C_R   0.492863 0.129319 0.500894 -0.006744
C3    C     C_R   0.429444 0.063793 0.396506 -0.210724
C4    C     C_R   0.429204 0.934450 0.397097 -0.217965
C5    C     C_R   0.493442 0.870786 0.501186 -0.004424
C6    C     C_R   0.548364 0.937224 0.609460 -0.061079
C7    C     C_3   0.677976 0.932668 0.658974 0.320049
C8    C     C_3   0.675118 0.074052 0.663779 0.314066
C9    C     C_R   0.563613 0.588435 0.074046 0.266658
C10   C     C_R   0.428418 0.420065 0.074294 -0.088818
C11   C     C_R   0.428365 0.420092 0.925503 -0.081745
C12   C     C_R   0.265343 0.498052 0.500339 0.837610
C13   C     C_R   0.563942 0.588250 0.926516 0.235007
C14   C     C_3   0.698720 0.611010 0.919876 -0.522914
C15   C     C_3   0.698622 0.610630 0.079006 -0.122181
C16   C     C_R   0.499392 0.737526 0.500141 0.823609
C17   C     C_R   0.734636 0.501593 0.499906 0.885512
C18   C     C_2   0.933576 0.490437 0.386023 -0.163209
C19   C     C_2   0.866638 0.508429 0.501934 -0.343076
C20   C     C_2   0.067397 0.497032 0.385666 -0.165839
C21   C     C_2   0.133283 0.490954 0.503212 -0.329896
C22   C     C_R   0.546889 0.064832 0.610329 -0.059008
Cu1   Cu    Cu3+1 0.499990 0.499980 0.640670 0.939209
Cu2   Cu    Cu3+1 0.500010 0.500020 0.359330 0.942376
H1    H     H_    0.889661 0.471598 0.286702 0.156112
H2    H     H_    0.372296 0.353652 0.129956 0.136656
H3    H     H_    0.372170 0.353726 0.869701 0.136500
H4    H     H_    0.749754 0.531477 0.874367 0.189165
H5    H     H_    0.721635 0.701386 0.872298 0.192544
H6    H     H_    0.748399 0.529320 0.120238 0.149961
H7    H     H_    0.907424 0.530532 0.601986 0.132937
H8    H     H_    0.112404 0.504727 0.284463 0.164833
H9    H     H_    0.091649 0.477281 0.604968 0.141533
H10   H     H_    0.382524 0.112256 0.313706 0.141495
H11   H     H_    0.381654 0.884507 0.314996 0.143462
H12   H     H_    0.684334 0.888418 0.763437 -0.008256
H13   H     H_    0.676629 0.113622 0.772039 0.011910
N1    N     N_R   0.500780 0.500930 0.147930 -0.206605
N2    N     N_R   0.500780 0.500890 0.852020 -0.187518
O1    O     O_R   0.500000 0.319640 0.618810 -0.592742
O2    O     O_R   0.500010 0.319680 0.381230 -0.583371
O3    O     O_R   0.321940 0.499980 0.618760 -0.589602
O4    O     O_R   0.321950 0.500020 0.381180 -0.585950
O5    O     O_R   0.499990 0.680320 0.618770 -0.584827
O6    O     O_R   0.500000 0.680360 0.381190 -0.588730
O7    O     O_R   0.678050 0.499980 0.618820 -0.589878
O8    O     O_R   0.678060 0.500020 0.381240 -0.585225
O9    O     O_3   0.753863 0.129660 0.563804 -0.519417
C23   C     C_3   0.848182 0.194690 0.632728 -0.296642
H14   H     H_    0.913216 0.230689 0.553129 0.196224
H15   H     H_    0.900025 0.133239 0.704030 0.136761
H16   H     H_    0.810762 0.275268 0.691704 0.156659
C24   C     C_3   0.738338 0.733188 0.150453 -0.322767
C25   C     C_3   0.657389 0.845465 0.120400 -0.788501
H17   H     H_    0.659415 0.869097 0.007873 0.217965
H18   H     H_    0.561482 0.827603 0.153105 0.252605
H19   H     H_    0.691723 0.926704 0.180474 0.261086
H20   H     H_    0.739232 0.718729 0.265404 0.239736
H21   H     H_    0.833790 0.754962 0.118094 0.191339
O10   O     O_3   0.755838 0.885370 0.552669 -0.527224
C26   C     C_3   0.863284 0.838275 0.612806 -0.289714
H22   H     H_    0.927921 0.813108 0.527547 0.190438
H23   H     H_    0.842950 0.752818 0.672880 0.139674
H24   H     H_    0.909151 0.908186 0.680765 0.148865

loop_
_geom_bond_atom_site_label_1
_geom_bond_atom_site_label_2
_ccdc_geom_bond_type
C16   O6    A    
C2    C22   A    
C26   H24   S    
C8    C22   S    
C24   H20   S    
C8    O9    S    
C24   C25   S    
C6    C7    S    
C10   N1    A    
C7    H12   S    
C16   O5    A    
Cu2   N1    S    
C3    H10   S    
C11   H3    S    
Cu1   Cu2   S    
C23   H16   S    
C19   H7    S    
C10   H2    S    
C2    C3    A    
C24   H21   S    
C4    H11   S    
C7    C8    S    
Cu1   O7    S    
C13   C14   S    
C17   O7    A    
C11   N2    A    
Cu2   O2    S    
Cu1   O3    S    
C5    C6    A    
C18   H1    S    
Cu1   N2    S    
Cu2   O6    S    
C15   C24   S    
C1    O2    A    
O9    C23   S    
C17   C19   S    
C20   H8    S    
C23   H14   S    
C12   O4    A    
C18   C20   S    
C9    C15   S    
C26   H22   S    
C25   H18   S    
C13   N2    A    
C21   H9    S    
C8    H13   S    
C14   H5    S    
Cu1   O1    S    
C6    C22   A    
C9    N1    A    
C7    O10   S    
C4    C5    A    
C20   C21   D    
C3    C4    A    
C15   H6    S    
C1    C2    S    
C10   C11   A    
C26   H23   S    
Cu2   O4    S    
C9    C13   A    
C25   H17   S    
C18   C19   D    
C5    C16   S    
C12   O3    A    
C1    O1    A    
C14   H4    S    
C14   C15   S    
Cu2   O8    S    
C12   C21   S    
Cu1   O5    S    
C17   O8    A    
O10   C26   S    
C23   H15   S    
C25   H19   S    
