data_mof_unit_31396.cif
_audit_creation_date              2012-12-11T15:36:39-0500
_audit_creation_method            fapswitch 2.2
_symmetry_space_group_name_H-M    P1
_symmetry_Int_Tables_number       1
_space_group_crystal_system       triclinic
_cell_length_a                    15.077475
_cell_length_b                    15.065486
_cell_length_c                    34.824315
_cell_angle_alpha                 91.142599
_cell_angle_beta                  91.503716
_cell_angle_gamma                 60.095789
_cell_volume                      6854.56940264

loop_
_atom_site_label
_atom_site_type_symbol
_atom_type_description
_atom_site_fract_x
_atom_site_fract_y
_atom_site_fract_z
_atom_type_partial_charge
C1    C     C_R   0.610790 0.302989 0.443952 0.543060
C2    C     C_R   0.736950 0.680140 0.181594 0.068771
C3    C     C_R   0.611910 0.151328 0.830793 0.032774
C4    C     C_R   0.682183 0.170748 0.851168 -0.124349
C5    C     C_R   0.712382 0.135497 0.888505 -0.131602
C6    C     C_R   0.592242 0.259790 0.774250 -0.120098
C7    C     C_R   0.595961 0.270501 0.734825 -0.117091
C8    C     C_R   0.601912 0.194333 0.709444 0.025264
C9    C     C_R   0.598500 0.109915 0.723873 -0.114891
C10   C     C_R   0.595888 0.098598 0.763479 -0.112025
C11   C     C_R   0.595534 0.172208 0.789098 0.026838
C12   C     C_R   0.547447 0.196354 0.641009 -0.119034
C13   C     C_R   0.821663 0.613418 0.159682 -0.085841
C14   C     C_R   0.549835 0.220219 0.602644 -0.124372
C15   C     C_R   0.692533 0.247379 0.617630 -0.126057
C16   C     C_R   0.689162 0.224906 0.655980 -0.124030
C17   C     C_R   0.614319 0.202855 0.668144 0.027995
C18   C     C_R   0.619980 0.249665 0.590931 0.021889
C19   C     C_R   0.046795 0.738246 0.048381 0.533207
C20   C     C_R   0.747080 0.746501 0.063999 0.546070
C21   C     C_R   0.750535 0.041105 0.050462 0.540712
C22   C     C_R   0.016262 0.722729 0.939529 0.540207
C23   C     C_R   0.717827 0.729978 0.954764 0.541782
C24   C     C_R   0.822820 0.631075 0.120566 -0.135600
C25   C     C_R   0.721484 0.024607 0.942107 0.540725
C26   C     C_R   0.752192 0.576702 0.239134 0.278560
C27   C     C_R   0.742663 0.572467 0.279083 -0.110477
C28   C     C_R   0.722704 0.656610 0.302836 -0.011724
C29   C     C_R   0.713828 0.745150 0.286822 -0.139195
C30   C     C_R   0.721515 0.750853 0.247351 -0.175308
C31   C     C_R   0.738292 0.668135 0.223377 0.038575
C32   C     C_R   0.609471 0.733886 0.358964 -0.116361
C33   C     C_R   0.593581 0.610209 0.449479 0.545567
C34   C     C_R   0.577307 0.722640 0.394818 -0.128394
C35   C     C_R   0.730902 0.556889 0.401510 -0.126668
C36   C     C_R   0.762615 0.567952 0.365650 -0.123488
C37   C     C_R   0.700310 0.654722 0.343551 0.036526
C38   C     C_R   0.635874 0.632169 0.415689 0.021404
C39   C     C_R   0.107669 0.723464 0.084486 0.006032
C40   C     C_R   0.131559 0.636245 0.106280 -0.136252
C41   C     C_R   0.152607 0.633451 0.145316 -0.128884
C42   C     C_R   0.152412 0.716740 0.163675 0.018574
C43   C     C_R   0.144615 0.797168 0.141485 -0.116531
C44   C     C_R   0.304018 0.591678 0.442365 0.542392
C45   C     C_R   0.123779 0.800986 0.101570 -0.014179
C46   C     C_R   0.222050 0.743822 0.226289 -0.116115
C47   C     C_R   0.229668 0.736764 0.266338 -0.114282
C48   C     C_R   0.169663 0.706567 0.286650 0.027720
C49   C     C_R   0.098653 0.688287 0.266428 -0.120975
C50   C     C_R   0.091176 0.695203 0.226549 -0.117878
C51   C     C_R   0.154712 0.720271 0.206065 0.028359
C52   C     C_R   0.195718 0.595824 0.343158 -0.120185
C53   C     C_R   0.226917 0.568248 0.381253 -0.128140
C54   C     C_R   0.234947 0.723805 0.390943 -0.126171
C55   C     C_R   0.605428 0.300616 0.553748 0.541582
C56   C     C_R   0.204145 0.751105 0.352837 -0.123238
C57   C     C_R   0.187333 0.685847 0.328287 0.032012
C58   C     C_R   0.250226 0.630290 0.405148 0.021099
C59   C     C_R   0.721175 0.101877 0.086232 0.021979
C60   C     C_R   0.791755 0.121839 0.105925 -0.128158
C61   C     C_R   0.777265 0.151846 0.144404 -0.127437
C62   C     C_R   0.689841 0.166294 0.163220 0.033377
C63   C     C_R   0.613867 0.157308 0.142339 -0.119019
C64   C     C_R   0.629653 0.124743 0.104156 -0.125817
C65   C     C_R   0.591142 0.251236 0.222184 -0.113294
C66   C     C_R   0.586766 0.606027 0.559345 0.545034
C67   C     C_R   0.582737 0.257029 0.262029 -0.113361
C68   C     C_R   0.665672 0.189799 0.285556 0.027683
C69   C     C_R   0.757552 0.117554 0.268476 -0.121926
C70   C     C_R   0.766190 0.112416 0.228663 -0.118896
C71   C     C_R   0.682902 0.178871 0.205236 0.028126
C72   C     C_R   0.739318 0.193572 0.350134 -0.121449
C73   C     C_R   0.726766 0.218600 0.389053 -0.124777
C74   C     C_R   0.553389 0.248317 0.384721 -0.129055
C75   C     C_R   0.566184 0.222745 0.345752 -0.122842
C76   C     C_R   0.657798 0.199371 0.327795 0.032252
C77   C     C_R   0.297301 0.589472 0.551498 0.543457
C78   C     C_R   0.632148 0.250780 0.406303 0.021422
C79   C     C_R   0.695854 0.688068 0.919374 0.020647
C80   C     C_R   0.775902 0.599923 0.902205 -0.127409
C81   C     C_R   0.767042 0.574536 0.864224 -0.137482
C82   C     C_R   0.677051 0.634791 0.843114 0.031223
C83   C     C_R   0.593481 0.717288 0.860975 -0.103852
C84   C     C_R   0.602923 0.744225 0.898917 -0.130846
C85   C     C_R   0.610373 0.586059 0.783800 -0.002980
C86   C     C_R   0.603108 0.585027 0.743486 -0.097524
C87   C     C_R   0.660554 0.613757 0.721045 0.050554
C88   C     C_R   0.739008 0.715531 0.102984 0.020146
C89   C     C_R   0.727957 0.640856 0.738715 -0.112228
C90   C     C_R   0.734818 0.643695 0.778605 -0.131999
C91   C     C_R   0.674976 0.618759 0.801366 0.013641
C92   C     C_R   0.722861 0.544484 0.655828 -0.178852
C93   C     C_R   0.706643 0.544001 0.616190 -0.148071
C94   C     C_R   0.541936 0.698520 0.622305 -0.115532
C95   C     C_R   0.556228 0.697301 0.662339 0.274213
C96   C     C_R   0.646964 0.619285 0.679064 0.036717
C97   C     C_R   0.614860 0.619536 0.599138 -0.020373
C98   C     C_R   0.059230 0.700950 0.900921 0.023274
C99   C     C_R   0.652132 0.778622 0.124745 -0.126300
C100  C     C_R   0.083113 0.769466 0.883495 -0.124885
C101  C     C_R   0.102685 0.761406 0.844362 -0.125694
C102  C     C_R   0.098053 0.685123 0.822084 0.021529
C103  C     C_R   0.080197 0.612979 0.839981 -0.127291
C104  C     C_R   0.061478 0.620483 0.879135 -0.128240
C105  C     C_R   0.165298 0.587926 0.761066 -0.126773
C106  C     C_R   0.175748 0.584699 0.721494 -0.116052
C107  C     C_R   0.130204 0.675560 0.700231 0.027996
C108  C     C_R   0.073832 0.769914 0.719138 -0.121155
C109  C     C_R   0.063085 0.773165 0.758852 -0.116299
C110  C     C_R   0.651434 0.761328 0.163778 -0.121685
C111  C     C_R   0.109245 0.682126 0.780131 0.022181
C112  C     C_R   0.183654 0.732714 0.643157 -0.129174
C113  C     C_R   0.225665 0.711111 0.606679 -0.136023
C114  C     C_R   0.188645 0.572243 0.599785 -0.125021
C115  C     C_R   0.147175 0.593615 0.636230 -0.121991
C116  C     C_R   0.149289 0.670494 0.658890 0.032544
C117  C     C_R   0.232984 0.627415 0.585550 0.023514
C118  C     C_R   0.673121 0.079926 0.906290 0.021483
C119  C     C_R   0.597233 0.066876 0.887088 -0.130624
C120  C     C_R   0.567080 0.102071 0.849527 -0.123792
Cr1   Cr    Cr6+3 0.426010 0.422500 0.497000 1.009442
Cr2   Cr    Cr6+3 0.651300 0.426310 0.501970 1.008715
Cr3   Cr    Cr6+3 0.422670 0.651170 0.501050 1.008793
Cr4   Cr    Cr6+3 0.905130 0.911420 0.992650 1.024682
Cr5   Cr    Cr6+3 0.911860 0.682710 0.002320 1.004697
Cr6   Cr    Cr6+3 0.682710 0.906840 0.004710 1.009292
H1    H     H_    0.586325 0.844203 0.112054 0.130662
H2    H     H_    0.504011 0.782058 0.405117 0.125288
H3    H     H_    0.888268 0.550320 0.173161 0.114361
H4    H     H_    0.778344 0.486739 0.417124 0.125154
H5    H     H_    0.125307 0.572911 0.094015 0.132891
H6    H     H_    0.196601 0.821676 0.342212 0.099796
H7    H     H_    0.285801 0.750315 0.281251 0.106758
H8    H     H_    0.271729 0.763230 0.211069 0.106855
H9    H     H_    0.163591 0.568118 0.161644 0.104908
H10   H     H_    0.050319 0.666667 0.281428 0.105257
H11   H     H_    0.890972 0.581447 0.104562 0.120307
H12   H     H_    0.036843 0.679062 0.211551 0.107098
H13   H     H_    0.183895 0.543701 0.324751 0.100574
H14   H     H_    0.238224 0.495673 0.391288 0.123552
H15   H     H_    0.151602 0.858249 0.155529 0.097761
H16   H     H_    0.251709 0.773679 0.408687 0.124606
H17   H     H_    0.861424 0.107316 0.092428 0.133144
H18   H     H_    0.573205 0.111144 0.089516 0.121444
H19   H     H_    0.502965 0.225335 0.329319 0.099793
H20   H     H_    0.511821 0.315181 0.274435 0.107153
H21   H     H_    0.526149 0.303350 0.204573 0.107685
H22   H     H_    0.833508 0.506616 0.354355 0.097780
H23   H     H_    0.836616 0.158844 0.159934 0.093064
H24   H     H_    0.822335 0.064207 0.285871 0.104183
H25   H     H_    0.837049 0.054504 0.216109 0.108533
H26   H     H_    0.810692 0.176170 0.337099 0.098049
H27   H     H_    0.789142 0.219221 0.404972 0.126479
H28   H     H_    0.545859 0.167924 0.156310 0.101861
H29   H     H_    0.479773 0.272241 0.397267 0.124340
H30   H     H_    0.848492 0.554539 0.917108 0.125867
H31   H     H_    0.540112 0.812480 0.911289 0.120946
H32   H     H_    0.744481 0.506321 0.291514 0.098973
H33   H     H_    0.553378 0.561067 0.729465 0.094503
H34   H     H_    0.831919 0.510456 0.850734 0.100156
H35   H     H_    0.772775 0.662870 0.721615 0.115223
H36   H     H_    0.784728 0.668516 0.791861 0.119317
H37   H     H_    0.792867 0.484113 0.668606 0.112689
H38   H     H_    0.764038 0.481990 0.599141 0.132971
H39   H     H_    0.523485 0.764484 0.844792 0.112003
H40   H     H_    0.471554 0.758510 0.609656 0.127408
H41   H     H_    0.082514 0.831793 0.899764 0.119276
H42   H     H_    0.042466 0.567082 0.891759 0.124793
H43   H     H_    0.118747 0.546290 0.647601 0.104161
H44   H     H_    0.222072 0.511159 0.707622 0.108132
H45   H     H_    0.203131 0.516835 0.776862 0.101223
H46   H     H_    0.119218 0.816131 0.831354 0.101139
H47   H     H_    0.038243 0.840800 0.703201 0.104901
H48   H     H_    0.018018 0.846700 0.772870 0.107129
H49   H     H_    0.185006 0.793041 0.660081 0.094797
H50   H     H_    0.258437 0.755505 0.596207 0.118496
H51   H     H_    0.075804 0.553647 0.823415 0.102443
H52   H     H_    0.585004 0.812689 0.180333 0.106445
H53   H     H_    0.191424 0.508566 0.583764 0.127927
H54   H     H_    0.565734 0.024210 0.900157 0.125108
H55   H     H_    0.770494 0.147271 0.902736 0.123465
H56   H     H_    0.742466 0.228687 0.676504 0.105380
H57   H     H_    0.596046 0.337522 0.724131 0.107190
H58   H     H_    0.590202 0.318448 0.793170 0.125489
H59   H     H_    0.511751 0.087299 0.834623 0.102634
H60   H     H_    0.602616 0.050624 0.704642 0.115351
H61   H     H_    0.599762 0.029629 0.774058 0.110907
H62   H     H_    0.489467 0.179022 0.649899 0.108591
H63   H     H_    0.698331 0.810715 0.304760 0.120030
H64   H     H_    0.493098 0.221264 0.582639 0.121517
H65   H     H_    0.718898 0.207601 0.837486 0.101420
H66   H     H_    0.747255 0.270044 0.609561 0.127559
H67   H     H_    0.712165 0.820835 0.235288 0.118457
H68   H     H_    0.560018 0.801279 0.342208 0.105349
O1    O     O_R   0.324990 0.503440 0.453910 -0.520684
O2    O     O_R   0.639980 0.519500 0.542640 -0.499688
O3    O     O_R   0.500750 0.673190 0.545480 -0.521450
O4    O     O_R   0.336260 0.640450 0.538210 -0.504339
O5    O     O_3   0.499990 0.499990 0.500010 -0.234938
O6    O     O_R   0.834210 0.019400 0.034570 -0.510164
O7    O     O_R   0.002210 0.824620 0.031030 -0.485148
O8    O     O_R   0.024400 0.669340 0.039790 -0.524585
O9    O     O_R   0.830490 0.694950 0.045870 -0.501664
O10   O     O_R   0.675430 0.831160 0.051290 -0.518904
O11   O     O_R   0.698870 0.998880 0.039560 -0.503606
O12   O     O_R   0.522030 0.339050 0.458320 -0.502574
O13   O     O_R   0.811290 0.006780 0.950620 -0.517264
O14   O     O_R   0.980960 0.812920 0.953200 -0.501077
O15   O     O_R   0.001480 0.656720 0.955830 -0.523343
O16   O     O_R   0.809240 0.683250 0.968050 -0.504385
O17   O     O_R   0.652500 0.818540 0.967340 -0.518998
O18   O     O_R   0.677620 0.987170 0.961730 -0.503442
O19   O     O_3   0.833240 0.833660 0.999890 -0.235506
O20   O     O_R   0.676180 0.324490 0.458320 -0.519963
O21   O     O_R   0.643570 0.521510 0.464260 -0.502526
O22   O     O_R   0.504630 0.675350 0.460920 -0.518642
O23   O     O_R   0.339850 0.642450 0.459830 -0.502302
O24   O     O_R   0.321120 0.501280 0.538470 -0.519223
O25   O     O_R   0.518440 0.337050 0.536710 -0.500080
O26   O     O_R   0.672300 0.322330 0.542880 -0.520159
C121  C     C_R   0.120791 0.884872 0.078778 0.053458
C122  C     C_R   0.171681 0.863103 0.043577 -0.064498
C123  C     C_R   0.170074 0.941614 0.022292 -0.111124
C124  C     C_R   0.118932 0.042285 0.036118 -0.104305
C125  C     C_R   0.069784 0.064520 0.071353 -0.116365
C126  C     C_R   0.071074 0.986264 0.092710 -0.097064
H69   H     H_    0.212670 0.785320 0.032623 0.094382
H70   H     H_    0.208792 0.924311 0.995120 0.097234
H71   H     H_    0.117777 0.102982 0.019613 0.102204
H72   H     H_    0.030516 0.142481 0.082132 0.098217
H73   H     H_    0.032285 0.005142 0.119903 0.087208
O27   O     O_3   0.484696 0.774651 0.685357 -0.554229
C127  C     C_3   0.393708 0.769399 0.685242 -0.012991
H74   H     H_    0.409379 0.689332 0.688666 0.122391
H75   H     H_    0.349328 0.801451 0.658123 0.122584
C128  C     C_3   0.328506 0.832831 0.718675 -0.373893
H76   H     H_    0.305033 0.914683 0.714784 0.154777
H77   H     H_    0.258952 0.825539 0.720229 0.093505
H78   H     H_    0.372802 0.805663 0.746067 0.158323
C129  C     C_R   0.551795 0.551440 0.806845 0.024388
C130  C     C_R   0.446974 0.589552 0.799331 -0.107298
C131  C     C_R   0.391983 0.557613 0.821360 -0.113291
C132  C     C_R   0.440773 0.487184 0.850881 -0.101870
C133  C     C_R   0.545077 0.448032 0.858355 -0.121399
C134  C     C_R   0.600649 0.479185 0.836268 -0.098714
H79   H     H_    0.407509 0.644687 0.776749 0.101308
H80   H     H_    0.311417 0.587774 0.815653 0.125959
H81   H     H_    0.397826 0.462707 0.867855 0.115912
H82   H     H_    0.583133 0.392783 0.881021 0.113746
H83   H     H_    0.681940 0.446071 0.841899 0.106395
O28   O     O_3   0.760637 0.499582 0.214264 -0.554944
C135  C     C_3   0.834399 0.401433 0.227504 -0.017590
H84   H     H_    0.799919 0.374064 0.248792 0.139084
H85   H     H_    0.903256 0.400720 0.240426 0.109260
C136  C     C_3   0.868858 0.327175 0.193674 -0.370526
H86   H     H_    0.907251 0.349924 0.172364 0.144534
H87   H     H_    0.923265 0.248478 0.203748 0.084893
H88   H     H_    0.801487 0.327902 0.179680 0.173593

loop_
_geom_bond_atom_site_label_1
_geom_bond_atom_site_label_2
_ccdc_geom_bond_type
C8    C9    A    
C15   C18   A    
C59   C60   A    
C134  H83   S    
C136  H87   S    
C101  C102  A    
C22   C98   S    
C66   O3    A    
C53   H14   S    
C106  H44   S    
C41   C42   A    
C14   C18   A    
Cr3   O4    S    
C95   C96   A    
C92   C96   A    
C72   C76   A    
C120  H59   S    
C94   H40   S    
C81   C82   A    
C85   C91   A    
O28   C135  S    
C85   C86   A    
C75   H19   S    
C27   H32   S    
C133  H82   S    
C83   H39   S    
C59   C64   A    
C29   C30   A    
Cr2   O26   S    
C124  C125  A    
C90   H36   S    
C100  H41   S    
C69   H24   S    
C28   C37   S    
C66   C97   S    
Cr3   O5    S    
C36   C37   A    
C21   C59   S    
C77   C117  S    
Cr6   O17   S    
C109  C111  A    
C60   H17   S    
C54   C58   A    
C79   C84   A    
C80   C81   A    
C16   H56   S    
C77   O24   A    
C41   H9    S    
C104  H42   S    
C106  C107  A    
C110  H52   S    
Cr6   O11   S    
C126  H73   S    
C12   H62   S    
C22   O15   A    
C20   C88   S    
C19   O7    A    
C52   H13   S    
C108  C109  A    
C3    C4    A    
C101  H46   S    
C130  C131  A    
Cr1   O24   S    
C21   O11   A    
C49   C50   A    
C2    C13   A    
C118  C119  A    
Cr1   O5    S    
C125  H72   S    
Cr1   O1    S    
Cr5   O19   S    
C36   H22   S    
C132  C133  A    
C2    C110  A    
C123  C124  A    
C44   C58   S    
C16   C17   A    
C72   H26   S    
C12   C17   A    
C74   H29   S    
C107  C108  A    
C80   H30   S    
C70   C71   A    
Cr2   O5    S    
C65   H21   S    
C30   H67   S    
C133  C134  A    
C115  H43   S    
C42   C51   S    
C39   C45   A    
C94   C97   A    
C105  C111  A    
C136  H88   S    
C40   H5    S    
C26   C31   A    
C81   H34   S    
C34   C38   A    
Cr3   O22   S    
Cr4   O14   S    
C1    C78   S    
Cr1   O25   S    
C4    H65   S    
C102  C111  S    
C102  C103  A    
Cr1   O12   S    
C9    C10   A    
C89   H35   S    
C112  C113  A    
C33   O22   A    
Cr5   O9    S    
C10   H61   S    
C6    C7    A    
C113  H50   S    
Cr4   O19   S    
C33   O21   A    
C54   C56   A    
Cr5   O8    S    
C74   C75   A    
C44   O23   A    
C67   C68   A    
C88   C99   A    
C47   C48   A    
C7    C8    A    
C35   C38   A    
C95   O27   S    
C63   H28   S    
C32   H68   S    
C9    H60   S    
C52   C57   A    
C39   C40   A    
Cr5   O15   S    
C109  H48   S    
C68   C69   A    
C55   O25   A    
C64   H18   S    
C93   H38   S    
Cr6   O10   S    
C65   C71   A    
C99   C110  A    
C121  C126  A    
C19   O8    A    
C82   C91   S    
C130  H79   S    
C13   C24   A    
C6    H58   S    
C2    C31   S    
C103  H51   S    
C35   C36   A    
C32   C34   A    
C1    O20   A    
C25   O18   A    
C75   C76   A    
C62   C63   A    
Cr6   O19   S    
C46   H8    S    
C121  C122  A    
C127  H75   S    
C128  H76   S    
C66   O2    A    
C83   C84   A    
C5    H55   S    
C115  C116  A    
C73   C78   A    
C108  H47   S    
C112  H49   S    
C67   H20   S    
C125  C126  A    
C26   C27   A    
C22   O14   A    
C94   C95   A    
C50   C51   A    
C32   C37   A    
C119  C120  A    
C1    O12   A    
C24   C88   A    
C35   H4    S    
C20   O10   A    
C56   H6    S    
C19   C39   S    
C18   C55   S    
C135  C136  S    
C113  C117  A    
Cr5   O16   S    
C40   C41   A    
C54   H16   S    
C49   H10   S    
C12   C14   A    
C132  H81   S    
C98   C100  A    
C10   C11   A    
C6    C11   A    
Cr4   O13   S    
C129  C134  A    
C29   H63   S    
C79   C80   A    
C43   H15   S    
C42   C43   A    
C21   O6    A    
C136  H86   S    
C93   C97   A    
C112  C116  A    
C52   C53   A    
C92   H37   S    
C84   H31   S    
C135  H85   S    
C86   H33   S    
C3    C120  A    
C56   C57   A    
C46   C47   A    
C28   C29   A    
C44   O1    A    
C105  H45   S    
C131  C132  A    
C86   C87   A    
C5    C118  A    
Cr3   O3    S    
C70   H25   S    
C33   C38   S    
C20   O9    A    
Cr2   O2    S    
C72   C73   A    
C99   H1    S    
C53   C58   A    
C50   H12   S    
C87   C96   S    
C114  C115  A    
C55   O26   A    
C23   O16   A    
C24   H11   S    
C68   C76   S    
C105  C106  A    
Cr4   O6    S    
C131  H80   S    
C65   C67   A    
C128  H78   S    
C7    H57   S    
Cr4   O7    S    
C85   C129  S    
C45   C121  S    
C77   O4    A    
C87   C89   A    
C43   C45   A    
Cr6   O18   S    
C124  H71   S    
C8    C17   S    
C129  C130  A    
C123  H70   S    
C90   C91   A    
C30   C31   A    
C23   O17   A    
C122  H69   S    
C114  H53   S    
C48   C49   A    
C46   C51   A    
C92   C93   A    
C128  H77   S    
C62   C71   S    
Cr3   O23   S    
C61   C62   A    
C127  C128  S    
C69   C70   A    
C107  C116  S    
C114  C117  A    
C3    C11   S    
Cr2   O21   S    
C15   H66   S    
C63   C64   A    
C14   H64   S    
Cr2   O20   S    
C4    C5    A    
C48   C57   S    
C34   H2    S    
C82   C83   A    
C74   C78   A    
C119  H54   S    
C73   H27   S    
C103  C104  A    
C13   H3    S    
C60   C61   A    
C100  C101  A    
C25   C118  S    
C23   C79   S    
C89   C90   A    
C25   O13   A    
C61   H23   S    
C122  C123  A    
C98   C104  A    
C26   O28   S    
C47   H7    S    
C15   C16   A    
C127  H74   S    
O27   C127  S    
C135  H84   S    
C27   C28   A    
