data_mof_unit_38943.cif
_audit_creation_date              2012-12-10T17:22:28-0500
_audit_creation_method            fapswitch 2.2
_symmetry_space_group_name_H-M    P1
_symmetry_Int_Tables_number       1
_space_group_crystal_system       triclinic
_cell_length_a                    18.832015
_cell_length_b                    18.654981
_cell_length_c                    18.594969
_cell_angle_alpha                 108.318393
_cell_angle_beta                  109.002877
_cell_angle_gamma                 108.88498
_cell_volume                      5161.1012541

loop_
_atom_site_label
_atom_site_type_symbol
_atom_type_description
_atom_site_fract_x
_atom_site_fract_y
_atom_site_fract_z
_atom_type_partial_charge
C1    C     C_R   0.378702 0.380422 0.498729 0.892452
C2    C     C_R   0.322580 0.308658 0.573698 -0.150104
C3    C     C_R   0.181841 0.186557 0.495223 -0.134981
C4    C     C_R   0.619967 0.499202 0.620415 0.914320
C5    C     C_R   0.175110 0.182433 0.414418 -0.038132
C6    C     C_R   0.236589 0.252792 0.417790 -0.026485
C7    C     C_R   0.311680 0.313029 0.496882 -0.089880
C8    C     C_R   0.109477 0.113587 0.330127 0.088832
C9    C     C_R   0.091905 0.127505 0.257498 0.369000
C10   C     C_R   0.151279 0.200828 0.263086 0.363435
C11   C     C_R   0.223668 0.259878 0.341377 -0.254156
C12   C     C_3   0.813154 0.504099 0.807637 0.007884
C13   C     C_R   0.227122 0.501480 0.397031 0.462343
C14   C     C_R   0.165971 0.520928 0.411438 -0.113939
C15   C     C_R   0.108886 0.529978 0.351069 -0.248076
C16   C     C_R   0.618875 0.619147 0.498450 1.004046
C17   C     C_R   0.111799 0.518681 0.275132 -0.174756
C18   C     C_R   0.177091 0.505195 0.260461 0.060302
C19   C     C_R   0.239557 0.501454 0.324259 -0.063720
C20   C     C_R   0.180465 0.495103 0.183269 -0.128937
C21   C     C_R   0.246666 0.485194 0.169171 0.012407
C22   C     C_R   0.317428 0.496291 0.237343 0.040440
C23   C     C_3   0.851758 0.577856 0.782665 0.393508
C24   C     C_R   0.311455 0.499978 0.313388 -0.217988
C25   C     C_R   0.243871 0.465776 0.087772 -0.117378
C26   C     C_R   0.311829 0.463636 0.075426 -0.197087
C27   C     C_R   0.385804 0.484739 0.144275 -0.250111
C28   C     C_R   0.379107 0.500276 0.379607 1.005532
C29   C     C_R   0.391270 0.503793 0.225948 0.493223
C30   C     C_R   0.588663 0.747979 0.454962 0.491112
C31   C     C_R   0.581312 0.819220 0.451458 -0.295909
C32   C     C_R   0.653073 0.894918 0.483278 -0.195440
C33   C     C_R   0.733570 0.900049 0.514198 0.227289
C34   C     C_3   0.747914 0.517090 0.838785 0.191451
C35   C     C_R   0.741967 0.824045 0.503125 -0.003432
C36   C     C_R   0.670650 0.750881 0.484064 -0.012612
C37   C     C_R   0.817522 0.817947 0.509876 -0.140094
C38   C     C_R   0.828283 0.747323 0.516104 0.075761
C39   C     C_R   0.762250 0.682481 0.513823 0.050238
C40   C     C_3   0.690723 0.414209 0.655826 -0.467904
C41   C     C_R   0.683930 0.683923 0.496162 -0.173584
C42   C     C_R   0.902882 0.738685 0.524582 -0.163600
C43   C     C_R   0.913622 0.671760 0.536210 0.259595
C44   C     C_R   0.850035 0.611382 0.539398 -0.139702
C45   C     C_R   0.402531 0.356593 0.649878 0.447423
C46   C     C_R   0.775563 0.616298 0.528068 -0.235325
C47   C     C_R   0.999598 0.380641 0.879339 0.954117
C48   C     C_R   0.878099 0.501033 0.875986 0.914008
C49   C     C_R   0.996419 0.619818 0.117067 0.962888
C50   C     C_R   0.116631 0.498985 0.117910 0.913049
C51   C     C_R   0.001578 0.880550 0.381508 0.871932
C52   C     C_3   0.763742 0.415751 0.725492 -0.494641
C53   C     C_R   0.118709 0.119691 0.498189 1.006731
C54   C     C_R   0.000053 0.120874 0.619227 1.007911
C55   C     C_R   0.881035 0.880656 0.502286 0.926366
C56   C     C_R   0.406025 0.371845 0.729952 0.129980
C57   C     C_R   0.969127 0.379867 0.719198 -0.173438
C58   C     C_R   0.967749 0.389974 0.648111 -0.198072
C59   C     C_R   0.989135 0.341403 0.594476 -0.246830
C60   C     C_R   0.006986 0.277794 0.608040 0.491230
C61   C     C_R   0.999714 0.260681 0.676149 0.039869
C62   C     C_R   0.990092 0.318726 0.737097 -0.010179
C63   C     C_R   0.001343 0.188364 0.685953 -0.163081
C64   C     C_3   0.775527 0.573084 0.710962 -0.445570
C65   C     C_R   0.005029 0.180552 0.760926 -0.104884
C66   C     C_R   0.013956 0.248746 0.829711 0.028761
C67   C     C_R   0.330888 0.334364 0.733152 -0.356849
C68   C     C_R   0.002208 0.315378 0.814966 -0.158151
C69   C     C_R   0.000475 0.106073 0.769230 -0.180272
C70   C     C_R   0.012040 0.101709 0.845015 0.470053
C71   C     C_R   0.030638 0.173023 0.916082 -0.351699
C72   C     C_R   0.032991 0.246877 0.910212 0.425044
C73   C     C_R   0.160853 0.760760 0.268800 0.464014
C74   C     C_R   0.235483 0.838328 0.325460 -0.115134
C75   C     C_R   0.233611 0.907443 0.379059 -0.246422
C76   C     C_3   0.677730 0.519320 0.770151 0.200442
C77   C     C_R   0.157412 0.898691 0.378199 -0.178937
C78   C     C_R   0.253590 0.275556 0.656989 0.465038
C79   C     C_R   0.079100 0.822131 0.318020 0.051672
C80   C     C_R   0.079104 0.754317 0.257167 -0.068350
C81   C     C_R   0.001435 0.811591 0.318388 -0.127711
C82   C     C_R   0.923176 0.736759 0.256594 -0.124714
C83   C     C_R   0.919763 0.680255 0.183373 -0.081491
C84   C     C_R   0.998380 0.685318 0.186713 -0.163143
C85   C     C_R   0.846880 0.718038 0.264126 0.436819
C86   C     C_R   0.767906 0.659410 0.192791 -0.319515
C87   C     C_R   0.762305 0.612541 0.114633 0.341349
C88   C     C_3   0.689657 0.501672 0.688309 -0.025514
C89   C     C_R   0.251369 0.256297 0.575236 -0.014403
C90   C     C_R   0.837500 0.620456 0.110337 0.401201
C91   C     C_3   0.903040 0.670172 0.860162 -0.874396
C92   C     C_3   0.489793 0.427192 0.811704 -0.701233
C93   C     C_3   0.065169 0.021375 0.309840 -0.697954
C94   C     C_3   0.805825 0.989595 0.569825 -0.873766
C95   C     C_3   0.993493 0.665807 0.545334 -0.947655
C96   C     C_3   0.912746 0.566240 0.745187 -0.864366
H1    H     H_    0.699218 0.399988 0.597306 0.215055
H2    H     H_    0.061922 0.521806 0.229231 0.148137
H3    H     H_    0.189115 0.451814 0.032071 0.191309
H4    H     H_    0.308256 0.448811 0.012773 0.159852
H5    H     H_    0.857249 0.559428 0.549377 0.131220
H6    H     H_    0.737616 0.361902 0.739010 0.198301
H7    H     H_    0.519810 0.817710 0.428649 0.149891
H8    H     H_    0.646149 0.951454 0.487914 0.163322
H9    H     H_    0.954649 0.781710 0.521829 0.169249
H10   H     H_    0.728753 0.566546 0.530134 0.151586
H11   H     H_    0.043408 0.171144 0.976464 0.146769
H12   H     H_    0.782370 0.578985 0.898243 0.204736
H13   H     H_    0.953353 0.420598 0.759702 0.143588
H14   H     H_    0.953091 0.437883 0.636150 0.152411
H15   H     H_    0.806536 0.401830 0.700835 0.181925
H16   H     H_    0.992422 0.353872 0.542245 0.135424
H17   H     H_    0.987608 0.048845 0.717699 0.182346
H18   H     H_    0.296299 0.843339 0.331483 0.156976
H19   H     H_    0.292243 0.966738 0.424797 0.161054
H20   H     H_    0.162170 0.953419 0.425959 0.158809
H21   H     H_    0.781279 0.558755 0.651246 0.169815
H22   H     H_    0.710674 0.649014 0.199103 0.178663
H23   H     H_    0.774912 0.635580 0.728860 0.173284
H24   H     H_    0.616394 0.467207 0.751558 0.220224
H25   H     H_    0.963264 0.681284 0.909657 0.273305
H26   H     H_    0.921569 0.718418 0.837625 0.246998
H27   H     H_    0.866427 0.686219 0.892489 0.204778
H28   H     H_    0.109476 0.158530 0.139695 0.337266
H29   H     H_    0.470057 0.338229 0.594658 0.310072
H30   H     H_    0.481330 0.434740 0.869569 0.214759
H31   H     H_    0.532133 0.397530 0.810735 0.250497
H32   H     H_    0.520832 0.491944 0.817487 0.277804
H33   H     H_    0.192493 0.262951 0.723071 0.328145
H34   H     H_    0.332831 0.348644 0.795143 0.157209
H35   H     H_    0.996670 0.000353 0.290621 0.274742
H36   H     H_    0.069810 0.980046 0.255464 0.243339
H37   H     H_    0.096246 0.010992 0.363637 0.161480
H38   H     H_    0.998676 0.094829 0.148699 0.336050
H39   H     H_    0.267122 0.424750 0.415005 0.297532
H40   H     H_    0.513123 0.537096 0.275337 0.328131
H41   H     H_    0.465365 0.684526 0.410131 0.327826
H42   H     H_    0.809682 0.022573 0.529976 0.257660
H43   H     H_    0.793995 0.025591 0.620865 0.231837
H44   H     H_    0.866186 0.990761 0.603500 0.204634
H45   H     H_    0.628799 0.361342 0.637861 0.184162
H46   H     H_    0.992745 0.609453 0.554255 0.239470
H47   H     H_    0.999736 0.659703 0.486604 0.241861
H48   H     H_    0.049852 0.724668 0.602033 0.251267
H49   H     H_    0.039325 0.257759 0.516539 0.327662
H50   H     H_    0.016781 0.034384 0.906143 0.336736
H51   H     H_    0.068693 0.305822 0.033144 0.345168
H52   H     H_    0.638143 0.559089 0.055271 0.330349
H53   H     H_    0.130479 0.643441 0.232567 0.294753
H54   H     H_    0.898944 0.756369 0.384842 0.306112
H55   H     H_    0.785076 0.513945 0.010522 0.412842
H56   H     H_    0.269728 0.311260 0.340100 0.180314
H57   H     H_    0.878924 0.506657 0.683300 0.207245
H58   H     H_    0.938142 0.619606 0.730686 0.240759
H59   H     H_    0.968818 0.566549 0.789452 0.257608
H60   H     H_    0.727518 0.645174 0.824977 0.334746
H61   H     H_    0.670010 0.397980 0.807032 0.328990
H62   H     H_    0.439977 0.487692 0.134213 0.136186
H63   H     H_    0.159314 0.523647 0.467823 0.160120
H64   H     H_    0.059571 0.541987 0.361372 0.160226
O1    O     O_R   0.408690 0.356690 0.448570 -0.653508
O2    O     O_R   0.052500 0.908420 0.460860 -0.652407
O3    O     O_R   0.039610 0.091640 0.448030 -0.603843
O4    O     O_R   0.408090 0.460090 0.551440 -0.551200
O5    O     O_R   0.143600 0.091610 0.551990 -0.608617
O6    O     O_R   0.947500 0.091600 0.539170 -0.604803
O7    O     O_R   0.051490 0.091570 0.643140 -0.615584
O8    O     O_R   0.856400 0.908420 0.448030 -0.571111
O9    O     O_R   0.960390 0.908390 0.552000 -0.661094
O10   O     O_R   0.592400 0.448300 0.540670 -0.662748
O11   O     O_R   0.591800 0.551700 0.643540 -0.555467
O12   O     O_R   0.049540 0.460090 0.906170 -0.646380
O13   O     O_R   0.591910 0.539910 0.448560 -0.616767
O14   O     O_R   0.591310 0.643310 0.551430 -0.605551
O15   O     O_R   0.408200 0.448300 0.356460 -0.589026
O16   O     O_R   0.407600 0.551700 0.459330 -0.571693
O17   O     O_R   0.946100 0.356720 0.906240 -0.587514
O18   O     O_3   0.144742 0.214324 0.192820 -0.776829
O19   O     O_3   0.477922 0.383422 0.646753 -0.815874
O20   O     O_3   0.179591 0.241496 0.661900 -0.721236
O21   O     O_3   0.018334 0.066098 0.181406 -0.773466
O22   O     O_3   0.266682 0.475509 0.451622 -0.750770
O23   O     O_R   0.853530 0.448360 0.905250 -0.569612
O24   O     O_3   0.469613 0.534744 0.294798 -0.723533
O25   O     O_3   0.515854 0.675114 0.428085 -0.735629
O26   O     O_3   0.036687 0.236778 0.558934 -0.725105
O27   O     O_3   0.007037 0.027330 0.848048 -0.756012
O28   O     O_3   0.057060 0.318084 0.983551 -0.788553
O29   O     O_3   0.684258 0.556731 0.041515 -0.731125
O30   O     O_3   0.172570 0.692012 0.233463 -0.751130
O31   O     O_3   0.847177 0.750344 0.341380 -0.753646
O32   O     O_3   0.829682 0.573088 0.032686 -0.738457
O33   O     O_3   0.672370 0.595395 0.803844 -0.727804
O34   O     O_R   0.956970 0.551730 0.905180 -0.660593
O35   O     O_3   0.710645 0.453374 0.860067 -0.738330
O36   O     O_R   0.945170 0.540000 0.088470 -0.617238
O37   O     O_R   0.048600 0.643370 0.088400 -0.586047
O38   O     O_R   0.037740 0.448360 0.089460 -0.616018
O39   O     O_R   0.141170 0.551730 0.089390 -0.586980
O40   O     O_R   0.948510 0.908450 0.356890 -0.595998
Zn1   Zn    Zn3+2 0.500400 0.430960 0.431310 0.977243
Zn2   Zn    Zn3+2 0.499600 0.569040 0.568690 1.072920
Zn3   Zn    Zn3+2 0.928290 0.431030 0.997370 0.998733
Zn4   Zn    Zn3+2 0.066410 0.569060 0.997270 0.984877
Zn5   Zn    Zn3+2 0.930570 0.000030 0.430590 0.998735
Zn6   Zn    Zn3+2 0.069430 0.999990 0.569430 0.968842

loop_
_geom_bond_atom_site_label_1
_geom_bond_atom_site_label_2
_ccdc_geom_bond_type
C34   O35   S    
C16   O13   A    
C66   C68   A    
C63   C65   A    
C95   H47   S    
O40   Zn5   S    
C29   O24   S    
C71   H11   S    
C27   C29   A    
C94   H44   S    
C73   C74   A    
C2    C7    A    
C54   O7    A    
C12   C48   S    
C33   C94   S    
C47   O12   A    
C50   O38   A    
C57   C62   A    
C39   C41   A    
C90   O32   S    
C85   C86   A    
C27   H62   S    
C12   C23   S    
C52   H6    S    
H53   O30   S    
C76   H24   S    
C64   H23   S    
C4    O10   A    
O37   Zn4   S    
C82   C85   A    
C78   O20   S    
C49   C84   S    
O1    Zn1   S    
C22   C29   A    
C38   C42   A    
C93   H37   S    
C1    C7    S    
C5    C6    A    
C31   C32   A    
C96   H59   S    
C54   C63   S    
C74   H18   S    
O14   Zn2   S    
C23   C96   S    
C51   O2    A    
O13   Zn1   S    
C18   C19   A    
O12   Zn4   S    
C72   O28   S    
O10   Zn1   S    
C20   C50   S    
C59   H16   S    
H54   O31   S    
C25   H3    S    
C96   H58   S    
C35   C36   A    
C45   C56   A    
C8    C9    A    
C91   H26   S    
H29   O19   S    
C43   C95   S    
C32   H8    S    
C70   C71   A    
O6    Zn5   S    
C77   H20   S    
C9    C10   A    
C51   C81   S    
H28   O18   S    
C73   O30   S    
C80   C84   A    
C87   O29   S    
C48   O34   A    
C1    O1    A    
C59   C60   A    
C78   C89   A    
C91   H27   S    
C13   C14   A    
O2    Zn6   S    
C94   H43   S    
C36   C41   A    
C61   C62   A    
C67   C78   A    
C55   O8    A    
C54   O6    A    
C18   C20   A    
C92   H32   S    
C12   C52   S    
C44   C46   A    
C81   C82   A    
H41   O25   S    
C77   C79   A    
C2    C45   A    
O34   Zn4   S    
H33   O20   S    
C66   C72   A    
C74   C75   A    
C13   C19   A    
C10   O18   S    
O7    Zn6   S    
O16   Zn2   S    
H50   O27   S    
O15   Zn1   S    
C21   C25   A    
C10   C11   A    
C6    C11   A    
C1    O4    A    
C86   C87   A    
C53   O3    A    
C49   O37   A    
C52   H15   S    
C25   C26   A    
C40   C52   S    
O3    Zn5   S    
C64   H21   S    
C57   H13   S    
C60   C61   A    
C31   H7    S    
C2    C89   A    
C43   C44   A    
C30   O25   S    
C37   C38   A    
C5    C8    A    
C83   C84   A    
C14   C15   A    
C30   C31   A    
C44   H5    S    
C69   H17   S    
H40   O24   S    
O17   Zn3   S    
C17   C18   A    
C26   C27   A    
C86   H22   S    
O36   Zn3   S    
C75   C77   A    
C6    C7    A    
C4    O11   A    
O4    Zn2   S    
C70   O27   S    
C39   C46   A    
C53   O5    A    
C23   C64   S    
C82   C83   A    
O39   Zn4   S    
C94   H42   S    
C95   H48   S    
C22   C24   A    
C67   H34   S    
C75   H19   S    
C42   C43   A    
H38   O21   S    
C12   C34   S    
C93   H36   S    
C92   H31   S    
C47   C68   S    
O9    Zn6   S    
C15   H64   S    
C79   C81   A    
C17   H2    S    
C16   O14   A    
H52   O29   S    
C15   C17   A    
C83   C90   A    
C76   C88   S    
H55   O32   S    
C60   O26   S    
C51   O40   A    
C35   C37   A    
C58   H14   S    
C61   C63   A    
C28   O16   A    
C8    C93   S    
C24   C28   S    
C3    C5    A    
C92   H30   S    
C48   O23   A    
C50   O39   A    
C28   O15   A    
C96   H57   S    
C4    C88   S    
C49   O36   A    
C62   C68   A    
H51   O28   S    
C85   O31   S    
C56   C67   A    
H61   O35   S    
C14   H63   S    
C21   C22   A    
C30   C36   A    
H49   O26   S    
C3    C89   A    
O23   Zn3   S    
C32   C33   A    
C40   C88   S    
O11   Zn2   S    
H60   O33   S    
C58   C59   A    
C34   H12   S    
C71   C72   A    
C40   H1    S    
C93   H35   S    
C3    C53   S    
C57   C58   A    
C38   C39   A    
C65   C69   A    
C46   H10   S    
C33   C35   A    
C73   C80   A    
C64   C88   S    
C19   C24   A    
C23   C91   S    
C65   C66   A    
C69   C70   A    
C42   H9    S    
C9    O21   S    
C76   O33   S    
C45   O19   S    
C79   C80   A    
C37   C55   S    
C11   H56   S    
C56   C92   S    
O5    Zn6   S    
C20   C21   A    
C95   H46   S    
C47   O17   A    
C13   O22   S    
C91   H25   S    
C87   C90   A    
C26   H4    S    
O38   Zn3   S    
O8    Zn5   S    
H39   O22   S    
C40   H45   S    
C16   C41   S    
C55   O9    A    
C34   C76   S    
