data_mof_unit_14243.cif
_audit_creation_date              2013-03-05T16:47:55-0500
_audit_creation_method            fapswitch 2.2
_symmetry_space_group_name_H-M    P1
_symmetry_Int_Tables_number       1
_space_group_crystal_system       triclinic
_cell_length_a                    8.101698
_cell_length_b                    8.931337
_cell_length_c                    16.942412
_cell_angle_alpha                 90.28086
_cell_angle_beta                  86.542196
_cell_angle_gamma                 90.097864
_cell_volume                      1223.68814825

loop_
_atom_site_label
_atom_site_type_symbol
_atom_site_description
_atom_site_fract_x
_atom_site_fract_y
_atom_site_fract_z
_atom_type_partial_charge
O1    O     O_R   0.363150 0.714660 0.500000 -0.622095
O2    O     O_R   0.636850 0.285340 0.500000 -0.623297
O3    O     O_R   0.636850 0.714660 0.500000 -0.613525
O4    O     O_R   0.363150 0.285340 0.500000 -0.601186
H1    H     H_    0.468368 0.301234 0.901683 0.235667
H2    H     H_    0.672025 0.785437 0.127629 0.225201
C1    C     C_R   0.500094 0.782027 0.500085 0.963712
C2    C     C_R   0.499909 0.217963 0.500058 0.961740
O5    O     O_R   0.346950 0.500000 0.615800 -0.575050
O6    O     O_R   0.653050 0.500000 0.384200 -0.584106
O7    O     O_R   0.620700 0.500000 0.615800 -0.643033
O8    O     O_R   0.379300 0.500000 0.384200 -0.621909
C3    C     C_R   0.479809 0.500760 0.652745 1.005304
C4    C     C_R   0.520504 0.502851 0.347028 0.982023
Zn1   Zn    Zn3+2 0.317220 0.500000 0.500010 1.052188
Zn2   Zn    Zn3+2 0.682780 0.500000 0.499990 1.039871
N1    N     N_1   0.926360 0.500000 0.499990 -0.019445
N2    N     N_1   0.073640 0.500000 0.500010 -0.021820
C5    C     C_R   0.477698 0.517057 0.737391 -0.288031
C6    C     C_R   0.525867 0.530236 0.262770 -0.308620
C7    C     C_R   0.554031 0.646649 0.766470 0.391247
C8    C     C_R   0.414692 0.451436 0.216860 0.382789
C9    C     C_R   0.596043 0.651956 0.845436 0.237603
C10   C     C_R   0.405160 0.487843 0.136936 0.231426
C11   C     C_R   0.566768 0.524749 0.892886 -0.092031
C12   C     C_R   0.497977 0.610079 0.106105 -0.112872
C13   C     C_R   0.493696 0.396250 0.863185 -0.160392
C14   C     C_R   0.599447 0.693472 0.152999 -0.178027
C15   C     C_R   0.445174 0.391560 0.785856 0.217412
C16   C     C_R   0.617329 0.652838 0.230940 0.234131
C17   C     C_2   0.589221 0.528230 0.977025 -0.040112
C18   C     C_2   0.514052 0.633842 0.021784 -0.023369
C19   C     C_1   0.500164 0.934796 0.500153 -0.116498
C20   C     C_1   0.499895 0.065172 0.500147 -0.119609
H3    H     H_    0.452606 0.728971 0.996724 0.204059
H4    H     H_    0.640507 0.429836 0.004216 0.176504
N3    N     N_R   0.306264 0.398363 0.086884 0.200646
O9    O     O_R   0.307284 0.253026 0.091937 -0.314983
O10   O     O_R   0.213056 0.461758 0.036817 -0.364543
N4    N     N_R   0.670685 0.784145 0.876579 0.196676
O11   O     O_R   0.800788 0.773649 0.917663 -0.353993
O12   O     O_R   0.609830 0.915705 0.863353 -0.294611
O13   O     O_3   0.584478 0.767801 0.716568 -0.577982
C21   C     C_3   0.756028 0.780165 0.696470 -0.120364
H5    H     H_    0.819985 0.669967 0.690081 0.139689
H6    H     H_    0.817161 0.850040 0.740473 0.216675
H7    H     H_    0.772904 0.837910 0.638730 0.177182
O14   O     O_3   0.322602 0.334024 0.250047 -0.574949
C22   C     C_3   0.155366 0.378266 0.261871 -0.079092
H8    H     H_    0.091289 0.372541 0.205867 0.195990
H9    H     H_    0.141473 0.492538 0.288073 0.166237
H10   H     H_    0.091642 0.299230 0.303876 0.183983
N5    N     N_R   0.723581 0.740726 0.277604 0.220155
O15   O     O_R   0.704608 0.885259 0.281338 -0.366813
O16   O     O_R   0.859228 0.682464 0.300972 -0.386566
N6    N     N_R   0.369378 0.257638 0.756888 0.216625
O17   O     O_R   0.253125 0.265762 0.707388 -0.365707
O18   O     O_R   0.401135 0.128273 0.787462 -0.290107

loop_
_geom_bond_atom_site_label_1
_geom_bond_atom_site_label_2
_geom_bond_distance
_ccdc_geom_bond_type
C11   C17   1.448084 S    
Zn1   N2    1.973412 S    
C8    O14   1.387431 S    
O13   C21   1.415125 S    
O8    Zn1   1.995936 S    
C6    C16   1.411998 A    
C12   C18   1.443378 S    
N3    O9    1.301370 A    
O1    Zn1   1.952353 S    
C15   N6    1.441085 S    
C13   C15   1.390792 A    
O2    Zn2   1.952354 S    
O7    Zn2   1.995936 S    
C12   C14   1.390213 A    
C17   C18   1.332259 D    
C21   H7    1.109166 S    
O8    C4    1.272456 A    
O4    C2    1.261806 A    
C22   H10   1.109350 S    
O4    Zn1   1.953601 S    
N4    O12   1.300702 A    
N1    N2    1.193239 T    
O5    Zn1   1.990860 S    
N3    O10   1.301461 A    
C2    C20   1.364636 S    
N5    O15   1.301031 A    
N6    O17   1.300679 A    
O7    C3    1.268292 A    
H1    C13   1.084605 S    
C14   C16   1.387216 A    
N4    O11   1.301469 A    
C5    C7    1.411928 A    
C6    C8    1.410179 A    
C10   N3    1.439753 S    
O3    C1    1.261608 A    
N5    O16   1.300654 A    
C7    C9    1.400806 A    
C16   N5    1.433852 S    
C8    C10   1.400811 A    
C11   C13   1.395996 A    
C3    C5    1.439846 S    
C9    N4    1.438020 S    
C5    C15   1.407791 A    
C18   H3    1.086470 S    
C4    C6    1.447572 S    
C9    C11   1.406547 A    
C19   C20   1.164441 T    
C21   H5    1.114813 S    
C22   H8    1.109631 S    
O6    C4    1.277596 A    
O2    C2    1.261194 A    
C1    C19   1.364425 S    
O5    C3    1.277361 A    
C17   H4    1.088787 S    
O14   C22   1.414327 S    
O6    Zn2   1.990860 S    
C21   H6    1.108821 S    
O1    C1    1.261295 A    
C7    O13   1.389020 S    
H2    C14   1.084655 S    
O3    Zn2   1.953600 S    
C10   C12   1.409123 A    
N6    O18   1.300936 A    
Zn2   N1    1.973412 S    
C22   H9    1.114135 S    
