data_mof_unit_38763.cif
_audit_creation_date              2012-12-11T16:04:59-0500
_audit_creation_method            fapswitch 2.2
_symmetry_space_group_name_H-M    P1
_symmetry_Int_Tables_number       1
_space_group_crystal_system       triclinic
_cell_length_a                    10.658887
_cell_length_b                    10.636142
_cell_length_c                    16.910085
_cell_angle_alpha                 98.460434
_cell_angle_beta                  98.668757
_cell_angle_gamma                 61.447315
_cell_volume                      1658.4547239

loop_
_atom_site_label
_atom_site_type_symbol
_atom_type_description
_atom_site_fract_x
_atom_site_fract_y
_atom_site_fract_z
_atom_type_partial_charge
C1    C     C_R   0.354754 0.774984 0.398317 0.558079
C2    C     C_3   0.741233 0.322648 0.248365 -0.139108
C3    C     C_3   0.828700 0.345147 0.324510 0.042502
C4    C     C_3   0.966135 0.217534 0.298650 -0.167846
C5    C     C_3   0.994438 0.322186 0.257748 -0.156551
C6    C     C_3   0.855293 0.450345 0.285069 -0.100487
C7    C     C_3   0.769805 0.426119 0.207679 -0.124862
C8    C     C_3   0.908612 0.298534 0.180752 0.064747
C9    C     C_3   0.475346 0.784376 0.222296 -0.127049
C10   C     C_3   0.427586 0.686549 0.254964 -0.124947
C11   C     C_3   0.348063 0.809786 0.317827 0.043070
C12   C     C_R   0.371555 0.347703 0.358399 0.549160
C13   C     C_3   0.397369 0.905700 0.287233 -0.130283
C14   C     C_3   0.258771 0.961137 0.230185 -0.099073
C15   C     C_3   0.210305 0.864208 0.261800 -0.092388
C16   C     C_3   0.288301 0.742198 0.198033 -0.103709
C17   C     C_3   0.335988 0.838736 0.166598 0.056140
C18   C     C_3   0.482869 0.270422 0.791492 -0.085735
C19   C     C_3   0.440939 0.416078 0.759836 -0.210794
C20   C     C_3   0.379138 0.367101 0.680543 0.037149
C21   C     C_3   0.419688 0.224350 0.712203 0.425326
C22   C     C_3   0.271456 0.289470 0.742777 -0.080651
C23   C     C_R   0.775273 0.378129 0.401679 0.552909
C24   C     C_3   0.229917 0.434906 0.711425 -0.147030
C25   C     C_3   0.291255 0.482997 0.792382 -0.151470
C26   C     C_3   0.333773 0.337428 0.822207 0.001589
C27   C     C_1   0.817519 0.341508 0.709561 -0.035817
C28   C     C_1   0.843632 0.315136 0.778195 -0.039163
C29   C     C_1   0.356804 0.767315 0.714354 -0.017171
C30   C     C_1   0.325523 0.813278 0.781897 -0.029302
C31   C     C_R   0.955599 0.284800 0.102550 0.552755
C32   C     C_R   0.320090 0.300557 0.119778 0.531844
C33   C     C_R   0.298770 0.884198 0.086044 0.526007
C34   C     C_R   0.378918 0.717348 0.631820 0.535512
C35   C     C_R   0.884341 0.299828 0.861028 0.548778
C36   C     C_R   0.311023 0.297418 0.894817 0.546327
C37   C     C_R   0.282024 0.880926 0.859642 0.537538
C38   C     C_R   0.408953 0.377583 0.601328 0.548992
C39   C     C_R   0.774457 0.379196 0.629523 0.532987
C40   C     C_1   0.346481 0.338726 0.274516 -0.067822
C41   C     C_1   0.334459 0.328662 0.203261 -0.061856
C42   C     C_3   0.880023 0.195091 0.220760 0.029123
Cr1   Cr    Cr6+3 0.608340 0.611040 0.520430 1.065938
Cr2   Cr    Cr6+3 0.287650 0.601120 0.489350 1.026759
Cr3   Cr    Cr6+3 0.604040 0.287870 0.490280 1.044325
Cr4   Cr    Cr6+3 0.054020 0.052700 0.970850 1.083901
Cr5   Cr    Cr6+3 0.059230 0.375120 0.993390 1.034933
Cr6   Cr    Cr6+3 0.374950 0.061200 0.992340 1.049399
H1    H     H_    0.637206 0.321469 0.246441 0.112024
H2    H     H_    0.195852 0.072775 0.214218 0.108611
H3    H     H_    0.105177 0.893716 0.282368 0.120137
H4    H     H_    0.245803 0.673972 0.160110 0.134144
H5    H     H_    0.511094 0.467931 0.765014 0.102790
H6    H     H_    0.586453 0.202894 0.825238 0.146465
H7    H     H_    0.202047 0.236511 0.736945 0.126516
H8    H     H_    0.126673 0.501997 0.677287 0.154884
H9    H     H_    0.238292 0.588549 0.827546 0.148675
H10   H     H_    0.043735 0.137054 0.339953 0.112701
H11   H     H_    0.098158 0.323296 0.260556 0.109876
H12   H     H_    0.844780 0.555843 0.312854 0.138651
H13   H     H_    0.690559 0.507174 0.167257 0.126845
H14   H     H_    0.494634 0.573857 0.269404 0.112077
H15   H     H_    0.582786 0.753505 0.204190 0.119761
H16   H     H_    0.439047 0.974190 0.325593 0.137677
O1    O     O_R   0.751220 0.499230 0.435170 -0.517998
O2    O     O_R   0.297880 0.469080 0.560050 -0.516305
O3    O     O_R   0.489720 0.254590 0.564810 -0.434999
O4    O     O_R   0.725220 0.304230 0.585080 -0.510222
O5    O     O_3   0.500010 0.500010 0.500020 -0.314123
O6    O     O_R   0.171830 0.913880 0.057510 -0.475902
O7    O     O_R   0.940690 0.186050 0.054730 -0.443266
O8    O     O_R   0.920470 0.405720 0.075010 -0.519516
O9    O     O_R   0.196690 0.370460 0.084120 -0.516837
O10   O     O_R   0.412990 0.180750 0.091610 -0.498877
O11   O     O_R   0.366620 0.943130 0.065760 -0.508933
O12   O     O_R   0.477220 0.727600 0.436870 -0.486285
O13   O     O_R   0.160510 0.906330 0.879210 -0.511502
O14   O     O_R   0.930190 0.179050 0.889450 -0.487831
O15   O     O_R   0.909140 0.398170 0.896710 -0.502063
O16   O     O_R   0.186190 0.363460 0.918830 -0.497442
O17   O     O_R   0.401670 0.173200 0.913310 -0.501795
O18   O     O_R   0.356120 0.936130 0.900470 -0.485360
O19   O     O_3   0.162740 0.163010 0.985530 -0.289138
O20   O     O_R   0.258650 0.745120 0.411470 -0.517664
O21   O     O_R   0.297070 0.467240 0.395960 -0.491497
O22   O     O_R   0.488830 0.252610 0.387790 -0.512598
O23   O     O_R   0.724400 0.302390 0.420980 -0.507772
O24   O     O_R   0.752100 0.501210 0.612190 -0.505665
O25   O     O_R   0.478040 0.729440 0.600970 -0.447839
O26   O     O_R   0.259530 0.747110 0.588490 -0.501567
F1    F     F_    0.485226 0.089992 0.671073 -0.593548
C43   C     C_2   0.877598 0.056153 0.190896 0.223791
H17   H     H_    0.847329 0.005282 0.230227 0.093795
O27   O     O_2   0.907382 0.999942 0.123525 -0.465553

loop_
_geom_bond_atom_site_label_1
_geom_bond_atom_site_label_2
_ccdc_geom_bond_type
C18   C21   S    
C39   O4    A    
Cr2   O2    S    
C19   C20   S    
C1    C11   S    
Cr5   O15   S    
C3    C6    S    
C7    C8    S    
C1    O20   A    
Cr1   O25   S    
C25   H9    S    
C12   O21   A    
Cr1   O24   S    
Cr5   O16   S    
Cr3   O23   S    
C8    C42   S    
C32   O10   A    
C5    C6    S    
C15   C16   S    
Cr6   O17   S    
C18   C19   S    
C9    C13   S    
C7    H13   S    
C2    C7    S    
C3    C23   S    
C33   O11   A    
C38   O2    A    
C28   C35   S    
C27   C39   S    
C16   C17   S    
C18   C26   S    
Cr3   O3    S    
C32   C41   S    
Cr5   O19   S    
C9    C10   S    
C19   H5    S    
C11   C15   S    
C31   O7    A    
Cr1   O5    S    
C23   O23   A    
C21   C22   S    
C1    O12   A    
Cr6   O11   S    
C10   H14   S    
C17   C33   S    
C39   O24   A    
C5    H11   S    
Cr3   O5    S    
Cr6   O10   S    
C24   C25   S    
Cr5   O9    S    
C36   O16   A    
C32   O9    A    
Cr4   O14   S    
C25   C26   S    
C37   O13   A    
C29   C34   S    
C30   C37   S    
C12   C40   S    
C34   O26   A    
C29   C30   T    
C2    H1    S    
C6    H12   S    
C5    C8    S    
C20   C38   S    
C36   O17   A    
Cr1   O1    S    
Cr3   O4    S    
C43   O27   D    
Cr2   O5    S    
C20   C21   S    
Cr4   O7    S    
C6    C7    S    
C33   O6    A    
C26   C36   S    
C31   O8    A    
C15   H3    S    
C22   C24   S    
C37   O18   A    
Cr2   O21   S    
Cr2   O26   S    
C21   F1    S    
C9    C17   S    
Cr1   O12   S    
C40   C41   T    
C9    H15   S    
C8    C31   S    
C16   H4    S    
C4    C5    S    
Cr2   O20   S    
Cr4   O13   S    
C22   H7    S    
C24   H8    S    
C35   O14   A    
Cr6   O19   S    
C12   O22   A    
C23   O1    A    
C2    C3    S    
C34   O25   A    
C10   C16   S    
C11   C13   S    
C14   H2    S    
C13   H16   S    
C4    C42   S    
C2    C42   S    
C35   O15   A    
C43   H17   S    
Cr6   O18   S    
Cr3   O22   S    
C42   C43   S    
C19   C25   S    
Cr5   O8    S    
Cr4   O6    S    
C10   C11   S    
C18   H6    S    
Cr4   O19   S    
C38   O3    A    
C22   C26   S    
C4    H10   S    
C27   C28   T    
C14   C15   S    
C13   C14   S    
C20   C24   S    
C3    C4    S    
C14   C17   S    
