data_mof_unit_61365.cif
_audit_creation_date              2012-12-10T17:44:03-0500
_audit_creation_method            fapswitch 2.2
_symmetry_space_group_name_H-M    P1
_symmetry_Int_Tables_number       1
_space_group_crystal_system       monoclinic
_cell_length_a                    37.269413
_cell_length_b                    30.378993
_cell_length_c                    21.386871
_cell_angle_alpha                 90.0
_cell_angle_beta                  54.614352
_cell_angle_gamma                 90.0
_cell_volume                      19741.3191183

loop_
_atom_site_label
_atom_site_type_symbol
_atom_type_description
_atom_site_fract_x
_atom_site_fract_y
_atom_site_fract_z
_atom_type_partial_charge
C1    C     C_R   0.914859 0.500170 0.083433 0.852607
C2    C     C_R   0.085141 0.500170 0.916567 0.852607
C3    C     C_R   0.414859 0.000170 0.083433 0.852607
C4    C     C_R   0.585141 0.000170 0.916567 0.852607
C5    C     C_3   0.961910 0.484342 0.267741 -0.214861
C6    C     C_3   0.038089 0.484342 0.732259 -0.214860
C7    C     C_3   0.461910 0.984343 0.267741 -0.214861
C8    C     C_3   0.538089 0.984342 0.732259 -0.214860
C9    C     C_3   0.994753 0.458701 0.276435 -0.194530
C10   C     C_3   0.005247 0.458701 0.723565 -0.194531
C11   C     C_3   0.494753 0.958701 0.276435 -0.194530
C12   C     C_3   0.505247 0.958701 0.723565 -0.194531
C13   C     C_3   0.033031 0.474884 0.196708 0.408056
C14   C     C_3   0.966969 0.474884 0.803292 0.408053
C15   C     C_3   0.533031 0.974884 0.196708 0.408054
C16   C     C_3   0.466969 0.974884 0.803292 0.408052
C17   C     C_3   0.000635 0.500036 0.188210 -0.066960
C18   C     C_3   0.999364 0.500036 0.811790 -0.066960
C19   C     C_3   0.500636 0.000036 0.188210 -0.066960
C20   C     C_3   0.499364 0.000036 0.811790 -0.066959
C21   C     C_R   0.795600 0.533487 0.176934 -0.166682
C22   C     C_R   0.204400 0.533487 0.823066 -0.166682
C23   C     C_R   0.295600 0.033487 0.176934 -0.166682
C24   C     C_R   0.704400 0.033487 0.823066 -0.166682
C25   C     C_R   0.841592 0.534592 0.127031 0.429711
C26   C     C_R   0.158408 0.534592 0.872969 0.429711
C27   C     C_R   0.341592 0.034592 0.127031 0.429711
C28   C     C_R   0.658408 0.034592 0.872969 0.429710
C29   C     C_R   0.866341 0.500577 0.131397 -0.132299
C30   C     C_R   0.133659 0.500577 0.868603 -0.132299
C31   C     C_R   0.366341 0.000577 0.131397 -0.132299
C32   C     C_R   0.633659 0.000577 0.868603 -0.132299
C33   C     C_R   0.844032 0.466127 0.184285 -0.221559
C34   C     C_R   0.155967 0.466127 0.815715 -0.221560
C35   C     C_R   0.344032 0.966127 0.184285 -0.221559
C36   C     C_R   0.655967 0.966127 0.815715 -0.221560
C37   C     C_R   0.798257 0.465321 0.232644 -0.090166
C38   C     C_R   0.201743 0.465321 0.767355 -0.090166
C39   C     C_R   0.298257 0.965321 0.232644 -0.090165
C40   C     C_R   0.701743 0.965321 0.767355 -0.090166
C41   C     C_R   0.774067 0.499034 0.229075 0.069927
C42   C     C_R   0.225933 0.499034 0.770925 0.069928
C43   C     C_R   0.274067 0.999034 0.229075 0.069927
C44   C     C_R   0.725933 0.999034 0.770925 0.069928
C45   C     C_R   0.000284 0.500012 0.120146 0.832401
C46   C     C_R   0.999715 0.500012 0.879854 0.832400
C47   C     C_R   0.500285 0.000012 0.120146 0.832401
C48   C     C_R   0.499715 0.000012 0.879854 0.832400
C49   C     C_R   0.704481 0.474253 0.248609 0.341117
C50   C     C_R   0.295519 0.474253 0.751391 0.341118
C51   C     C_R   0.204481 0.974253 0.248609 0.341117
C52   C     C_R   0.795519 0.974253 0.751391 0.341117
C53   C     C_R   0.657973 0.471298 0.295145 0.261241
C54   C     C_R   0.342027 0.471298 0.704855 0.261239
C55   C     C_R   0.157973 0.971298 0.295145 0.261240
C56   C     C_R   0.842027 0.971298 0.704855 0.261241
C57   C     C_R   0.633653 0.495001 0.365764 -0.184392
C58   C     C_R   0.366347 0.495001 0.634236 -0.184393
C59   C     C_R   0.133653 0.995001 0.365764 -0.184392
C60   C     C_R   0.866347 0.995001 0.634236 -0.184392
C61   C     C_R   0.656127 0.517226 0.390938 -0.204763
C62   C     C_R   0.343873 0.517226 0.609062 -0.204762
C63   C     C_R   0.156127 0.017226 0.390938 -0.204762
C64   C     C_R   0.843873 0.017226 0.609062 -0.204762
C65   C     C_R   0.701771 0.517577 0.346840 -0.203174
C66   C     C_R   0.298229 0.517577 0.653160 -0.203174
C67   C     C_R   0.201771 0.017577 0.346840 -0.203174
C68   C     C_R   0.798229 0.017577 0.653160 -0.203174
C69   C     C_R   0.725951 0.496654 0.275744 -0.036211
C70   C     C_R   0.274048 0.496654 0.724256 -0.036211
C71   C     C_R   0.225951 0.996654 0.275744 -0.036211
C72   C     C_R   0.774049 0.996654 0.724256 -0.036211
C73   C     C_R   1.000000 0.366501 0.500000 -0.033804
C74   C     C_R   0.500000 0.866501 0.500000 -0.033804
C75   C     C_R   1.000000 0.274156 0.500000 0.093239
C76   C     C_R   0.500000 0.774156 0.500000 0.093239
C77   C     C_R   0.500000 0.274177 0.500000 0.038602
C78   C     C_R   1.000000 0.774177 0.500000 0.038602
C79   C     C_R   0.000000 0.585087 0.500000 0.832799
C80   C     C_R   0.500000 0.085087 0.500000 0.832799
C81   C     C_R   0.962411 0.343220 0.518862 -0.157277
C82   C     C_R   0.037589 0.343220 0.481138 -0.157277
C83   C     C_R   0.462411 0.843220 0.518862 -0.157277
C84   C     C_R   0.537589 0.843220 0.481138 -0.157277
C85   C     C_R   0.000138 0.500159 0.379427 0.812599
C86   C     C_R   0.999862 0.500159 0.620573 0.812599
C87   C     C_R   0.500138 0.000159 0.379427 0.812598
C88   C     C_R   0.499862 0.000159 0.620573 0.812599
C89   C     C_R   1.000000 0.414839 0.500000 0.782514
C90   C     C_R   0.500000 0.914839 0.500000 0.782514
C91   C     C_R   0.500000 0.633430 0.500000 -0.024722
C92   C     C_R   0.000000 0.133430 0.500000 -0.024722
C93   C     C_R   0.500000 0.585081 0.500000 0.749517
C94   C     C_R   0.000000 0.085081 0.500000 0.749516
C95   C     C_R   0.585094 0.497781 0.414621 0.844482
C96   C     C_R   0.414906 0.497781 0.585379 0.844481
C97   C     C_R   0.085094 0.997780 0.414621 0.844481
C98   C     C_R   0.914906 0.997780 0.585379 0.844483
C99   C     C_R   0.513092 0.656717 0.540358 -0.161600
C100  C     C_R   0.486908 0.656717 0.459642 -0.161599
C101  C     C_R   0.013092 0.156717 0.540358 -0.161600
C102  C     C_R   0.986908 0.156717 0.459642 -0.161600
C103  C     C_R   0.500000 0.414943 0.500000 0.933026
C104  C     C_R   1.000000 0.914943 0.500000 0.933027
C105  C     C_R   0.961422 0.702546 0.554481 0.366542
C106  C     C_R   0.038578 0.702546 0.445519 0.366542
C107  C     C_R   0.461422 0.202546 0.554481 0.366542
C108  C     C_R   0.538578 0.202546 0.445519 0.366542
C109  C     C_R   0.961573 0.656660 0.553889 -0.210153
C110  C     C_R   0.038427 0.656660 0.446111 -0.210153
C111  C     C_R   0.461573 0.156660 0.553889 -0.210153
C112  C     C_R   0.538427 0.156660 0.446111 -0.210153
C113  C     C_R   0.000000 0.633435 0.500000 -0.169768
C114  C     C_R   0.500000 0.133435 0.500000 -0.169768
C115  C     C_R   0.513413 0.702592 0.539851 -0.146817
C116  C     C_R   0.486587 0.702592 0.460149 -0.146817
C117  C     C_R   0.013413 0.202592 0.539851 -0.146817
C118  C     C_R   0.986587 0.202592 0.460149 -0.146817
C119  C     C_R   1.000000 0.725840 0.500000 -0.067200
C120  C     C_R   0.500000 0.225840 0.500000 -0.067200
C121  C     C_R   0.474268 0.297160 0.482778 -0.083329
C122  C     C_R   0.525732 0.297160 0.517222 -0.083330
C123  C     C_R   0.974268 0.797160 0.482778 -0.083329
C124  C     C_R   0.025731 0.797160 0.517222 -0.083330
C125  C     C_R   0.473847 0.343031 0.483070 0.325746
C126  C     C_R   0.526153 0.343031 0.516930 0.325746
C127  C     C_R   0.973846 0.843031 0.483071 0.325746
C128  C     C_R   0.026153 0.843031 0.516929 0.325746
C129  C     C_R   0.500000 0.366541 0.500000 -0.179112
C130  C     C_R   1.000000 0.866541 0.500000 -0.179112
C131  C     C_R   0.500000 0.725782 0.500000 0.092606
C132  C     C_R   1.000000 0.225782 0.500000 0.092606
C133  C     C_R   0.962542 0.297346 0.518271 -0.142859
C134  C     C_R   0.037457 0.297346 0.481729 -0.142860
C135  C     C_R   0.462543 0.797346 0.518271 -0.142859
C136  C     C_R   0.537457 0.797346 0.481729 -0.142860
C137  C     C_3   0.006353 0.541501 0.222905 -0.176086
C138  C     C_3   0.993647 0.541501 0.777095 -0.176086
C139  C     C_3   0.506353 0.041501 0.222905 -0.176086
C140  C     C_3   0.493647 0.041501 0.777095 -0.176086
C141  C     C_3   0.039366 0.515974 0.231285 -0.226769
C142  C     C_3   0.960634 0.515974 0.768715 -0.226771
C143  C     C_3   0.539366 0.015974 0.231285 -0.226773
C144  C     C_3   0.460634 0.015974 0.768715 -0.226771
C145  C     C_3   0.000500 0.500240 0.310686 -0.055945
C146  C     C_3   0.999500 0.500240 0.689314 -0.055944
C147  C     C_3   0.500500 0.000240 0.310686 -0.055944
C148  C     C_3   0.499500 0.000240 0.689314 -0.055944
C149  C     C_3   0.967585 0.525841 0.303333 -0.123914
C150  C     C_3   0.032415 0.525841 0.696667 -0.123914
C151  C     C_3   0.467585 0.025842 0.303333 -0.123914
C152  C     C_3   0.532415 0.025841 0.696667 -0.123914
Cu1   Cu    Cu3+1 0.000000 0.455950 0.000000 1.099282
Cu2   Cu    Cu3+1 0.500000 0.955950 0.000000 1.099282
Cu3   Cu    Cu3+1 0.000000 0.544060 0.000000 1.111078
Cu4   Cu    Cu3+1 0.500000 0.044060 0.000000 1.111080
Cu5   Cu    Cu3+1 0.044060 0.499960 0.455930 0.999233
Cu6   Cu    Cu3+1 0.955940 0.499960 0.544070 0.999232
Cu7   Cu    Cu3+1 0.544060 0.999960 0.455930 0.999232
Cu8   Cu    Cu3+1 0.455940 0.999960 0.544070 0.999233
Cu9   Cu    Cu3+1 0.500010 0.500000 0.562750 1.120258
Cu10  Cu    Cu3+1 0.499990 0.500000 0.437250 1.120258
Cu11  Cu    Cu3+1 0.000010 1.000000 0.562750 1.120258
Cu12  Cu    Cu3+1 0.999990 0.000000 0.437250 1.120258
H1    H     H_    0.071247 0.528680 0.216927 0.177453
H2    H     H_    0.928753 0.528680 0.783073 0.177453
H3    H     H_    0.571247 0.028680 0.216927 0.177452
H4    H     H_    0.428753 0.028680 0.783073 0.177453
H5    H     H_    0.781635 0.438251 0.272434 0.165213
H6    H     H_    0.218365 0.438251 0.727566 0.165213
H7    H     H_    0.281635 0.938251 0.272434 0.165213
H8    H     H_    0.718365 0.938252 0.727566 0.165213
H9    H     H_    0.638228 0.535003 0.444811 0.181181
H10   H     H_    0.361772 0.535003 0.555189 0.181181
H11   H     H_    0.138228 0.035003 0.444811 0.181181
H12   H     H_    0.861772 0.035003 0.555189 0.181181
H13   H     H_    0.718372 0.535039 0.367446 0.173419
H14   H     H_    0.281628 0.535038 0.632553 0.173419
H15   H     H_    0.218372 0.035039 0.367446 0.173419
H16   H     H_    0.781628 0.035039 0.632553 0.173419
H17   H     H_    0.933076 0.360449 0.533344 0.161378
H18   H     H_    0.066924 0.360449 0.466656 0.161377
H19   H     H_    0.433076 0.860449 0.533344 0.161378
H20   H     H_    0.566924 0.860449 0.466656 0.161377
H21   H     H_    0.523616 0.720016 0.571302 0.145193
H22   H     H_    0.476383 0.720016 0.428698 0.145193
H23   H     H_    0.023616 0.220016 0.571302 0.145193
H24   H     H_    0.976383 0.220016 0.428698 0.145193
H25   H     H_    0.523476 0.639495 0.571693 0.161373
H26   H     H_    0.476524 0.639495 0.428307 0.161374
H27   H     H_    0.023476 0.139495 0.571693 0.161373
H28   H     H_    0.976524 0.139495 0.428307 0.161374
H29   H     H_    0.931730 0.639196 0.596365 0.203244
H30   H     H_    0.068270 0.639196 0.403635 0.203244
H31   H     H_    0.431730 0.139196 0.596365 0.203244
H32   H     H_    0.568270 0.139196 0.403635 0.203244
H33   H     H_    0.010897 0.575496 0.200431 0.174627
H34   H     H_    0.989103 0.575496 0.799569 0.174627
H35   H     H_    0.510897 0.075496 0.200431 0.174628
H36   H     H_    0.489103 0.075496 0.799569 0.174627
H37   H     H_    0.933249 0.279923 0.532964 0.143942
H38   H     H_    0.066750 0.279923 0.467036 0.143942
H39   H     H_    0.433249 0.779923 0.532964 0.143942
H40   H     H_    0.566751 0.779923 0.467036 0.143942
H41   H     H_    0.454228 0.279281 0.469651 0.196357
H42   H     H_    0.545772 0.279281 0.530349 0.196357
H43   H     H_    0.954228 0.779281 0.469651 0.196357
H44   H     H_    0.045772 0.779281 0.530349 0.196357
H45   H     H_    0.940577 0.546912 0.348646 0.160164
H46   H     H_    0.059423 0.546912 0.651354 0.160164
H47   H     H_    0.440577 0.046912 0.348646 0.160164
H48   H     H_    0.559423 0.046912 0.651354 0.160164
H49   H     H_    0.930210 0.471510 0.281463 0.154951
H50   H     H_    0.069790 0.471510 0.718538 0.154950
H51   H     H_    0.430210 0.971510 0.281463 0.154951
H52   H     H_    0.569790 0.971510 0.718538 0.154950
H53   H     H_    0.990398 0.424761 0.299054 0.163348
H54   H     H_    0.009602 0.424761 0.700946 0.163348
H55   H     H_    0.490398 0.924761 0.299054 0.163348
H56   H     H_    0.509602 0.924761 0.700946 0.163348
H57   H     H_    0.776150 0.558918 0.174276 0.191866
H58   H     H_    0.223850 0.558918 0.825724 0.191866
H59   H     H_    0.276150 0.058918 0.174276 0.191866
H60   H     H_    0.723850 0.058918 0.825725 0.191866
H61   H     H_    0.862099 0.439845 0.188714 0.175638
H62   H     H_    0.137901 0.439845 0.811286 0.175638
H63   H     H_    0.362099 0.939845 0.188714 0.175638
H64   H     H_    0.637901 0.939845 0.811286 0.175638
O1    O     O_R   0.935730 0.462810 0.064280 -0.575646
O2    O     O_R   0.064270 0.462810 0.935720 -0.575646
O3    O     O_R   0.435730 0.962810 0.064280 -0.575646
O4    O     O_R   0.564270 0.962810 0.935720 -0.575646
O5    O     O_R   0.564280 0.500000 0.488710 -0.585951
O6    O     O_R   0.435720 0.500000 0.511290 -0.585951
O7    O     O_R   0.064280 0.000000 0.488710 -0.585951
O8    O     O_R   0.935720 0.000000 0.511290 -0.585951
O9    O     O_R   0.564280 0.499990 0.382710 -0.520661
O10   O     O_R   0.435720 0.499990 0.617290 -0.520662
O11   O     O_R   0.064280 0.999990 0.382710 -0.520661
O12   O     O_R   0.935720 0.999990 0.617290 -0.520662
O13   O     O_R   0.500000 0.435720 0.553010 -0.507816
O14   O     O_R   0.500000 0.435720 0.446990 -0.507815
O15   O     O_R   1.000000 0.935720 0.553010 -0.507816
O16   O     O_R   0.000000 0.935720 0.446990 -0.507815
O17   O     O_R   0.935740 0.537210 0.064260 -0.532680
O18   O     O_R   0.064260 0.537210 0.935740 -0.532681
O19   O     O_R   0.435740 0.037210 0.064260 -0.532680
O20   O     O_R   0.564260 0.037210 0.935740 -0.532680
O21   O     O_R   0.000010 0.462810 0.091570 -0.559551
O22   O     O_R   0.999990 0.462810 0.908430 -0.559551
O23   O     O_R   0.500010 0.962810 0.091570 -0.559552
O24   O     O_R   0.499990 0.962810 0.908430 -0.559551
O25   O     O_R   0.000020 0.537210 0.091550 -0.579298
O26   O     O_R   0.999980 0.537210 0.908450 -0.579298
O27   O     O_R   0.500020 0.037210 0.091550 -0.579296
O28   O     O_R   0.499980 0.037210 0.908450 -0.579299
O29   O     O_R   0.037200 0.564240 0.462790 -0.584079
O30   O     O_R   0.962800 0.564240 0.537210 -0.584078
O31   O     O_R   0.537200 0.064240 0.462790 -0.584079
O32   O     O_R   0.462800 0.064240 0.537210 -0.584078
O33   O     O_R   0.037200 0.499960 0.371220 -0.582346
O34   O     O_R   0.962800 0.499960 0.628780 -0.582347
O35   O     O_R   0.537200 0.999960 0.371220 -0.582346
O36   O     O_R   0.462800 0.999960 0.628780 -0.582347
O37   O     O_R   0.962800 0.499940 0.445620 -0.584064
O38   O     O_R   0.037200 0.499940 0.554380 -0.584064
O39   O     O_R   0.462800 0.999940 0.445620 -0.584064
O40   O     O_R   0.537200 0.999940 0.554380 -0.584064
O41   O     O_R   0.037210 0.435680 0.462780 -0.582119
O42   O     O_R   0.962790 0.435680 0.537220 -0.582119
O43   O     O_R   0.537210 0.935680 0.462780 -0.582120
O44   O     O_R   0.462790 0.935680 0.537220 -0.582119
O45   O     O_R   0.500030 0.564270 0.552970 -0.593728
O46   O     O_R   0.499970 0.564270 0.447030 -0.593728
O47   O     O_R   0.000030 0.064270 0.552970 -0.593729
O48   O     O_R   0.999970 0.064270 0.447030 -0.593728
Cl1   Cl    Cl    0.736972 0.452216 0.154573 -0.427078
Cl2   Cl    Cl    0.263028 0.452217 0.845427 -0.427079
Cl3   Cl    Cl    0.236972 0.952217 0.154573 -0.427078
Cl4   Cl    Cl    0.763028 0.952217 0.845427 -0.427079
S1    S     S_3+6 0.630842 0.436061 0.267896 0.109112
O49   O     O_2   0.613243 0.463399 0.232717 -0.196856
O50   O     O_2   0.660883 0.401434 0.211225 -0.165852
O51   O     O_3   0.588841 0.410094 0.345396 -0.515279
H65   H     H_    0.602726 0.392114 0.364594 0.355601
S2    S     S_3+6 0.369158 0.436061 0.732104 0.109112
O52   O     O_2   0.386756 0.463399 0.767283 -0.196856
O53   O     O_2   0.339117 0.401434 0.788775 -0.165851
O54   O     O_3   0.411159 0.410094 0.654604 -0.515279
H66   H     H_    0.397274 0.392116 0.635405 0.355600
S3    S     S_3+6 0.130842 0.936061 0.267896 0.109112
O55   O     O_2   0.113243 0.963399 0.232717 -0.196856
O56   O     O_2   0.160883 0.901434 0.211225 -0.165852
O57   O     O_3   0.088841 0.910095 0.345396 -0.515280
H67   H     H_    0.102726 0.892115 0.364594 0.355601
S4    S     S_3+6 0.869158 0.936061 0.732104 0.109112
O58   O     O_2   0.886756 0.963399 0.767283 -0.196856
O59   O     O_2   0.839117 0.901434 0.788775 -0.165852
O60   O     O_3   0.911159 0.910095 0.654604 -0.515280
H68   H     H_    0.897273 0.892115 0.635406 0.355601
Cl5   Cl    Cl    0.912636 0.729734 0.625999 -0.528278
Cl6   Cl    Cl    0.087363 0.729734 0.374001 -0.528278
Cl7   Cl    Cl    0.412636 0.229734 0.625999 -0.528278
Cl8   Cl    Cl    0.587363 0.229734 0.374001 -0.528279
Cl9   Cl    Cl    0.438347 0.369371 0.465456 -0.544771
Cl10  Cl    Cl    0.561653 0.369372 0.534544 -0.544770
Cl11  Cl    Cl    0.938347 0.869371 0.465457 -0.544771
Cl12  Cl    Cl    0.061653 0.869371 0.534543 -0.544770
S5    S     S_3+6 0.076722 0.440370 0.126259 0.066280
O61   O     O_2   0.057843 0.401863 0.110348 -0.226264
O62   O     O_2   0.106836 0.465695 0.053337 -0.230717
O63   O     O_3   0.105301 0.421766 0.159302 -0.469017
H69   H     H_    0.115956 0.448601 0.170066 0.349069
S6    S     S_3+6 0.923278 0.440370 0.873741 0.066282
O64   O     O_2   0.942156 0.401863 0.889653 -0.226264
O65   O     O_2   0.893164 0.465696 0.946663 -0.230716
O66   O     O_3   0.894699 0.421766 0.840698 -0.469014
H70   H     H_    0.884045 0.448601 0.829931 0.349066
S7    S     S_3+6 0.576722 0.940370 0.126259 0.066281
O67   O     O_2   0.557843 0.901863 0.110348 -0.226264
O68   O     O_2   0.606836 0.965695 0.053337 -0.230717
O69   O     O_3   0.605301 0.921765 0.159302 -0.469015
H71   H     H_    0.615955 0.948601 0.170067 0.349067
S8    S     S_3+6 0.423278 0.940370 0.873741 0.066282
O70   O     O_2   0.442157 0.901863 0.889653 -0.226264
O71   O     O_2   0.393164 0.965696 0.946663 -0.230715
O72   O     O_3   0.394699 0.921766 0.840698 -0.469016
H72   H     H_    0.384046 0.948601 0.829931 0.349067
S9    S     S_3+6 0.865908 0.577669 0.058367 0.051456
O73   O     O_2   0.831888 0.599919 0.052593 -0.253837
O74   O     O_2   0.885397 0.610979 0.082674 -0.265174
O75   O     O_3   0.905696 0.557376 0.971867 -0.511565
H73   H     H_    0.917674 0.583274 0.937393 0.369168
S10   S     S_3+6 0.134092 0.577669 0.941633 0.051456
O76   O     O_2   0.168111 0.599919 0.947407 -0.253837
O77   O     O_2   0.114602 0.610978 0.917326 -0.265174
O78   O     O_3   0.094304 0.557376 0.028133 -0.511565
H74   H     H_    0.082326 0.583274 0.062607 0.369167
S11   S     S_3+6 0.365908 0.077669 0.058367 0.051456
O79   O     O_2   0.331888 0.099919 0.052593 -0.253837
O80   O     O_2   0.385397 0.110979 0.082674 -0.265174
O81   O     O_3   0.405696 0.057376 0.971867 -0.511564
H75   H     H_    0.417674 0.083274 0.937393 0.369167
S12   S     S_3+6 0.634092 0.077669 0.941633 0.051456
O82   O     O_2   0.668111 0.099918 0.947407 -0.253840
O83   O     O_2   0.614602 0.110978 0.917327 -0.265171
O84   O     O_3   0.594304 0.057376 0.028133 -0.511566
H76   H     H_    0.582328 0.083273 0.062608 0.369167

loop_
_geom_bond_atom_site_label_1
_geom_bond_atom_site_label_2
_ccdc_geom_bond_type
Cu5   O33   S    
Cu5   Cu6   S    
C55   C59   A    
C122  H42   S    
S3    O55   D    
C74   C83   A    
O78   H74   S    
C55   S3    S    
S1    O51   S    
C21   H57   S    
C35   H63   S    
C4    O4    A    
O51   H65   S    
C16   C144  S    
C60   C98   S    
C76   C131  S    
C97   O7    A    
C29   C33   A    
C23   C43   A    
C117  C132  A    
C142  C146  S    
C46   O22   A    
C39   H7    S    
C77   C122  A    
C146  C150  S    
C11   C15   S    
C12   C16   S    
S8    O70   D    
C43   C71   S    
C91   C100  A    
C140  C152  S    
Cu9   O13   S    
C92   C102  A    
C27   S11   S    
C49   C69   A    
C124  H44   S    
C51   C71   A    
C73   C81   A    
C25   C29   A    
Cu8   O44   S    
C27   C31   A    
C28   C32   A    
C94   O47   A    
C62   C66   A    
O81   H75   S    
C88   O40   A    
C135  H39   S    
Cu9   O10   S    
C126  C129  A    
C8    H52   S    
S6    O64   D    
C82   C134  A    
C52   C72   A    
C16   C20   S    
C5    H49   S    
C1    C29   S    
C88   C148  S    
C51   Cl3   S    
C105  Cl5   S    
C3    C31   S    
C4    C32   S    
Cu9   O45   S    
C108  Cl8   S    
S4    O58   D    
C137  H33   S    
C7    C19   S    
C86   O38   A    
C107  C120  A    
C133  H37   S    
C41   C69   S    
Cu7   O31   S    
S2    O54   S    
C59   C63   A    
C100  H26   S    
C101  H27   S    
Cu4   O19   S    
C28   S12   S    
C57   C61   A    
C16   S8    S    
C33   H61   S    
C60   C64   A    
C74   C90   S    
C140  H36   S    
C1    O17   A    
C94   O48   A    
S10   O78   S    
C66   C70   A    
Cu2   O24   S    
S8    O72   S    
C49   C53   A    
C44   C72   S    
C51   C55   A    
C50   C70   A    
C14   S6    S    
C125  C129  A    
C5    C17   S    
C19   C139  S    
C17   C137  S    
C86   O34   A    
S2    O53   D    
S7    O68   D    
C128  Cl12  S    
Cu2   O3    S    
C112  C114  A    
C75   C134  A    
C5    C149  S    
C121  C125  A    
Cu5   O38   S    
C150  H46   S    
S3    O56   D    
C85   C145  S    
C37   H5    S    
C19   C47   S    
C42   C70   S    
O63   H69   S    
C95   O9    A    
C9    C13   S    
C45   O21   A    
C139  C143  S    
S4    O60   S    
Cu5   O29   S    
Cu6   O34   S    
Cu11  O15   S    
C64   H12   S    
C13   S5    S    
C56   S4    S    
S9    O74   D    
Cu1   O1    S    
C76   C135  A    
C7    C11   S    
Cu3   O17   S    
C97   O11   A    
C30   C34   A    
C52   C56   A    
C89   O42   A    
C79   O29   A    
C84   H20   S    
O75   H73   S    
C10   C14   S    
C3    O3    A    
S10   O76   D    
Cu7   O40   S    
Cu10  O6    S    
C139  H35   S    
C147  C151  S    
C5    C9    S    
C61   C65   A    
C142  H2    S    
C123  C127  A    
C49   Cl1   S    
C8    C12   S    
Cu5   O41   S    
Cu12  O11   S    
O54   H66   S    
Cu9   O5    S    
C80   O31   A    
C78   C123  A    
C143  H3    S    
C10   C146  S    
C15   C143  S    
C23   H59   S    
C26   C30   A    
C79   C113  S    
Cu10  O14   S    
C11   H55   S    
C75   C132  S    
C88   O36   A    
C9    H53   S    
C105  C109  A    
C107  C111  A    
C24   C28   A    
C74   C84   A    
C8    C152  S    
C32   C36   A    
C81   C133  A    
C141  C145  S    
S1    O50   D    
C104  O15   A    
Cu1   O22   S    
C50   Cl2   S    
C141  H1    S    
C13   C17   S    
C2    C30   S    
C106  Cl6   S    
Cu11  O7    S    
Cu10  O46   S    
C65   H13   S    
C139  C151  S    
C12   H56   S    
C37   C41   A    
C7    H51   S    
C118  C132  A    
C2    O2    A    
C40   C44   A    
S11   O81   S    
S12   O82   D    
S8    O71   D    
Cu8   O36   S    
C61   H9    S    
C91   C99   A    
C111  H31   S    
C98   O8    A    
C58   C62   A    
C87   O35   A    
C106  C119  A    
Cu12  O8    S    
C90   O43   A    
C100  C116  A    
C121  H41   S    
C77   C120  S    
C14   C142  S    
Cu9   Cu10  S    
Cu11  O47   S    
C15   C19   S    
C22   H58   S    
C50   C54   A    
C87   C147  S    
C34   H62   S    
C149  H45   S    
C108  C120  A    
C99   C115  A    
O57   H67   S    
C115  H21   S    
Cu3   O26   S    
Cu3   O18   S    
C98   O12   A    
S6    O65   D    
C86   C146  S    
C103  O14   A    
S1    O49   D    
C80   C114  S    
C18   C138  S    
C112  H32   S    
C21   C25   A    
C102  H28   S    
C13   C141  S    
Cu1   Cu3   S    
Cu2   Cu4   S    
Cu4   O27   S    
C124  C128  A    
S6    O66   S    
S4    O59   D    
O69   H71   S    
C152  H48   S    
Cu6   O37   S    
C104  C130  S    
Cu7   O43   S    
C3    O19   A    
C18   C46   S    
C38   H6    S    
C148  C152  S    
C138  C142  S    
O84   H76   S    
Cu10  O9    S    
C15   S7    S    
Cu6   O30   S    
C116  H22   S    
C33   C37   A    
C108  C112  A    
C35   C39   A    
O60   H68   S    
C47   O27   A    
C91   C93   S    
S11   O79   D    
C6    H50   S    
S12   O84   S    
C127  Cl11  S    
C53   S1    S    
C103  C129  S    
C26   S10   S    
C92   C101  A    
C7    C151  S    
Cu4   O20   S    
C24   C44   A    
C31   C35   A    
Cu12  O16   S    
C64   C68   A    
C73   C82   A    
C40   H8    S    
C137  C141  S    
C84   C136  A    
C53   C57   A    
Cu2   O4    S    
Cu12  O48   S    
C140  C144  S    
C17   C45   S    
C128  C130  A    
C6    C10   S    
C75   C133  A    
C38   C42   A    
C54   S2    S    
Cu6   O42   S    
C101  C117  A    
C20   C140  S    
C78   C119  S    
C2    O18   A    
C73   C89   S    
O72   H72   S    
C67   H15   S    
C11   C147  S    
C65   C69   A    
C9    C145  S    
C111  C114  A    
C67   C71   A    
S7    O67   D    
C6    C150  S    
C56   C60   A    
C22   C26   A    
C96   O6    A    
C105  C119  A    
C46   O26   A    
C145  C149  S    
Cu11  O12   S    
C48   O24   A    
S9    O73   D    
C14   C18   S    
Cu11  Cu12  S    
C81   H17   S    
C144  C148  S    
C96   O10   A    
C76   C136  A    
C115  C131  A    
S5    O61   D    
C138  C150  S    
C143  C147  S    
C66   H14   S    
C8    C20   S    
C151  H47   S    
C144  H4    S    
C89   O41   A    
C126  Cl10  S    
S2    O52   D    
S10   O77   D    
Cu2   O23   S    
C62   H10   S    
Cu8   O32   S    
C58   C96   S    
C4    O20   A    
Cu7   Cu8   S    
C110  H30   S    
C80   O32   A    
C23   C27   A    
C48   O28   A    
C78   C124  A    
C83   C135  A    
C102  C118  A    
C68   C72   A    
C52   Cl4   S    
C116  C131  A    
S7    O69   S    
C36   H64   S    
C125  Cl9   S    
C137  C149  S    
C92   C94   S    
C134  H38   S    
C25   S9    S    
C24   H60   S    
C6    C18   S    
C63   C67   A    
C83   H19   S    
C85   O37   A    
C36   C40   A    
S3    O57   S    
C77   C121  A    
C117  H23   S    
C99   H25   S    
C118  H24   S    
C39   C43   A    
C93   O45   A    
C104  O16   A    
Cu1   O21   S    
C68   H16   S    
C122  C126  A    
C123  H43   S    
C20   C48   S    
C109  H29   S    
C110  C113  A    
C107  Cl7   S    
C138  H34   S    
Cu7   O35   S    
S11   O80   D    
S12   O83   D    
C59   C97   S    
S9    O75   S    
C21   C41   A    
Cu1   O2    S    
C136  H40   S    
C10   H54   S    
C54   C58   A    
S5    O63   S    
C34   C38   A    
C79   O30   A    
C47   O23   A    
C90   O44   A    
C85   O33   A    
C63   H11   S    
C109  C113  A    
C12   C148  S    
C127  C130  A    
C93   O46   A    
Cu3   O25   S    
C22   C42   A    
S5    O62   D    
C103  O13   A    
O66   H70   S    
C1    O1    A    
Cu8   O39   S    
C106  C110  A    
C57   C95   S    
C87   O39   A    
C95   O5    A    
Cu4   O28   S    
C45   O25   A    
C82   H18   S    
