data_mof_unit_37648.cif
_audit_creation_date              2012-12-11T20:53:29-0500
_audit_creation_method            fapswitch 2.2
_symmetry_space_group_name_H-M    P1
_symmetry_Int_Tables_number       1
_space_group_crystal_system       triclinic
_cell_length_a                    8.343816
_cell_length_b                    23.0841
_cell_length_c                    27.140081
_cell_angle_alpha                 97.248702
_cell_angle_beta                  91.439538
_cell_angle_gamma                 88.990845
_cell_volume                      5183.47188559

loop_
_atom_site_label
_atom_site_type_symbol
_atom_type_description
_atom_site_fract_x
_atom_site_fract_y
_atom_site_fract_z
_atom_type_partial_charge
Ba1   Ba    Ba6+2 0.848110 0.472730 0.522970 1.693601
Ba2   Ba    Ba6+2 0.341700 0.527220 0.477020 1.693872
C1    C     C_3   0.631100 0.266414 0.657891 0.263764
C2    C     C_R   0.928939 0.555281 0.180247 0.554165
C3    C     C_2   0.760655 0.520643 0.268539 0.385385
C4    C     C_3   0.156280 0.332016 0.655546 0.299311
C5    C     C_3   0.734991 0.548767 0.322075 -0.099488
C6    C     C_1   0.981988 0.495131 0.344523 0.030357
C7    C     C_2   0.031850 0.496319 0.298074 -0.171158
C8    C     C_2   0.915288 0.507652 0.256554 0.198956
C9    C     C_R   0.055331 0.508709 0.104993 -0.083879
C10   C     C_R   0.094822 0.460404 0.130249 -0.048778
C11   C     C_R   0.175283 0.412463 0.104349 -0.057010
C12   C     C_3   0.634647 0.323579 0.635374 0.367435
C13   C     C_R   0.972293 0.556338 0.130362 -0.042547
C14   C     C_2   0.847744 0.523189 0.359606 -0.278121
C15   C     C_2   0.334004 0.481689 0.642494 -0.352908
C16   C     C_3   0.141521 0.309890 0.705863 -0.259513
C17   C     C_R   0.191457 0.456238 0.975283 0.035663
C18   C     C_R   0.123464 0.560514 0.980709 -0.041192
C19   C     C_R   0.174876 0.508033 0.952430 0.053172
C20   C     C_R   0.230075 0.403916 0.944842 -0.103548
C21   C     C_R   0.254753 0.402860 0.894100 -0.052094
C22   C     C_R   0.246961 0.454213 0.871582 -0.012157
C23   C     C_3   0.514393 0.611482 0.630209 0.282184
C24   C     C_R   0.210773 0.507366 0.900961 -0.138380
C25   C     C_R   0.210748 0.559710 0.878967 -0.107797
C26   C     C_R   0.245649 0.557289 0.827529 0.618577
C27   C     C_R   0.273173 0.453219 0.820197 0.575482
C28   C     C_3   0.158942 0.339940 0.401967 0.699208
C29   C     C_2   0.445816 0.487800 0.728318 -0.105327
C30   C     C_3   0.484692 0.490002 0.674384 -0.058647
C31   C     C_1   0.203985 0.510282 0.658620 0.053008
C32   C     C_2   0.165561 0.515437 0.706979 0.355056
C33   C     C_2   0.296375 0.501963 0.745026 0.149763
C34   C     C_3   0.474068 0.634703 0.683620 -0.322463
C35   C     C_R   0.166912 0.458272 0.027467 0.022071
C36   C     C_R   0.096911 0.509018 0.054099 0.054396
C37   C     C_R   0.064496 0.559358 0.029864 0.011780
C38   C     C_R   0.208826 0.411046 0.054017 -0.102065
C39   C     C_R   0.928318 0.603562 0.104953 -0.093872
C40   C     C_3   0.048922 0.286543 0.403418 -0.308691
C41   C     C_R   0.138771 0.612653 0.959355 -0.144448
C42   C     C_R   0.176350 0.612838 0.909249 0.441441
C43   C     C_R   0.968658 0.604944 0.055448 -0.054908
C44   C     C_R   0.366857 0.336586 0.519416 -0.281275
C45   C     C_3   0.981678 0.667705 0.360110 0.733045
C46   C     C_R   0.542980 0.935363 0.517859 -0.034538
C47   C     C_R   0.589017 0.875612 0.513024 0.586366
C48   C     C_R   0.864166 0.902248 0.510671 0.586279
C49   C     C_R   0.817581 0.960400 0.505805 -0.021183
C50   C     C_R   0.657574 0.977697 0.512404 -0.047036
C51   C     C_R   0.384829 0.953901 0.528255 -0.069175
C52   C     C_3   0.022799 0.654327 0.599107 0.285563
C53   C     C_R   0.341817 0.013052 0.531458 -0.087631
C54   C     C_R   0.452686 0.054998 0.521661 -0.031711
C55   C     C_R   0.612180 0.037579 0.513660 -0.054731
C56   C     C_3   0.044050 0.657665 0.307824 -0.222885
C57   C     C_R   0.928784 0.002116 0.495783 -0.083509
C58   C     C_R   0.885093 0.061102 0.497386 -0.064595
C59   C     C_R   0.726703 0.079783 0.507467 -0.058608
C60   C     C_R   0.680892 0.139556 0.511943 0.614521
C61   C     C_R   0.406420 0.113668 0.519253 0.587087
C62   C     C_2   0.943275 0.774762 0.494794 -0.096324
C63   C     C_3   0.994386 0.712040 0.498544 -0.050858
C64   C     C_3   0.015717 0.718108 0.622693 -0.268358
C65   C     C_1   0.718465 0.695615 0.522767 -0.010106
C66   C     C_2   0.687622 0.752720 0.530694 -0.070160
C67   C     C_3   0.547219 0.671138 0.295601 0.256759
C68   C     C_2   0.798735 0.796437 0.512312 0.181773
C69   C     C_R   0.333248 0.240992 0.544768 -0.070371
C70   C     C_R   0.274932 0.297495 0.541037 -0.057089
C71   C     C_R   0.507046 0.317959 0.495637 0.085045
C72   C     C_R   0.553730 0.258598 0.492457 -0.071788
C73   C     C_R   0.471040 0.218872 0.518549 0.251288
C74   C     C_2   0.852080 0.673481 0.502520 -0.313807
C75   C     C_3   0.709968 0.358693 0.366169 0.245238
C76   C     C_3   0.732306 0.315767 0.317652 -0.302818
C77   C     C_1   0.131529 0.237454 0.423138 0.290322
C78   C     C_3   0.446319 0.699610 0.255556 0.699287
C79   C     C_1   0.916808 0.724777 0.667100 0.361618
C80   C     C_1   0.632386 0.410751 0.354090 0.230896
C81   C     C_3   0.654685 0.166476 0.642283 0.207256
C82   C     C_1   0.874679 0.328266 0.290377 0.273203
C83   C     C_3   0.743447 0.692776 0.400683 0.178987
C84   C     C_3   0.320997 0.773706 0.309268 0.127945
C85   C     C_3   0.271127 0.644981 0.197960 0.223672
C86   C     C_3   0.533954 0.527978 0.217876 0.206355
C87   C     C_3   0.025093 0.686437 0.882453 0.257540
C88   C     C_3   0.942131 0.522000 0.757152 0.294381
C89   C     C_R   0.050771 0.460606 0.180603 0.613527
C90   C     C_1   0.887008 0.649409 0.030976 0.251719
C91   C     C_1   0.001003 0.335887 0.732370 0.331877
C92   C     C_3   0.313940 0.294592 0.336074 0.246961
H1    H     H_    0.750733 0.326768 0.617151 0.110410
H2    H     H_    0.629279 0.318101 0.291170 0.074902
H3    H     H_    0.536497 0.324095 0.607245 -0.057882
H4    H     H_    0.510180 0.262513 0.673763 0.005057
H5    H     H_    0.402458 0.597050 0.609870 0.032324
H6    H     H_    0.600902 0.574354 0.629729 0.029778
H7    H     H_    0.402076 0.675808 0.684436 0.147922
H8    H     H_    0.402718 0.602994 0.700673 0.078158
H9    H     H_    0.586179 0.643598 0.706098 0.134580
H10   H     H_    0.723756 0.268190 0.688349 0.054482
H11   H     H_    0.251258 0.321143 0.728598 0.120371
H12   H     H_    0.002599 0.270452 0.365565 0.055125
H13   H     H_    0.974841 0.623382 0.370993 -0.074125
H14   H     H_    0.169141 0.641889 0.308503 0.137021
H15   H     H_    0.973922 0.623037 0.286056 0.052626
H16   H     H_    0.030128 0.698245 0.289572 0.162470
H17   H     H_    0.643115 0.641814 0.278818 0.000378
H18   H     H_    0.605334 0.710731 0.314536 0.029404
H19   H     H_    0.520565 0.735553 0.244199 -0.002699
H20   H     H_    0.144472 0.380563 0.659876 0.018556
H21   H     H_    0.155375 0.485599 0.289072 0.152131
H22   H     H_    0.210315 0.375027 0.122725 0.124755
H23   H     H_    0.943440 0.297928 0.425934 0.106854
H24   H     H_    0.541544 0.479334 0.754403 0.095641
H25   H     H_    0.280591 0.361262 0.872405 0.116860
H26   H     H_    0.235820 0.362483 0.958967 0.069379
H27   H     H_    0.271288 0.372614 0.036916 0.071780
H28   H     H_    0.856346 0.639171 0.123304 0.134592
H29   H     H_    0.127961 0.654568 0.981637 0.100875
H30   H     H_    0.278104 0.319159 0.641886 -0.046204
H31   H     H_    0.831873 0.537174 0.398971 0.086126
H32   H     H_    0.331500 0.452481 0.607845 0.071761
H33   H     H_    0.974966 0.091943 0.490106 0.177203
H34   H     H_    0.899730 0.638169 0.590860 0.015206
H35   H     H_    0.048950 0.988625 0.485478 0.113098
H36   H     H_    0.222357 0.026386 0.542711 0.115233
H37   H     H_    0.267855 0.214785 0.567453 0.130256
H38   H     H_    0.295397 0.922873 0.535347 0.175053
H39   H     H_    0.596256 0.768070 0.557110 0.114949
H40   H     H_    0.023818 0.800030 0.475718 0.153207
H41   H     H_    0.651346 0.243882 0.468391 0.120225
H42   H     H_    0.324623 0.381040 0.518716 0.074917
H43   H     H_    0.870747 0.626469 0.495090 0.069622
H44   H     H_    0.131058 0.261550 0.700741 0.083751
H45   H     H_    0.095087 0.650705 0.565159 0.018016
H46   H     H_    0.170139 0.362970 0.440405 -0.038327
H47   H     H_    0.532620 0.160267 0.656300 0.009730
H48   H     H_    0.746523 0.165005 0.672519 0.029418
H49   H     H_    0.680300 0.129201 0.613452 0.063072
H50   H     H_    0.776985 0.731078 0.426155 0.049938
H51   H     H_    0.756379 0.649971 0.415260 -0.039054
H52   H     H_    0.613061 0.699798 0.395226 0.102235
H53   H     H_    0.203234 0.795762 0.316999 0.099966
H54   H     H_    0.400649 0.806276 0.295659 0.009822
H55   H     H_    0.367239 0.760757 0.345205 0.098304
H56   H     H_    0.963756 0.746298 0.596213 0.036857
H57   H     H_    0.194094 0.683682 0.192189 0.101816
H58   H     H_    0.222004 0.619722 0.226011 0.037492
H59   H     H_    0.271906 0.615927 0.162236 0.032735
H60   H     H_    0.579627 0.572679 0.217789 0.099633
H61   H     H_    0.416422 0.529222 0.236543 0.064605
H62   H     H_    0.511816 0.510759 0.177976 0.058140
H63   H     H_    0.946950 0.651568 0.863051 0.013397
H64   H     H_    0.028885 0.721869 0.858374 0.089346
H65   H     H_    0.970711 0.705280 0.918058 0.034733
H66   H     H_    0.970864 0.474979 0.758767 0.027827
H67   H     H_    0.138736 0.733483 0.633249 0.094815
H68   H     H_    0.812868 0.525586 0.748274 0.051360
H69   H     H_    0.958033 0.547814 0.793984 0.013224
H70   H     H_    0.286389 0.327226 0.310313 0.094476
H71   H     H_    0.234452 0.256309 0.328596 -0.004120
H72   H     H_    0.435267 0.276033 0.328118 0.065292
H73   H     H_    0.823901 0.369354 0.386012 0.016217
H74   H     H_    0.743228 0.269952 0.326304 0.095591
N1    N     N_R   0.966041 0.507407 0.205055 -0.417112
N2    N     N_1   0.890449 0.356333 0.753479 -0.276150
N3    N     N_R   0.267737 0.504214 0.798281 -0.437847
N4    N     N_R   0.750487 0.858603 0.511721 -0.419298
N5    N     N_R   0.520161 0.156793 0.516473 -0.416625
N6    N     N_1   0.195380 0.197828 0.437875 -0.245183
N7    N     N_1   0.838881 0.730034 0.702103 -0.276184
N8    N     N_1   0.562983 0.452098 0.346389 -0.224601
N9    N     N_1   0.987957 0.337522 0.269093 -0.221565
N10   N     N_1   0.820151 0.684980 0.011786 -0.288652
O1    O     O_2   0.919820 0.530450 0.618560 -0.441732
O2    O     O_2   0.303506 0.698714 0.458177 -0.436958
O3    O     O_3   0.085984 0.705786 0.390134 -0.606159
O4    O     O_3   0.151800 0.530410 0.558380 -0.499516
O5    O     O_3   0.542410 0.431140 0.474010 -0.478998
O6    O     O_2   0.406930 0.639920 0.526240 -0.459423
O7    O     O_3   0.585274 0.656606 0.609509 -0.644589
O8    O     O_2   0.394994 0.539051 0.326815 -0.464531
O9    O     O_3   0.456442 0.647306 0.332428 -0.611351
O10   O     O_2   0.085415 0.418550 0.202131 -0.573415
O11   O     O_2   0.301303 0.406775 0.794871 -0.612970
O12   O     O_3   0.603325 0.335458 0.396850 -0.600914
O13   O     O_2   0.858965 0.597691 0.201734 -0.639595
O14   O     O_2   0.253392 0.602315 0.808459 -0.525633
O15   O     O_2   0.484054 0.839073 0.509083 -0.588960
O16   O     O_3   0.654050 0.426350 0.586890 -0.490793
O17   O     O_2   0.006560 0.891583 0.516083 -0.618079
O18   O     O_2   0.785532 0.176044 0.513311 -0.545320
O19   O     O_2   0.263544 0.125598 0.518062 -0.597740
O20   O     O_2   0.813432 0.453598 0.670857 -0.474484
O21   O     O_3   0.099214 0.622017 0.632461 -0.623734
O22   O     O_3   0.613278 0.369658 0.673579 -0.632407
O23   O     O_3   0.036409 0.306553 0.622853 -0.594830
O24   O     O_2   0.782760 0.360070 0.473730 -0.496943
O25   O     O_3   0.056430 0.397060 0.562000 -0.487733
O26   O     O_2   0.940930 0.292940 0.529184 -0.429582
O27   O     O_3   0.662947 0.219037 0.621053 -0.634432
O28   O     O_3   0.828167 0.693685 0.356726 -0.709237
O29   O     O_3   0.297698 0.723932 0.273607 -0.680631
O30   O     O_3   0.430778 0.660643 0.210657 -0.684352
O31   O     O_3   0.642775 0.489764 0.239213 -0.634148
O32   O     O_3   0.183559 0.665882 0.890467 -0.598865
O33   O     O_3   0.027184 0.547224 0.721207 -0.611610
O34   O     O_2   0.269870 0.469530 0.381410 -0.418904
O35   O     O_3   0.313236 0.320857 0.386159 -0.659460
O36   O     O_3   0.037890 0.469550 0.441610 -0.502059
O37   O     O_3   0.535640 0.573600 0.413100 -0.441467
O38   O     O_3   0.091467 0.376704 0.368900 -0.671350
O39   O     O_3   0.647280 0.568810 0.525990 -0.475929
O40   O     O_3   0.133260 0.602900 0.438000 -0.488017
P1    P     P_3+3 0.092730 0.547450 0.611370 1.037585
P2    P     P_3+3 0.606840 0.368620 0.459370 1.029031
P3    P     P_3+3 0.076337 0.322109 0.563071 0.996156
P4    P     P_3+3 0.096970 0.452510 0.388620 1.011056
P5    P     P_3+3 0.127819 0.679591 0.447318 0.998258
P6    P     P_3+3 0.643279 0.436508 0.651345 0.970200
P7    P     P_3+3 0.588145 0.641279 0.544856 0.959584
P8    P     P_3+3 0.533817 0.579032 0.347521 1.005897

loop_
_geom_bond_atom_site_label_1
_geom_bond_atom_site_label_2
_ccdc_geom_bond_type
C1    H10   S    
C57   C58   A    
C89   O10   D    
C28   O35   S    
O5    P2    S    
C62   C68   D    
C92   H70   S    
O26   P3    D    
O3    P5    S    
C56   H15   S    
C33   N3    S    
C71   C72   A    
C10   C89   A    
C2    O13   D    
O23   P3    S    
C53   C54   A    
C84   H53   S    
C92   H72   S    
Ba1   O5    S    
O40   P5    S    
O34   P4    D    
C75   C76   S    
C8    N1    S    
C20   H26   S    
C38   H27   S    
C24   C25   A    
C63   C74   S    
C88   H68   S    
C34   H9    S    
C75   O12   S    
C86   H62   S    
O16   P6    S    
C66   H39   S    
C17   C19   A    
C83   H51   S    
C64   H56   S    
C35   C38   A    
C21   H25   S    
C36   C37   A    
C67   H18   S    
C15   H32   S    
C73   N5    S    
C65   P7    S    
C32   O33   S    
Ba2   P4    S    
C54   C55   A    
O25   P3    S    
O2    P5    D    
C34   H8    S    
C32   C33   S    
Ba2   O4    S    
O24   P2    D    
C16   H44   S    
C43   C90   S    
C68   N4    S    
C22   C27   A    
C4    H20   S    
C11   C38   A    
C17   C35   A    
C9    C13   A    
C25   C42   A    
C23   H5    S    
C29   C30   S    
C76   H2    S    
C6    C7    D    
Ba2   O39   S    
C21   C22   A    
C85   H59   S    
C61   N5    Am   
C4    H30   S    
O36   P4    S    
C14   H31   S    
C67   O9    S    
C44   C70   A    
C45   O3    S    
C37   C43   A    
C25   C26   A    
C31   P1    S    
O4    P1    S    
C6    C14   D    
C85   H57   S    
C77   N6    T    
C59   C60   A    
C15   C31   D    
O6    P7    D    
C28   C40   S    
Ba1   O24   S    
C26   O14   D    
C92   H71   S    
C30   P6    S    
C19   C24   A    
C83   O28   S    
C87   H65   S    
C51   C53   A    
C46   C51   A    
C4    C16   S    
C62   H40   S    
C91   N2    T    
C69   C73   A    
C56   H14   S    
C28   H46   S    
C72   C73   A    
C89   N1    Am   
C49   C50   A    
C1    O27   S    
C86   H61   S    
C83   H50   S    
C87   H64   S    
C17   C20   A    
O21   P1    S    
C83   H52   S    
C13   C39   A    
C4    O23   S    
C2    N1    Am   
C7    H21   S    
C81   H47   S    
C18   C37   A    
C78   H19   S    
C52   H34   S    
C74   H43   S    
C60   N5    Am   
C12   O22   S    
C52   O21   S    
C65   C66   D    
C71   P2    S    
C84   H54   S    
C34   H7    S    
C44   H42   S    
O22   P6    S    
C39   H28   S    
C9    C36   A    
O20   P6    D    
C41   C42   A    
C29   H24   S    
C35   C36   A    
C76   C82   S    
C47   N4    Am   
C48   O17   D    
C23   H6    S    
C52   H45   S    
O8    P8    D    
C46   C50   A    
C9    C10   A    
C53   H36   S    
O7    P7    S    
C72   H41   S    
C48   C49   A    
C54   C61   A    
Ba1   P1    S    
C51   H38   S    
Ba2   O6    S    
C27   N3    Am   
C55   C59   A    
C40   H12   S    
C1    C12   S    
C23   O7    S    
C60   O18   D    
C90   N10   T    
C46   C47   A    
C78   O30   S    
C80   N8    T    
Ba2   O36   S    
C45   H13   S    
C86   O31   S    
C27   O11   D    
C84   H55   S    
C49   C57   A    
C16   C91   S    
Ba1   O25   S    
C41   H29   S    
C12   H1    S    
C63   P5    S    
C18   C41   A    
C6    P4    S    
C12   H3    S    
C3    C5    S    
C7    C8    S    
O9    P8    S    
C57   H35   S    
C92   O35   S    
C45   O28   S    
O1    P1    D    
C56   H16   S    
Ba2   O34   S    
C58   H33   S    
C5    C14   S    
C22   C24   A    
O12   P2    S    
C84   O29   S    
C81   H48   S    
C48   N4    Am   
Ba1   O4    S    
Ba2   O37   S    
C40   H23   S    
C87   H63   S    
C87   O32   S    
C52   C64   S    
C5    P8    S    
C75   H73   S    
C3    O31   S    
C76   H74   S    
C88   H69   S    
C85   H58   S    
C26   N3    Am   
C62   C63   S    
O37   P8    S    
C2    C13   A    
Ba1   O16   S    
C16   H11   S    
C3    C8    D    
C81   O27   S    
C45   C56   S    
C81   H49   S    
Ba1   O1    S    
C1    H4    S    
C88   O33   S    
C47   O15   D    
C75   C80   S    
C70   P3    S    
Ba1   Ba2   S    
C29   C33   D    
C31   C32   D    
Ba1   P2    S    
C42   O32   S    
Ba2   O5    S    
C44   C71   A    
C88   H66   S    
C82   N9    T    
C67   H17   S    
O38   P4    S    
C85   O30   S    
C11   H22   S    
C50   C55   A    
C23   C34   S    
C28   O38   S    
C61   O19   D    
C40   C77   S    
C78   O29   S    
C69   C70   A    
C18   C19   A    
C64   H67   S    
C69   H37   S    
C66   C68   S    
O39   P7    S    
Ba1   O36   S    
Ba2   O40   S    
C15   C30   S    
C39   C43   A    
C20   C21   A    
C58   C59   A    
C67   C78   S    
Ba1   O39   S    
C65   C74   D    
C10   C11   A    
C79   N7    T    
C86   H60   S    
C64   C79   S    
