data_mof_unit_32327.cif
_audit_creation_date              2012-12-11T14:35:48-0500
_audit_creation_method            fapswitch 2.2
_symmetry_space_group_name_H-M    P1
_symmetry_Int_Tables_number       1
_space_group_crystal_system       triclinic
_cell_length_a                    14.56588
_cell_length_b                    16.01907
_cell_length_c                    6.909611
_cell_angle_alpha                 89.930036
_cell_angle_beta                  81.595967
_cell_angle_gamma                 89.86258
_cell_volume                      1594.9150481

loop_
_atom_site_label
_atom_site_type_symbol
_atom_type_description
_atom_site_fract_x
_atom_site_fract_y
_atom_site_fract_z
_atom_type_partial_charge
O1    O     O_R   0.337460 0.413110 0.524760 -0.515362
O2    O     O_R   0.662540 0.913110 0.475240 -0.513165
O3    O     O_R   0.348690 0.587910 0.191230 -0.500521
O4    O     O_R   0.651310 0.087910 0.808770 -0.496114
O5    O     O_R   0.166530 0.586890 0.082470 -0.548572
O6    O     O_R   0.833470 0.086890 0.917530 -0.540666
C1    C     C_R   0.372225 0.615200 0.355133 0.767041
C2    C     C_R   0.631046 0.118240 0.644086 0.786744
O7    O     O_R   0.348700 0.413830 0.191250 -0.543186
O8    O     O_R   0.651300 0.913830 0.808750 -0.517137
O9    O     O_R   0.166530 0.411570 0.082490 -0.559781
O10   O     O_R   0.833470 0.911570 0.917510 -0.554406
C3    C     C_R   0.373667 0.387912 0.354388 0.798598
C4    C     C_R   0.632324 0.883091 0.643954 0.772025
O11   O     O_R   0.337460 0.588430 0.524740 -0.521094
O12   O     O_R   0.662540 0.088430 0.475260 -0.539457
O13   O     O_3   0.192230 0.499460 0.407330 -0.404089
O14   O     O_3   0.807770 0.999460 0.592670 -0.404456
V1    V     V_3+5 0.263080 0.500100 0.108540 1.598564
V2    V     V_3+5 0.736920 0.000100 0.891460 1.642954
O15   O     O_R   0.155290 0.412090 0.756570 -0.525899
O16   O     O_R   0.844710 0.912090 0.243430 -0.519827
C5    C     C_R   0.132737 0.382794 0.932785 0.696346
C6    C     C_R   0.868053 0.883319 0.067047 0.724410
O17   O     O_R   0.155290 0.586170 0.756550 -0.567434
O18   O     O_R   0.844710 0.086170 0.243450 -0.566153
C7    C     C_R   0.134989 0.617074 0.931087 0.704083
C8    C     C_R   0.864654 0.117551 0.068886 0.676492
V3    V     V_3+5 0.240910 0.499900 0.616030 1.566293
V4    V     V_3+5 0.759090 0.999900 0.383970 1.562014
O19   O     O_3   0.311760 0.500540 0.867100 -0.322319
O20   O     O_3   0.688240 0.000540 0.132900 -0.320679
C9    C     C_3   0.096617 0.757741 0.108561 -0.130264
C10   C     C_3   0.907534 0.255113 0.882131 -0.141875
H1    H     H_    0.088863 0.728383 0.256162 0.104818
H2    H     H_    0.915200 0.222680 0.737908 0.153233
C11   C     C_3   0.028869 0.833903 0.123746 -0.351219
C12   C     C_3   0.976554 0.329928 0.859640 -0.337508
H3    H     H_    0.063151 0.889430 0.047703 0.148976
H4    H     H_    0.941969 0.388614 0.918311 0.130339
H5    H     H_    0.010211 0.851614 0.280216 0.180307
H6    H     H_    0.000116 0.341157 0.701256 0.192943
H7    H     H_    0.980062 0.618811 0.192729 0.190245
H8    H     H_    0.024773 0.118009 0.814996 0.187117
C13   C     C_3   0.971250 0.655985 0.060461 -0.401970
C14   C     C_3   0.030825 0.154747 0.949138 -0.373611
C15   C     C_3   0.049667 0.733346 0.766545 -0.136920
C16   C     C_3   0.947461 0.235948 0.232137 -0.155743
C17   C     C_3   0.066942 0.690360 0.963001 -0.014051
C18   C     C_3   0.933869 0.190260 0.036542 -0.077826
H9    H     H_    0.023045 0.685057 0.673142 0.115336
H10   H     H_    0.975457 0.189223 0.327961 0.124593
C19   C     C_3   0.940346 0.813161 0.031741 -0.015633
C20   C     C_3   0.060898 0.312503 0.968128 -0.024763
C21   C     C_3   0.899831 0.727955 0.114392 0.279845
C22   C     C_3   0.103990 0.225860 0.902623 0.285215
C23   C     C_3   0.972086 0.801070 0.808133 -0.364508
C24   C     C_3   0.022417 0.305833 0.190288 -0.358419
H11   H     H_    0.994073 0.862031 0.739650 0.190709
H12   H     H_    0.995859 0.368029 0.243326 0.194916
H13   H     H_    0.911349 0.781128 0.739389 0.195236
H14   H     H_    0.080329 0.291111 0.273632 0.182085
H15   H     H_    0.943592 0.611980 0.958649 0.129189
H16   H     H_    0.055183 0.110133 0.054457 0.131462
H17   H     H_    0.836162 0.713896 0.049063 0.107684
H18   H     H_    0.162866 0.213184 0.984610 0.121422
C25   C     C_2   0.440889 0.683040 0.351939 0.141575
C26   C     C_2   0.565382 0.189365 0.645179 0.171372
C27   C     C_2   0.490255 0.697064 0.502747 0.268541
C28   C     C_2   0.560763 0.237802 0.483185 0.246457
H19   H     H_    0.511638 0.810064 0.771299 0.226455
H20   H     H_    0.442376 0.273024 0.241053 0.212007
C29   C     C_2   0.564289 0.815236 0.643754 -0.243938
C30   C     C_2   0.443494 0.321147 0.350786 -0.220604
C31   C     C_2   0.562092 0.762269 0.490137 -0.030291
C32   C     C_2   0.501094 0.312717 0.487930 -0.035664
C33   C     C_2   0.637679 0.754968 0.321494 0.505299
H21   H     H_    0.675210 0.696439 0.298114 0.079081
O21   O     O_2   0.652371 0.809976 0.198654 -0.494015
C34   C     C_2   0.520848 0.381415 0.620661 0.497687
H22   H     H_    0.552306 0.367561 0.749984 0.110832
O22   O     O_2   0.509035 0.454340 0.579770 -0.499994
Cl1   Cl    Cl    0.481671 0.634223 0.715755 -0.503812
Cl2   Cl    Cl    0.630978 0.221863 0.254334 -0.615706
Cl3   Cl    Cl    0.449159 0.751837 0.150601 -0.574431
Cl4   Cl    Cl    0.488056 0.206255 0.863051 -0.630979
C35   C     C_2   0.196556 0.787148 0.072026 0.440092
H23   H     H_    0.217932 0.836664 0.162705 0.097112
O23   O     O_2   0.254401 0.755764 0.947558 -0.486884
C36   C     C_2   0.808656 0.286058 0.922413 0.443454
H24   H     H_    0.786896 0.328408 0.042391 0.134974
O24   O     O_2   0.752545 0.265722 0.816246 -0.520974
Cl5   Cl    Cl    0.865385 0.730887 0.374396 -0.747443
Cl6   Cl    Cl    0.151746 0.224241 0.647847 -0.684931
C37   C     C_2   0.137564 0.766443 0.646125 0.450041
H25   H     H_    0.184642 0.723371 0.560459 0.037528
O25   O     O_2   0.157535 0.840492 0.643596 -0.517554
C38   C     C_2   0.857503 0.266270 0.350846 0.375058
H26   H     H_    0.806465 0.221170 0.413977 0.110167
O26   O     O_2   0.841345 0.340229 0.382721 -0.517123

loop_
_geom_bond_atom_site_label_1
_geom_bond_atom_site_label_2
_ccdc_geom_bond_type
C24   H14   S    
V4    O20   S    
C35   H23   S    
O13   V3    S    
C19   C21   S    
C37   H25   S    
O4    C2    A    
V1    O19   S    
C15   C17   S    
C33   H21   S    
C22   Cl6   S    
O9    V1    S    
C30   C32   D    
C12   H6    S    
O3    C1    A    
C20   C24   S    
C23   H11   S    
O12   V4    S    
C26   Cl4   S    
O7    C3    A    
O13   V1    S    
O5    C7    A    
C8    C18   S    
O7    V1    S    
O6    C8    A    
O8    V2    S    
O3    V1    S    
O14   V4    S    
C28   Cl2   S    
C10   H2    S    
C21   Cl5   S    
C11   C19   S    
C16   C18   S    
C2    O12   A    
C29   C31   D    
C21   H17   S    
H8    C14   S    
O11   V3    S    
C24   H12   S    
C33   O21   D    
O17   V3    S    
C20   C22   S    
C25   Cl3   S    
C10   C18   S    
C4    C29   S    
H20   C30   S    
O8    C4    A    
H19   C29   S    
C19   C23   S    
C15   H9    S    
C1    O11   A    
C6    C19   S    
O15   V3    S    
C13   H15   S    
C9    C11   S    
C14   H16   S    
C25   C27   D    
C10   C36   S    
C27   Cl1   S    
C15   C23   S    
C31   C33   S    
C36   O24   D    
C12   C20   S    
C13   C17   S    
O10   V2    S    
O1    V3    S    
C16   C24   S    
H7    C13   S    
C34   O22   D    
C2    C26   S    
C38   O26   D    
O15   C5    A    
C28   C32   S    
O16   C6    A    
O1    C3    A    
C16   C38   S    
C5    C20   S    
V2    O20   S    
C14   C18   S    
O16   V4    S    
C10   C12   S    
C32   C34   S    
C34   H22   S    
C37   O25   D    
C23   H13   S    
O5    V1    S    
O17   C7    A    
O6    V2    S    
O10   C6    A    
O18   C8    A    
O2    V4    S    
C35   O23   D    
C9    C35   S    
C11   H3    S    
C12   H4    S    
C36   H24   S    
C22   H18   S    
O9    C5    A    
C9    H1    S    
C27   C31   S    
O14   V2    S    
C11   H5    S    
O2    C4    A    
C1    C25   S    
O4    V2    S    
C16   H10   S    
C3    C30   S    
C13   C21   S    
V3    O19   S    
C38   H26   S    
C14   C22   S    
C26   C28   D    
C15   C37   S    
C9    C17   S    
C7    C17   S    
O18   V4    S    
