data_mof_unit_24482.cif
_audit_creation_date              2012-10-26T19:07:58-0400
_audit_creation_method            fapswitch 2.2
_symmetry_space_group_name_H-M    P1
_symmetry_Int_Tables_number       1
_space_group_crystal_system       triclinic
_cell_length_a                    14.935273
_cell_length_b                    13.870108
_cell_length_c                    19.276912
_cell_angle_alpha                 89.915251
_cell_angle_beta                  90.24286
_cell_angle_gamma                 90.195268
_cell_volume                      3993.22318051

loop_
_atom_site_label
_atom_site_type_symbol
_atom_type_description
_atom_site_fract_x
_atom_site_fract_y
_atom_site_fract_z
_atom_type_partial_charge
C1    C     C_R   0.329446 0.500242 0.504111 0.553558
C2    C     C_R   0.091828 0.516855 0.567887 0.042265
C3    C     C_R   0.947355 0.527045 0.624762 -0.141357
C4    C     C_R   0.053482 0.526577 0.376537 -0.142574
C5    C     C_R   0.041712 0.531022 0.629473 0.277218
C6    C     C_R   0.959257 0.532031 0.371715 0.276692
C7    C     C_R   0.438598 0.793814 0.539670 0.359444
C8    C     C_R   0.568502 0.204179 0.469174 0.362123
C9    C     C_R   0.561535 0.794594 0.460649 0.359511
C10   C     C_R   0.431281 0.203631 0.530475 0.366019
C11   C     C_R   0.555956 0.897206 0.454927 -0.027032
C12   C     C_R   0.670715 0.500601 0.496682 0.555046
C13   C     C_R   0.440878 0.102147 0.541746 -0.028867
C14   C     C_R   0.443654 0.896642 0.544935 -0.026200
C15   C     C_R   0.558673 0.102659 0.457797 -0.031106
C16   C     C_R   0.499634 0.948019 0.499773 -0.020656
C17   C     C_R   0.499709 0.050828 0.499753 -0.019826
C18   C     C_R   0.606923 0.950524 0.406664 -0.142284
C19   C     C_R   0.390157 0.050686 0.590776 -0.152278
C20   C     C_R   0.393162 0.949663 0.593389 -0.141291
C21   C     C_R   0.609454 0.051595 0.408846 -0.157297
C22   C     C_R   0.498105 0.500018 0.367510 0.537260
C23   C     C_R   0.811590 0.510349 0.558304 -0.201813
C24   C     C_R   0.498844 0.499930 0.632364 0.537279
C25   C     C_R   0.463938 0.582896 0.255955 -0.121583
C26   C     C_R   0.518691 0.419202 0.746498 -0.151877
C27   C     C_R   0.451091 0.577560 0.741829 -0.126898
C28   C     C_R   0.508599 0.415461 0.254113 -0.160654
C29   C     C_R   0.453869 0.582242 0.183905 0.219395
C30   C     C_R   0.509904 0.417958 0.818636 0.216489
C31   C     C_R   0.437103 0.575006 0.813467 0.217224
C32   C     C_R   0.500140 0.413515 0.181690 0.219528
C33   C     C_R   0.474146 0.497997 0.145883 0.042861
C34   C     C_R   0.188801 0.509584 0.442883 -0.202087
C35   C     C_R   0.469046 0.496308 0.852638 0.037807
C36   C     C_R   0.490775 0.499713 0.291455 -0.078727
C37   C     C_R   0.491282 0.499661 0.708075 -0.090186
C38   C     C_R   0.463870 0.497979 0.928767 0.355610
C39   C     C_R   0.468644 0.498430 0.069311 0.356924
C40   C     C_R   0.814278 0.508382 0.431685 0.245426
C41   C     C_R   0.186200 0.506193 0.569447 0.247885
C42   C     C_R   0.767316 0.503535 0.494980 -0.029850
C43   C     C_R   0.233016 0.502311 0.506101 -0.028246
C44   C     C_3   0.333604 0.666433 0.145247 -0.006147
C45   C     C_R   0.904231 0.516339 0.560774 -0.041942
C46   C     C_3   0.304941 0.753447 0.102624 -0.356684
C47   C     C_3   0.631198 0.348983 0.869400 -0.001535
C48   C     C_3   0.660954 0.268959 0.918242 -0.354519
C49   C     C_3   0.299592 0.636413 0.835252 -0.002483
C50   C     C_3   0.248922 0.712461 0.875866 -0.368539
C51   C     C_3   0.468387 0.255435 0.158256 -0.002968
C52   C     C_3   0.487552 0.174668 0.107199 -0.355410
C53   C     C_3   0.735192 0.424928 0.347138 0.030042
C54   C     C_3   0.805477 0.367949 0.306712 -0.261941
C55   C     C_3   0.768195 0.270698 0.283260 -0.493589
C56   C     C_R   0.096295 0.515730 0.440503 -0.041776
C57   C     C_3   0.262459 0.418533 0.653116 0.021291
C58   C     C_3   0.189399 0.361355 0.690916 -0.266525
C59   C     C_3   0.223152 0.262055 0.712607 -0.489907
C60   C     C_3   0.039954 0.553136 0.752577 -0.001110
C61   C     C_3   0.998320 0.651706 0.767923 -0.270741
C62   C     C_3   0.945991 0.649698 0.835679 -0.483713
C63   C     C_3   0.963615 0.561092 0.249225 0.005968
C64   C     C_3   0.006128 0.661252 0.240401 -0.266190
C65   C     C_3   0.066018 0.665111 0.176591 -0.491272
C66   C     C_3   0.286807 0.765101 0.552544 0.009635
C67   C     C_R   0.953416 0.515806 0.498762 -0.045707
C68   C     C_3   0.220095 0.759324 0.612554 -0.254147
C69   C     C_3   0.124107 0.774382 0.587298 -0.469470
C70   C     C_3   0.721280 0.199378 0.489046 -0.007355
C71   C     C_3   0.794862 0.269776 0.510720 -0.252663
C72   C     C_3   0.876151 0.217715 0.540769 -0.495610
C73   C     C_3   0.713780 0.768220 0.452953 0.012089
C74   C     C_3   0.784236 0.763771 0.395582 -0.247431
C75   C     C_3   0.878731 0.776665 0.424764 -0.476426
C76   C     C_3   0.279057 0.198078 0.508727 -0.008441
C77   C     C_3   0.205354 0.268090 0.487344 -0.252364
C78   C     C_R   0.047110 0.515377 0.502483 -0.045985
C79   C     C_3   0.124594 0.215724 0.456316 -0.495795
C80   C     C_R   0.908789 0.518124 0.433303 0.041909
Cu1   Cu    Cu3+1 0.500000 0.597420 0.500000 1.043224
Cu2   Cu    Cu3+1 0.500000 0.402580 0.500000 1.012595
H1    H     H_    0.449309 0.648551 0.284042 0.155724
H2    H     H_    0.348617 0.088530 0.627608 0.124580
H3    H     H_    0.354653 0.913462 0.632883 0.139304
H4    H     H_    0.650921 0.089736 0.371891 0.120688
H5    H     H_    0.302459 0.671556 0.197519 0.114997
H6    H     H_    0.308340 0.600418 0.118512 0.121207
H7    H     H_    0.336707 0.751033 0.050666 0.183581
H8    H     H_    0.231113 0.753209 0.095875 0.080244
H9    H     H_    0.325448 0.820947 0.129328 0.155085
H10   H     H_    0.646165 0.419327 0.894992 0.134639
H11   H     H_    0.670389 0.343469 0.820562 0.116250
H12   H     H_    0.548475 0.357784 0.720832 0.147762
H13   H     H_    0.648198 0.197560 0.894096 0.156751
H14   H     H_    0.733666 0.276204 0.929364 0.087240
H15   H     H_    0.623505 0.273560 0.967793 0.188219
H16   H     H_    0.277678 0.564103 0.854242 0.124218
H17   H     H_    0.281378 0.643937 0.779393 0.154139
H18   H     H_    0.267840 0.785605 0.857417 0.159456
H19   H     H_    0.175746 0.702145 0.868463 0.086953
H20   H     H_    0.264949 0.706094 0.931988 0.159584
H21   H     H_    0.397102 0.277425 0.151415 0.130179
H22   H     H_    0.478478 0.226761 0.211621 0.119820
H23   H     H_    0.427333 0.639085 0.712422 0.181506
H24   H     H_    0.557817 0.149959 0.113283 0.154362
H25   H     H_    0.441764 0.112949 0.117057 0.094138
H26   H     H_    0.477184 0.200568 0.053211 0.185686
H27   H     H_    0.677921 0.438646 0.311882 0.160289
H28   H     H_    0.708913 0.381024 0.390079 0.189300
H29   H     H_    0.825740 0.409495 0.260069 0.197282
H30   H     H_    0.865384 0.355286 0.339766 0.155235
H31   H     H_    0.749874 0.226128 0.328929 0.162891
H32   H     H_    0.819786 0.231739 0.253042 0.140979
H33   H     H_    0.708114 0.280986 0.249897 0.171909
H34   H     H_    0.531989 0.351679 0.281019 0.134353
H35   H     H_    0.318871 0.429197 0.689865 0.152559
H36   H     H_    0.289287 0.376197 0.609782 0.196439
H37   H     H_    0.169063 0.401039 0.738185 0.184440
H38   H     H_    0.130073 0.351831 0.656673 0.156043
H39   H     H_    0.241266 0.219232 0.666199 0.164640
H40   H     H_    0.169650 0.223112 0.741138 0.139103
H41   H     H_    0.282650 0.269073 0.747047 0.165297
H42   H     H_    0.088823 0.537784 0.794751 0.136964
H43   H     H_    0.991147 0.492505 0.754943 0.105834
H44   H     H_    0.052474 0.706631 0.771889 0.161074
H45   H     H_    0.773130 0.510681 0.605981 0.105783
H46   H     H_    0.952865 0.674010 0.725187 0.155619
H47   H     H_    0.890404 0.596459 0.832336 0.145879
H48   H     H_    0.917247 0.722054 0.845679 0.149860
H49   H     H_    0.990829 0.630314 0.879629 0.141371
H50   H     H_    0.916276 0.550462 0.205275 0.150648
H51   H     H_    0.011993 0.500773 0.244370 0.103468
H52   H     H_    0.952154 0.715743 0.234830 0.167549
H53   H     H_    0.046504 0.680989 0.286731 0.153655
H54   H     H_    0.122116 0.613237 0.182124 0.133855
H55   H     H_    0.094279 0.738819 0.171014 0.142214
H56   H     H_    0.227253 0.510297 0.395187 0.102748
H57   H     H_    0.026833 0.647552 0.129139 0.147816
H58   H     H_    0.266670 0.712302 0.512307 0.167515
H59   H     H_    0.280153 0.837334 0.527751 0.097432
H60   H     H_    0.225290 0.688299 0.638372 0.246919
H61   H     H_    0.236029 0.814900 0.652064 0.137401
H62   H     H_    0.116305 0.848170 0.565690 0.130687
H63   H     H_    0.077182 0.765471 0.631386 0.161086
H64   H     H_    0.106445 0.720967 0.546607 0.157452
H65   H     H_    0.751556 0.146769 0.452811 0.126892
H66   H     H_    0.699395 0.160317 0.536867 0.123767
H67   H     H_    0.905567 0.534844 0.669975 0.098091
H68   H     H_    0.817034 0.311930 0.465041 0.159776
H69   H     H_    0.767997 0.318684 0.550944 0.182522
H70   H     H_    0.856831 0.175253 0.587287 0.143312
H71   H     H_    0.927777 0.271537 0.556150 0.152567
H72   H     H_    0.905500 0.168776 0.501438 0.140879
H73   H     H_    0.731592 0.715597 0.493996 0.166873
H74   H     H_    0.718527 0.840603 0.477744 0.096658
H75   H     H_    0.779679 0.693760 0.368396 0.256747
H76   H     H_    0.771664 0.821131 0.356613 0.141224
H77   H     H_    0.886225 0.849359 0.448217 0.132538
H78   H     H_    0.095649 0.533384 0.331421 0.096635
H79   H     H_    0.928288 0.769168 0.382348 0.157581
H80   H     H_    0.893009 0.721226 0.464875 0.157573
H81   H     H_    0.248741 0.143911 0.544038 0.126096
H82   H     H_    0.301833 0.160749 0.460592 0.120706
H83   H     H_    0.182543 0.309005 0.533252 0.160107
H84   H     H_    0.232389 0.318269 0.447771 0.182542
H85   H     H_    0.144567 0.174512 0.409540 0.141981
H86   H     H_    0.072915 0.269262 0.441105 0.152672
H87   H     H_    0.095039 0.165586 0.495014 0.140851
H88   H     H_    0.646157 0.914429 0.367697 0.141497
N1    N     N_R   0.485226 0.580348 0.032923 -0.177224
N2    N     N_R   0.446291 0.416277 0.965009 -0.198317
N3    N     N_R   0.482872 0.580160 0.963965 -0.188871
N4    N     N_R   0.448327 0.416637 0.033969 -0.213924
N5    N     N_R   0.500000 0.743810 0.500000 -0.226531
N6    N     N_R   0.500000 0.256190 0.500000 -0.211973
O1    O     O_R   0.370260 0.582280 0.500020 -0.480044
O2    O     O_3   0.538821 0.338381 0.855567 -0.538157
O3    O     O_3   0.392572 0.650015 0.845299 -0.537767
O4    O     O_3   0.527481 0.333011 0.145092 -0.544766
O5    O     O_3   0.767765 0.515708 0.369289 -0.536529
O6    O     O_3   0.232847 0.510826 0.631959 -0.552796
O7    O     O_3   0.088649 0.556254 0.689905 -0.544663
O8    O     O_3   0.912810 0.556451 0.310859 -0.538248
O9    O     O_3   0.374595 0.743257 0.577220 -0.536129
O10   O     O_3   0.649688 0.248725 0.454925 -0.569019
O11   O     O_3   0.627695 0.745276 0.425047 -0.523074
O12   O     O_R   0.629740 0.417720 0.499980 -0.473919
O13   O     O_3   0.349907 0.247474 0.543975 -0.567728
O14   O     O_R   0.629740 0.582280 0.499980 -0.472889
O15   O     O_R   0.370260 0.417720 0.500020 -0.473382
O16   O     O_R   0.499990 0.582300 0.400140 -0.467257
O17   O     O_R   0.500010 0.417700 0.599860 -0.502054
O18   O     O_R   0.500010 0.582300 0.599860 -0.468763
O19   O     O_R   0.499990 0.417700 0.400140 -0.506233
O20   O     O_3   0.427878 0.666096 0.150815 -0.530973

loop_
_geom_bond_atom_site_label_1
_geom_bond_atom_site_label_2
_ccdc_geom_bond_type
C53   H28   S    
C59   H39   S    
C66   C68   S    
C11   C18   A    
C26   H12   S    
C23   C45   A    
C48   H13   S    
Cu2   O15   S    
C18   C21   A    
C69   H63   S    
C47   H10   S    
C62   H48   S    
C19   C20   A    
Cu1   Cu2   S    
C66   H59   S    
C53   C54   S    
C69   H62   S    
C34   C56   A    
C48   H15   S    
N1    N3    A    
C33   C39   S    
C23   C42   A    
C30   C35   A    
C75   H80   S    
C63   H51   S    
C23   H45   S    
C60   H43   S    
C30   O2    S    
C27   C37   A    
C47   O2    S    
C71   H68   S    
C27   H23   S    
C2    C41   A    
C51   H21   S    
C12   O12   A    
C29   C33   A    
C56   C78   A    
C68   H61   S    
C73   C74   S    
C60   H42   S    
Cu2   O17   S    
C39   N1    A    
C76   O13   S    
C28   H34   S    
Cu1   O18   S    
C21   H4    S    
C1    O1    A    
C1    C43   S    
C7    C14   A    
C71   H69   S    
C52   H25   S    
N2    N4    A    
C68   C69   S    
C72   H70   S    
C7    N5    A    
C45   C67   A    
C12   C42   S    
C40   C80   A    
C68   H60   S    
C61   H44   S    
C63   O8    S    
C79   H86   S    
C44   H5    S    
C3    C5    A    
C65   H55   S    
C60   O7    S    
C40   C42   A    
C49   H16   S    
C64   H53   S    
C52   H24   S    
C4    C56   A    
C25   C29   A    
C69   H64   S    
C41   C43   A    
C62   H47   S    
C67   C78   A    
C39   N4    A    
C57   O6    S    
C73   O11   S    
C44   C46   S    
C77   C79   S    
C59   H41   S    
C64   H52   S    
C3    H67   S    
C10   N6    A    
C44   O20   S    
C74   C75   S    
C74   H76   S    
C27   C31   A    
C51   C52   S    
C10   O13   S    
C14   C20   A    
C28   C32   A    
C35   C38   S    
C72   H72   S    
C76   C77   S    
C4    C6    A    
C46   H7    S    
C13   C19   A    
C16   C17   A    
C38   N3    A    
C46   H9    S    
C55   H31   S    
C8    O10   S    
C51   H22   S    
C3    C45   A    
C6    O8    S    
C60   C61   S    
Cu1   O16   S    
C2    C78   A    
C53   O5    S    
C49   H17   S    
C11   C16   A    
C6    C80   A    
C47   C48   S    
C24   O18   A    
C20   H3    S    
C73   H73   S    
C58   H38   S    
C24   C37   S    
C47   H11   S    
C54   H30   S    
C63   H50   S    
C38   N2    A    
C9    C11   A    
C52   H26   S    
Cu2   O19   S    
C70   C71   S    
C66   O9    S    
C1    O15   A    
Cu2   N6    S    
C50   H20   S    
C8    C15   A    
Cu2   O12   S    
C31   C35   A    
C41   O6    S    
C76   H82   S    
C2    C5    A    
C70   H66   S    
C22   O16   A    
C19   H2    S    
Cu1   N5    S    
C22   C36   S    
C57   H35   S    
C40   O5    S    
C75   H77   S    
C15   C17   A    
C54   C55   S    
C72   H71   S    
C48   H14   S    
C74   H75   S    
C62   H49   S    
C7    O9    S    
C67   C80   A    
C9    O11   S    
C10   C13   A    
C8    N6    A    
C26   C37   A    
C26   C30   A    
C46   H8    S    
C55   H32   S    
C29   O20   S    
C12   O14   A    
C50   H18   S    
C13   C17   A    
C75   H79   S    
C64   C65   S    
C79   H87   S    
C77   H84   S    
Cu1   O1    S    
C71   C72   S    
C44   H6    S    
C32   C33   A    
C57   C58   S    
C4    H78   S    
C55   H33   S    
C24   O17   A    
C59   H40   S    
C73   H74   S    
C58   H37   S    
C34   H56   S    
C54   H29   S    
C9    N5    A    
C61   H46   S    
C14   C16   A    
C61   C62   S    
C22   O19   A    
C58   C59   S    
Cu1   O14   S    
C65   H54   S    
C70   O10   S    
C25   C36   A    
C63   C64   S    
C65   H57   S    
C15   C21   A    
C66   H58   S    
C28   C36   A    
C50   H19   S    
C49   C50   S    
C18   H88   S    
C31   O3    S    
C25   H1    S    
C32   O4    S    
C76   H81   S    
C53   H27   S    
C70   H65   S    
C79   H85   S    
C34   C43   A    
C77   H83   S    
C5    O7    S    
C51   O4    S    
C57   H36   S    
C49   O3    S    
