data_mof_unit_44321.cif
_audit_creation_date              2012-10-26T17:12:44-0400
_audit_creation_method            fapswitch 2.2
_symmetry_space_group_name_H-M    P1
_symmetry_Int_Tables_number       1
_space_group_crystal_system       triclinic
_cell_length_a                    28.05963
_cell_length_b                    18.722221
_cell_length_c                    16.875535
_cell_angle_alpha                 90.120453
_cell_angle_beta                  62.628365
_cell_angle_gamma                 90.204232
_cell_volume                      7872.77945536

loop_
_atom_site_label
_atom_site_type_symbol
_atom_type_description
_atom_site_fract_x
_atom_site_fract_y
_atom_site_fract_z
_atom_type_partial_charge
C1    C     C_R   0.292508 0.723610 0.330863 0.557456
C2    C     C_R   0.589862 0.999780 0.534495 0.023065
C3    C     C_R   0.695665 0.709408 0.901520 0.033874
C4    C     C_R   0.149133 0.878627 0.015690 -0.115283
C5    C     C_R   0.881366 0.172533 0.955920 -0.111248
C6    C     C_R   0.882869 0.825123 0.955291 -0.111747
C7    C     C_R   0.151276 0.117104 0.011820 -0.115014
C8    C     C_R   0.649020 0.378383 0.015833 -0.115324
C9    C     C_R   0.381543 0.672797 0.955843 -0.111959
C10   C     C_R   0.383106 0.324894 0.955055 -0.111797
C11   C     C_R   0.650604 0.618405 0.012975 -0.114781
C12   C     C_R   0.171395 0.851675 0.067549 -0.146073
C13   C     C_R   0.912451 0.500461 0.455842 0.023904
C14   C     C_R   0.851538 0.184122 0.910210 -0.141888
C15   C     C_R   0.853285 0.813218 0.909191 -0.141980
C16   C     C_R   0.174001 0.143049 0.063617 -0.146108
C17   C     C_R   0.671213 0.351330 0.067749 -0.146177
C18   C     C_R   0.351772 0.684512 0.910062 -0.142322
C19   C     C_R   0.353605 0.312793 0.908852 -0.142079
C20   C     C_R   0.673073 0.644811 0.064944 -0.145925
C21   C     C_R   0.244288 0.699839 0.791266 -0.112323
C22   C     C_R   0.727453 0.240711 0.230777 -0.113330
C23   C     C_R   0.728379 0.756277 0.229435 -0.113582
C24   C     C_R   0.100113 0.499543 0.502572 0.023216
C25   C     C_R   0.245578 0.298756 0.790826 -0.111967
C26   C     C_R   0.744088 0.199572 0.791378 -0.112091
C27   C     C_R   0.227569 0.740963 0.230620 -0.113431
C28   C     C_R   0.228946 0.254218 0.228618 -0.115657
C29   C     C_R   0.745428 0.799099 0.790893 -0.112740
C30   C     C_R   0.276060 0.685683 0.832918 -0.141936
C31   C     C_R   0.703421 0.268459 0.181960 -0.145767
C32   C     C_R   0.704757 0.727827 0.180171 -0.145949
C33   C     C_R   0.277734 0.312196 0.832077 -0.142176
C34   C     C_R   0.775804 0.185298 0.833104 -0.141583
C35   C     C_R   0.583499 0.870802 0.545575 -0.118978
C36   C     C_R   0.203598 0.768808 0.181764 -0.145688
C37   C     C_R   0.205534 0.225669 0.179154 -0.145574
C38   C     C_R   0.777483 0.812725 0.832283 -0.142524
C39   C     C_R   0.927763 0.900887 0.064990 0.560195
C40   C     C_R   0.076486 0.092680 0.931180 0.549851
C41   C     C_R   0.076328 0.906985 0.931374 0.548180
C42   C     C_R   0.927565 0.098847 0.065180 0.560130
C43   C     C_R   0.427749 0.400889 0.064993 0.560133
C44   C     C_R   0.576442 0.592774 0.931246 0.549837
C45   C     C_R   0.576316 0.406965 0.931383 0.548582
C46   C     C_R   0.416880 0.129199 0.452607 -0.113570
C47   C     C_R   0.427577 0.598860 0.065172 0.560062
C48   C     C_R   0.040562 0.625687 0.527751 0.011387
C49   C     C_R   0.972373 0.374118 0.427209 0.012765
C50   C     C_R   0.956078 0.628740 0.482811 0.008824
C51   C     C_R   0.069045 0.375826 0.440945 0.011289
C52   C     C_R   0.541266 0.129254 0.526029 0.009525
C53   C     C_R   0.459303 0.870755 0.471712 0.011900
C54   C     C_R   0.458571 0.129596 0.475957 0.011211
C55   C     C_R   0.542012 0.870415 0.521752 0.008969
C56   C     C_R   0.014296 0.690113 0.531492 -0.129551
C57   C     C_R   0.417466 0.871477 0.448740 -0.113076
C58   C     C_R   0.004783 0.312960 0.406048 -0.125808
C59   C     C_R   0.973793 0.692134 0.505493 -0.127940
C60   C     C_R   0.053130 0.314160 0.411472 -0.127058
C61   C     C_R   0.519697 0.194059 0.515828 -0.130474
C62   C     C_R   0.480954 0.805954 0.481705 -0.126770
C63   C     C_R   0.479823 0.194257 0.488169 -0.127329
C64   C     C_R   0.520837 0.805753 0.509343 -0.130699
C65   C     C_R   0.980113 0.563741 0.483377 0.024653
C66   C     C_R   0.037181 0.437209 0.461778 0.024537
C67   C     C_R   0.024735 0.562868 0.500481 0.024743
C68   C     C_R   0.582888 0.128529 0.549504 -0.118405
C69   C     C_R   0.989626 0.436907 0.452196 0.025223
C70   C     C_R   0.478635 0.064712 0.489030 0.024880
C71   C     C_R   0.521987 0.935299 0.508620 0.025051
C72   C     C_R   0.521602 0.064566 0.510781 0.024902
C73   C     C_R   0.479017 0.935444 0.486877 0.024795
C74   C     C_R   0.456580 0.000146 0.478400 -0.005721
C75   C     C_R   0.543988 0.999863 0.519408 -0.005698
C76   C     C_R   0.960747 0.500252 0.463624 -0.005184
C77   C     C_R   0.053681 0.499608 0.489387 -0.005874
C78   C     C_R   0.387777 0.934600 0.456102 -0.001138
C79   C     C_R   0.116480 0.377052 0.449136 -0.115093
C80   C     C_R   0.612505 0.065403 0.542535 -0.001736
C81   C     C_R   0.612785 0.934115 0.540909 -0.001138
C82   C     C_R   0.387508 0.065889 0.457698 -0.000573
C83   C     C_R   0.890232 0.435176 0.445295 -0.000743
C84   C     C_R   0.116680 0.563188 0.528904 -0.001723
C85   C     C_R   0.130449 0.436361 0.487270 -0.000552
C86   C     C_R   0.887141 0.566217 0.457939 -0.000540
C87   C     C_R   0.336120 0.934608 0.458117 -0.024724
C88   C     C_R   0.663963 0.065382 0.541303 -0.025089
C89   C     C_R   0.664094 0.934440 0.540547 -0.024757
C90   C     C_R   0.914847 0.629736 0.459050 -0.114059
C91   C     C_R   0.335995 0.065571 0.458853 -0.024366
C92   C     C_R   0.836615 0.434758 0.455231 -0.026086
C93   C     C_R   0.166807 0.564313 0.531878 -0.026670
C94   C     C_R   0.173906 0.435521 0.509525 -0.021105
C95   C     C_R   0.835422 0.565689 0.460187 -0.022803
C96   C     C_R   0.311897 0.000006 0.458353 -0.164265
C97   C     C_R   0.688087 0.999994 0.541422 -0.168057
C98   C     C_R   0.811251 0.500108 0.459944 -0.163691
C99   C     C_R   0.192357 0.499711 0.528006 -0.166059
C100  C     C_R   0.923189 0.373482 0.423791 -0.115139
C101  C     C_R   0.704145 0.269315 0.671242 0.554316
C102  C     C_R   0.083272 0.623875 0.548448 -0.117952
C103  C     C_R   0.222785 0.768017 0.950473 0.036071
C104  C     C_R   0.778187 0.227344 0.046315 0.036201
C105  C     C_R   0.779677 0.769685 0.045013 0.036148
C106  C     C_R   0.224754 0.228539 0.948314 0.036050
C107  C     C_R   0.722562 0.267647 0.950672 0.036077
C108  C     C_R   0.278391 0.727713 0.046145 0.036136
C109  C     C_R   0.280210 0.268506 0.044387 0.035918
C110  C     C_R   0.724178 0.729647 0.949030 0.036081
C111  C     C_R   0.267005 0.721388 0.911528 0.012369
C112  C     C_R   0.704169 0.730657 0.671272 0.555017
C113  C     C_R   0.729435 0.264753 0.088933 0.012479
C114  C     C_R   0.731009 0.731767 0.087197 0.012521
C115  C     C_R   0.268893 0.275619 0.909916 0.012371
C116  C     C_R   0.766754 0.220974 0.911737 0.012224
C117  C     C_R   0.229647 0.765142 0.088737 0.012346
C118  C     C_R   0.231753 0.230082 0.086277 0.013572
C119  C     C_R   0.768451 0.776481 0.910423 0.012443
C120  C     C_R   0.299084 0.709895 0.955081 0.012127
C121  C     C_R   0.706696 0.293878 0.037360 0.013079
C122  C     C_R   0.708433 0.702672 0.035275 0.012987
C123  C     C_R   0.292728 0.275951 0.330607 0.549354
C124  C     C_R   0.300971 0.286869 0.953514 0.012010
C125  C     C_R   0.798846 0.209479 0.955268 0.011871
C126  C     C_R   0.206918 0.794266 0.037148 0.013028
C127  C     C_R   0.209236 0.201079 0.034248 0.013122
C128  C     C_R   0.800531 0.787724 0.954015 0.012208
C129  C     C_R   0.154997 0.842845 0.937673 0.010500
C130  C     C_R   0.857645 0.176957 0.050159 0.009504
C131  C     C_R   0.858731 0.821058 0.049559 0.009152
C132  C     C_R   0.156451 0.154539 0.935457 0.009704
C133  C     C_R   0.654887 0.342649 0.937782 0.010459
C134  C     C_R   0.792502 0.223600 0.330869 0.556661
C135  C     C_R   0.357767 0.677151 0.050090 0.009636
C136  C     C_R   0.358941 0.320668 0.049320 0.008980
C137  C     C_R   0.656037 0.655323 0.936106 0.009798
C138  C     C_R   0.124090 0.859694 0.892413 -0.024107
C139  C     C_R   0.883074 0.151452 0.101114 -0.026833
C140  C     C_R   0.883663 0.847596 0.100810 -0.026799
C141  C     C_R   0.124632 0.139258 0.891492 -0.024101
C142  C     C_R   0.624043 0.359618 0.892450 -0.024154
C143  C     C_R   0.383119 0.651510 0.101098 -0.026981
C144  C     C_R   0.383699 0.347484 0.100732 -0.027017
C145  C     C_R   0.204159 0.769337 0.671237 0.554346
C146  C     C_R   0.624493 0.639548 0.891753 -0.023925
C147  C     C_R   0.139128 0.830700 0.807825 -0.169033
C148  C     C_R   0.861064 0.168785 0.191710 -0.168131
C149  C     C_R   0.861427 0.830755 0.191549 -0.167309
C150  C     C_R   0.139103 0.169154 0.807635 -0.167641
C151  C     C_R   0.639105 0.330680 0.807826 -0.168909
C152  C     C_R   0.361066 0.668767 0.191722 -0.167906
C153  C     C_R   0.361388 0.330704 0.191496 -0.167742
C154  C     C_R   0.639127 0.669161 0.807698 -0.168857
C155  C     C_R   0.181892 0.782872 0.768515 -0.027818
C156  C     C_R   0.204164 0.230670 0.671256 0.562195
C157  C     C_R   0.811609 0.203360 0.235980 -0.024430
C158  C     C_R   0.812050 0.795666 0.235603 -0.024757
C159  C     C_R   0.182203 0.216704 0.768241 -0.027618
C160  C     C_R   0.681833 0.282793 0.768543 -0.027755
C161  C     C_R   0.311641 0.703415 0.235951 -0.024665
C162  C     C_R   0.312182 0.295176 0.235388 -0.024849
C163  C     C_R   0.682164 0.716805 0.768320 -0.027597
C164  C     C_R   0.206897 0.756660 0.819769 0.009839
C165  C     C_R   0.781582 0.217840 0.188622 0.009026
C166  C     C_R   0.782409 0.780013 0.187779 0.009015
C167  C     C_R   0.792645 0.776154 0.330709 0.559901
C168  C     C_R   0.207935 0.241946 0.818965 0.009645
C169  C     C_R   0.706754 0.256455 0.819865 0.009670
C170  C     C_R   0.281679 0.718028 0.188524 0.008709
C171  C     C_R   0.282765 0.278873 0.187311 0.010535
C172  C     C_R   0.707739 0.742340 0.819178 0.009996
C173  C     C_R   0.196995 0.631471 0.525799 0.544920
C174  C     C_R   0.803702 0.368199 0.471505 0.558912
C175  C     C_R   0.802962 0.631606 0.474168 0.563793
C176  C     C_R   0.200581 0.368900 0.514032 0.550631
C177  C     C_R   0.696636 0.131686 0.527080 0.546386
C178  C     C_R   0.410540 0.000225 0.463796 0.023217
C179  C     C_R   0.303390 0.868295 0.472761 0.561363
C180  C     C_R   0.303307 0.131653 0.473082 0.561705
C181  C     C_R   0.696722 0.868366 0.526748 0.547785
C182  C     C_R   0.194541 0.788857 0.902748 0.034016
C183  C     C_R   0.806066 0.207722 0.095062 0.034071
C184  C     C_R   0.807217 0.789836 0.094155 0.034076
C185  C     C_R   0.196078 0.208630 0.900983 0.033948
C186  C     C_R   0.694375 0.288590 0.902892 0.033978
C187  C     C_R   0.306210 0.707980 0.094948 0.034057
C188  C     C_R   0.307588 0.288936 0.093718 0.033900
Cu1   Cu    Cu3+1 0.209920 0.785290 0.495070 0.901475
Cu2   Cu    Cu3+1 0.504760 0.500000 0.075850 0.901019
Cu3   Cu    Cu3+1 0.995240 0.000000 0.924150 0.906303
Cu4   Cu    Cu3+1 0.004760 0.000000 0.075850 0.901255
Cu5   Cu    Cu3+1 0.790080 0.214710 0.504930 0.907275
Cu6   Cu    Cu3+1 0.790080 0.785290 0.504930 0.899895
Cu7   Cu    Cu3+1 0.209920 0.214710 0.495070 0.905675
Cu8   Cu    Cu3+1 0.709920 0.285290 0.495070 0.897536
Cu9   Cu    Cu3+1 0.290080 0.714710 0.504930 0.901501
Cu10  Cu    Cu3+1 0.290080 0.285290 0.504930 0.900425
Cu11  Cu    Cu3+1 0.709920 0.714710 0.495070 0.898181
Cu12  Cu    Cu3+1 0.495240 0.500000 0.924150 0.903660
H1    H     H_    0.536200 0.755080 0.518479 0.099216
H2    H     H_    0.727557 0.000126 0.538149 0.156500
H3    H     H_    0.770861 0.499879 0.467083 0.159510
H4    H     H_    0.228205 0.499678 0.536942 0.155922
H5    H     H_    0.590618 0.820845 0.569527 0.149315
H6    H     H_    0.409549 0.179149 0.428899 0.149925
H7    H     H_    0.410022 0.822000 0.423754 0.148730
H8    H     H_    0.590107 0.177998 0.574780 0.148358
H9    H     H_    0.142586 0.331864 0.421920 0.136733
H10   H     H_    0.907448 0.681251 0.439423 0.153514
H11   H     H_    0.912573 0.325195 0.400557 0.143496
H12   H     H_    0.464468 0.244928 0.479008 0.101785
H13   H     H_    0.088990 0.670338 0.581013 0.144286
H14   H     H_    0.118268 0.847437 0.770667 0.157654
H15   H     H_    0.881993 0.153032 0.229132 0.158207
H16   H     H_    0.882046 0.847396 0.229273 0.159187
H17   H     H_    0.117558 0.153368 0.771097 0.159276
H18   H     H_    0.618300 0.347514 0.770618 0.157663
H19   H     H_    0.381936 0.652899 0.229193 0.158694
H20   H     H_    0.381823 0.347711 0.229375 0.159209
H21   H     H_    0.617752 0.653076 0.770995 0.157549
H22   H     H_    0.163603 0.879487 0.128631 0.105799
H23   H     H_    0.465873 0.755432 0.470906 0.102100
H24   H     H_    0.871270 0.177274 0.838501 0.108602
H25   H     H_    0.873159 0.820070 0.837487 0.106440
H26   H     H_    0.166608 0.114331 0.123846 0.105659
H27   H     H_    0.663424 0.379118 0.128845 0.105708
H28   H     H_    0.371534 0.677706 0.838347 0.106939
H29   H     H_    0.373461 0.319861 0.837183 0.106903
H30   H     H_    0.665486 0.616450 0.125493 0.105832
H31   H     H_    0.249081 0.664020 0.738044 0.148003
H32   H     H_    0.701401 0.235706 0.301182 0.158798
H33   H     H_    0.702005 0.761198 0.299700 0.158470
H34   H     H_    0.534779 0.244583 0.526619 0.099571
H35   H     H_    0.250220 0.335142 0.738326 0.148852
H36   H     H_    0.748892 0.163827 0.738082 0.147959
H37   H     H_    0.201479 0.735915 0.301002 0.159035
H38   H     H_    0.202433 0.258330 0.298764 0.141717
H39   H     H_    0.750216 0.835287 0.738139 0.147779
H40   H     H_    0.305524 0.643513 0.805964 0.105523
H41   H     H_    0.662774 0.288315 0.217855 0.108875
H42   H     H_    0.664157 0.707429 0.215663 0.108716
H43   H     H_    0.307270 0.354536 0.805597 0.105574
H44   H     H_    0.805242 0.143095 0.806157 0.106108
H45   H     H_    0.077503 0.266339 0.394452 0.095485
H46   H     H_    0.162957 0.788685 0.217629 0.109383
H47   H     H_    0.165050 0.204832 0.214516 0.104018
H48   H     H_    0.807111 0.854945 0.805633 0.105440
H49   H     H_    0.129487 0.929252 0.037575 0.144547
H50   H     H_    0.923463 0.162024 0.915092 0.151206
H51   H     H_    0.925025 0.835937 0.914923 0.149041
H52   H     H_    0.131536 0.066218 0.032361 0.143926
H53   H     H_    0.629442 0.429063 0.037679 0.144856
H54   H     H_    0.423636 0.662220 0.915078 0.149845
H55   H     H_    0.425216 0.336008 0.914742 0.149420
H56   H     H_    0.955108 0.742811 0.505998 0.102176
H57   H     H_    0.630936 0.567512 0.033810 0.144486
H58   H     H_    0.992785 0.264217 0.385293 0.104575
H59   H     H_    0.026458 0.739291 0.551127 0.101054
H60   H     H_    0.272273 0.999873 0.462242 0.158979
O1    O     O_R   0.255040 0.869590 0.478480 -0.501371
O2    O     O_R   0.817950 0.203450 0.375560 -0.512555
O3    O     O_R   0.817950 0.796550 0.375560 -0.510125
O4    O     O_R   0.182050 0.203450 0.624440 -0.502350
O5    O     O_R   0.682050 0.296550 0.624440 -0.510756
O6    O     O_R   0.317950 0.703450 0.375560 -0.511617
O7    O     O_R   0.317950 0.296550 0.375560 -0.513829
O8    O     O_R   0.682050 0.703450 0.624440 -0.510824
O9    O     O_R   0.250530 0.763330 0.367210 -0.519286
O10   O     O_R   0.749470 0.236670 0.632790 -0.514025
O11   O     O_R   0.749470 0.763330 0.632790 -0.515950
O12   O     O_R   0.744960 0.130410 0.521520 -0.512493
O13   O     O_R   0.250530 0.236670 0.367210 -0.527963
O14   O     O_R   0.750530 0.263330 0.367210 -0.519649
O15   O     O_R   0.249470 0.736670 0.632790 -0.514680
O16   O     O_R   0.249470 0.263330 0.632790 -0.513972
O17   O     O_R   0.750530 0.736670 0.367210 -0.519404
O18   O     O_R   0.177260 0.690030 0.513710 -0.526607
O19   O     O_R   0.822740 0.309970 0.486290 -0.510890
O20   O     O_R   0.822740 0.690030 0.486290 -0.520575
O21   O     O_R   0.177260 0.309970 0.513710 -0.523977
O22   O     O_R   0.677260 0.190030 0.513710 -0.529302
O23   O     O_R   0.744960 0.869590 0.521520 -0.512139
O24   O     O_R   0.322740 0.809970 0.486290 -0.516298
O25   O     O_R   0.322740 0.190030 0.486290 -0.517862
O26   O     O_R   0.677260 0.809970 0.513710 -0.529997
O27   O     O_R   0.051640 0.926880 0.885090 -0.514627
O28   O     O_R   0.948360 0.073120 0.114910 -0.503809
O29   O     O_R   0.948360 0.926880 0.114910 -0.503963
O30   O     O_R   0.051640 0.073120 0.885090 -0.513663
O31   O     O_R   0.551640 0.426880 0.885090 -0.514559
O32   O     O_R   0.448360 0.573120 0.114910 -0.503613
O33   O     O_R   0.448360 0.426880 0.114910 -0.504186
O34   O     O_R   0.255040 0.130410 0.478480 -0.501669
O35   O     O_R   0.551640 0.573120 0.885090 -0.514579
O36   O     O_R   0.940620 0.926560 0.986760 -0.513883
O37   O     O_R   0.059380 0.073440 0.013240 -0.525734
O38   O     O_R   0.059380 0.926560 0.013240 -0.527067
O39   O     O_R   0.940620 0.073440 0.986760 -0.514145
O40   O     O_R   0.440620 0.426560 0.986760 -0.513821
O41   O     O_R   0.559380 0.573440 0.013240 -0.525641
O42   O     O_R   0.559380 0.426560 0.013240 -0.526950
O43   O     O_R   0.440620 0.573440 0.986760 -0.514286
O44   O     O_R   0.755040 0.369590 0.478480 -0.501827
O45   O     O_R   0.244960 0.630410 0.521520 -0.512583
O46   O     O_R   0.244960 0.369590 0.521520 -0.515235
O47   O     O_R   0.755040 0.630410 0.478480 -0.501870
O48   O     O_R   0.182050 0.796550 0.624440 -0.510268

loop_
_geom_bond_atom_site_label_1
_geom_bond_atom_site_label_2
_ccdc_geom_bond_type
Cu5   O10   S    
C99   H4    S    
C108  C120  A    
C97   H2    S    
C129  C182  A    
C147  H14   S    
C88   C177  S    
C16   H26   S    
C50   C59   A    
Cu12  O40   S    
Cu1   O9    S    
C145  O15   A    
C181  O23   A    
Cu8   O22   S    
C52   C61   A    
C12   C126  A    
C54   C63   A    
C58   C60   A    
C47   C143  S    
C44   O41   A    
Cu9   O6    S    
C61   C63   A    
C103  C126  A    
C95   C175  S    
C153  H20   S    
C62   C64   A    
C131  C140  A    
C91   C96   A    
C50   C90   A    
C162  C171  A    
C170  C187  A    
C70   C74   A    
C4    C12   A    
C147  C155  A    
C24   C85   A    
C63   H12   S    
C88   C97   A    
Cu7   Cu10  S    
C32   H42   S    
C119  C128  A    
C49   C69   A    
C43   C144  S    
C57   C78   A    
C109  C118  A    
C11   C20   A    
C150  C159  A    
C10   H55   S    
C165  C183  A    
C137  C146  A    
C166  C184  A    
C175  O20   A    
C86   C90   A    
C71   C73   A    
C106  C127  A    
C82   C91   A    
C51   C66   A    
C89   C181  S    
C142  C151  A    
C52   C72   A    
C41   O38   A    
C105  C114  A    
C102  H13   S    
C146  C154  A    
C82   C178  A    
C176  O46   A    
C36   C117  A    
C19   H29   S    
C7    C132  A    
C38   C119  A    
C171  C188  A    
Cu7   O34   S    
C5    C130  A    
C83   C100  A    
C43   O33   A    
C45   C142  S    
C158  C167  S    
C177  O12   A    
C79   C85   A    
C173  O18   A    
Cu1   Cu9   S    
C66   C77   A    
C39   C140  S    
Cu9   O45   S    
C5    H50   S    
C30   H40   S    
C4    H49   S    
C87   C96   A    
C8    C17   A    
C37   H47   S    
C56   C59   A    
C106  C115  A    
Cu10  O7    S    
C80   C88   A    
C179  O1    A    
C7    H52   S    
C93   C173  S    
Cu12  O31   S    
C84   C93   A    
C105  C184  A    
C156  O16   A    
C86   C95   A    
C24   C77   A    
C104  C183  A    
C42   O39   A    
C2    C81   A    
C41   O27   A    
C55   C71   A    
C2    C75   A    
C78   C87   A    
Cu5   O19   S    
Cu6   O20   S    
C39   O29   A    
C84   C102  A    
C67   C77   A    
Cu3   O27   S    
Cu8   O44   S    
C133  C142  A    
C15   H25   S    
C11   H57   S    
C130  C183  A    
C1    O9    A    
C3    C110  A    
C69   C76   A    
C85   C94   A    
Cu12  O43   S    
C180  O25   A    
C46   C82   A    
C101  C160  S    
Cu4   O29   S    
C29   C38   A    
C149  C158  A    
C167  O17   A    
C20   C122  A    
C152  C161  A    
C64   H1    S    
C135  C143  A    
C174  O19   A    
C60   H45   S    
C48   C67   A    
C40   C141  S    
C136  C188  A    
C72   C75   A    
C112  O11   A    
C135  C187  A    
C141  C150  A    
C25   C168  A    
Cu4   O38   S    
C139  C148  A    
C1    O6    A    
C98   H3    S    
Cu1   O48   S    
C157  C165  A    
C92   C174  S    
C45   O42   A    
Cu2   O41   S    
Cu7   O13   S    
Cu5   Cu8   S    
C38   H48   S    
C91   C180  S    
C45   O31   A    
C167  O3    A    
C12   H22   S    
C9    C135  A    
C116  C125  A    
C33   H43   S    
C118  C127  A    
Cu8   O14   S    
C117  C126  A    
C132  C141  A    
C46   H6    S    
C112  O8    A    
C26   H36   S    
C180  O34   A    
C108  C117  A    
C110  C119  A    
Cu11  O8    S    
Cu1   O18   S    
C100  H11   S    
Cu5   O2    S    
C173  O45   A    
Cu7   O4    S    
C17   H27   S    
C181  O26   A    
C28   C37   A    
C150  H17   S    
C148  C157  A    
C50   C65   A    
C51   C79   A    
C107  C116  A    
C104  C113  A    
C23   H33   S    
C177  O22   A    
C113  C121  A    
Cu10  O46   S    
C51   C60   A    
C140  C149  A    
C31   C113  A    
C123  O13   A    
C25   C33   A    
C43   O40   A    
C73   C74   A    
Cu4   O28   S    
Cu2   Cu12  S    
C107  C186  A    
C65   C76   A    
C6    H51   S    
C40   O37   A    
C169  C186  A    
C3    C172  A    
C47   O32   A    
C152  H19   S    
C8    H53   S    
C103  C111  A    
C28   H38   S    
Cu2   O32   S    
C104  C125  A    
C65   C67   A    
C68   H8    S    
C160  C169  A    
C40   O30   A    
C3    C137  A    
C93   C99   A    
C81   C89   A    
C8    C133  A    
C1    C161  S    
C21   C164  A    
C130  C139  A    
C179  O24   A    
C47   O43   A    
C33   C115  A    
C20   H30   S    
C34   H44   S    
Cu6   O3    S    
C112  C163  S    
C53   C57   A    
Cu3   Cu4   S    
C132  C185  A    
Cu3   O39   S    
C10   C19   A    
C96   H60   S    
C48   C102  A    
C46   C54   A    
Cu1   O1    S    
C27   C170  A    
C5    C14   A    
C18   H28   S    
C17   C121  A    
C143  C152  A    
C58   H58   S    
C15   C128  A    
C56   H59   S    
C107  C121  A    
C27   H37   S    
C79   H9    S    
Cu11  O26   S    
C101  O5    A    
C175  O47   A    
C115  C124  A    
C59   H56   S    
C78   C178  A    
C31   H41   S    
C106  C185  A    
C6    C131  A    
C4    C129  A    
C27   C36   A    
C21   C30   A    
C13   C83   A    
C153  C162  A    
C23   C32   A    
C154  H21   S    
C11   C137  A    
C136  C144  A    
C110  C122  A    
Cu11  O17   S    
C164  C182  A    
C123  O7    A    
C94   C176  S    
C21   H31   S    
C68   C80   A    
Cu3   O30   S    
C74   C178  A    
C103  C182  A    
C36   H46   S    
C108  C187  A    
C9    H54   S    
C35   C81   A    
C95   C98   A    
C92   C98   A    
C83   C92   A    
C14   C125  A    
C14   H24   S    
C10   C136  A    
Cu9   O15   S    
C66   C69   A    
Cu10  O16   S    
C34   C116  A    
Cu2   O42   S    
C159  C168  A    
C131  C184  A    
Cu11  O47   S    
C144  C153  A    
C6    C15   A    
C22   C165  A    
C35   H5    S    
C37   C118  A    
C26   C169  A    
C44   O35   A    
C54   C70   A    
C13   C86   A    
C44   C146  S    
C52   C68   A    
Cu10  O25   S    
C134  O2    A    
C156  O4    A    
C61   H34   S    
Cu8   O5    S    
C16   C127  A    
C26   C34   A    
C109  C188  A    
C19   C124  A    
C22   C31   A    
C129  C138  A    
C35   C55   A    
C154  C163  A    
C90   H10   S    
C123  C162  S    
C49   C58   A    
C89   C97   A    
C111  C120  A    
C114  C122  A    
C176  O21   A    
C163  C172  A    
C23   C166  A    
C53   C62   A    
C9    C18   A    
C28   C171  A    
Cu6   Cu11  S    
C13   C76   A    
C138  C147  A    
C55   C64   A    
Cu2   O33   S    
C41   C138  S    
C151  H18   S    
C62   H23   S    
C133  C186  A    
C161  C170  A    
Cu3   O36   S    
Cu6   O23   S    
C134  O14   A    
Cu12  O35   S    
C174  O44   A    
C148  H15   S    
C18   C120  A    
C145  O48   A    
Cu4   O37   S    
C48   C56   A    
C7    C16   A    
C168  C185  A    
C105  C128  A    
C42   C139  S    
C156  C159  S    
C53   C73   A    
C109  C124  A    
C155  C164  A    
C101  O10   A    
C57   H7    S    
C30   C111  A    
Cu7   O21   S    
C151  C160  A    
C24   C84   A    
C149  H16   S    
C49   C100  A    
C71   C75   A    
C94   C99   A    
C29   C172  A    
Cu9   O24   S    
C2    C80   A    
C87   C179  S    
C145  C155  S    
C158  C166  A    
C134  C157  S    
C22   H32   S    
C25   H35   S    
C39   O36   A    
Cu5   O12   S    
C70   C72   A    
Cu6   O11   S    
C32   C114  A    
C29   H39   S    
C42   O28   A    
