data_mof_unit_57532.cif
_audit_creation_date              2012-12-10T17:49:34-0500
_audit_creation_method            fapswitch 2.2
_symmetry_space_group_name_H-M    P1
_symmetry_Int_Tables_number       1
_space_group_crystal_system       triclinic
_cell_length_a                    14.671253
_cell_length_b                    14.841836
_cell_length_c                    15.877779
_cell_angle_alpha                 76.404785
_cell_angle_beta                  102.542703
_cell_angle_gamma                 115.151046
_cell_volume                      3014.74176423

loop_
_atom_site_label
_atom_site_type_symbol
_atom_type_description
_atom_site_fract_x
_atom_site_fract_y
_atom_site_fract_z
_atom_type_partial_charge
C1    C     C_R   0.880292 0.312657 0.515358 0.800948
C2    C     C_3   0.125038 0.545077 0.064766 0.786589
C3    C     C_3   0.011699 0.509821 0.083594 0.031313
C4    C     C_3   0.969214 0.586700 0.023770 -0.512443
C5    C     C_3   0.971627 0.589345 0.925795 0.371816
C6    C     C_1   0.007186 0.506411 0.175609 0.041089
C7    C     C_1   0.003257 0.504431 0.824385 0.048470
C8    C     C_1   0.000798 0.502294 0.748884 -0.139049
C9    C     C_R   0.812982 0.205703 0.530448 -0.036131
C10   C     C_R   0.185536 0.794814 0.474387 -0.048888
C11   C     C_R   0.781066 0.035608 0.604269 -0.139924
C12   C     C_R   0.999812 0.500182 0.659580 0.818221
C13   C     C_R   0.848528 0.134516 0.582577 -0.212236
C14   C     C_R   0.710332 0.176696 0.497902 -0.207117
C15   C     C_R   0.639387 0.077777 0.520066 0.071916
C16   C     C_R   0.676174 0.005384 0.573785 0.133445
C17   C     C_R   0.533172 0.050302 0.492027 0.079936
C18   C     C_R   0.463902 0.951546 0.521856 0.064899
C19   C     C_R   0.503079 0.882490 0.576322 -0.310575
C20   C     C_R   0.606879 0.906173 0.598812 -0.005786
C21   C     C_R   0.493786 0.118369 0.434960 -0.217049
C22   C     C_R   0.390781 0.090511 0.407264 -0.235238
C23   C     C_R   0.119459 0.687383 0.486139 0.794560
C24   C     C_R   0.322640 0.993484 0.433614 0.161350
C25   C     C_R   0.357708 0.923288 0.492495 0.098684
C26   C     C_R   0.219699 0.964950 0.399024 -0.196250
C27   C     C_R   0.151855 0.865479 0.417788 -0.188670
C28   C     C_R   0.285173 0.825633 0.516141 -0.261779
C29   C     C_R   0.693907 0.627125 0.330178 -0.269630
C30   C     C_R   0.786009 0.618672 0.364935 0.062161
C31   C     C_R   0.716237 0.512195 0.491623 0.048054
C32   C     C_R   0.617901 0.511731 0.457381 -0.095391
C33   C     C_R   0.608993 0.573215 0.375312 0.079242
C34   C     C_R   0.000639 0.500417 0.340438 0.824180
C35   C     C_R   0.529456 0.455277 0.502287 -0.042495
C36   C     C_R   0.441478 0.477886 0.471547 0.008239
C37   C     C_R   0.432338 0.528932 0.385383 -0.279855
C38   C     C_R   0.515232 0.578993 0.338574 0.464357
C39   C     C_R   0.522630 0.373429 0.572425 -0.027965
C40   C     C_R   0.441606 0.334586 0.623691 -0.009197
C41   C     C_R   0.362391 0.370296 0.600492 -0.007747
C42   C     C_R   0.362318 0.443581 0.525058 -0.088362
C43   C     C_R   0.281299 0.332315 0.650585 -0.308880
C44   C     C_R   0.202298 0.365329 0.625892 0.003209
C45   C     C_3   0.117265 0.528174 0.967553 -0.349441
C46   C     C_R   0.284508 0.482838 0.508675 0.640519
C47   C     C_3   0.934712 0.402962 0.959594 -0.442810
C48   C     C_3   0.948277 0.400683 0.059448 0.310548
C49   C     C_1   0.003520 0.503185 0.250982 -0.181046
C50   C     C_3   0.007203 0.507241 0.916980 0.000911
Cu1   Cu    Cu3+1 0.081750 0.475690 0.522550 0.983897
Cu2   Cu    Cu3+1 0.918250 0.524310 0.477450 0.953067
H1    H     H_    0.891829 0.570973 0.035242 0.193096
H2    H     H_    0.303476 0.770320 0.565258 0.144295
H3    H     H_    0.074077 0.843271 0.386048 0.153133
H4    H     H_    0.364602 0.144781 0.362526 0.146666
H5    H     H_    0.812051 0.985114 0.648472 0.185002
H6    H     H_    0.927955 0.156067 0.609466 0.152886
H7    H     H_    0.688224 0.234679 0.457145 0.136832
H8    H     H_    0.130359 0.458628 0.971185 0.174306
H9    H     H_    0.454724 0.806884 0.600703 0.128972
H10   H     H_    0.539927 0.193757 0.407706 0.134852
H11   H     H_    0.192696 0.018454 0.354080 0.139186
H12   H     H_    0.138756 0.332190 0.662973 0.149479
H13   H     H_    0.688922 0.673898 0.267168 0.183088
H14   H     H_    0.849472 0.655969 0.327702 0.123803
H15   H     H_    0.731131 0.473434 0.556099 0.150774
H16   H     H_    0.855091 0.386938 0.928894 0.246114
H17   H     H_    0.359950 0.529036 0.352055 0.205902
H18   H     H_    0.276725 0.275602 0.708320 0.146566
H19   H     H_    0.952958 0.341964 0.947262 0.153521
H20   H     H_    0.997949 0.358486 0.087613 0.153814
H21   H     H_    0.029036 0.664087 0.900091 0.069707
H22   H     H_    0.014974 0.663639 0.040209 0.175935
N1    N     N_R   0.795410 0.560790 0.443550 -0.181058
N2    N     N_R   0.204590 0.439170 0.556520 -0.211494
O1    O     O_R   0.977910 0.338120 0.529720 -0.594127
O2    O     O_R   0.839850 0.379180 0.491640 -0.587874
O3    O     O_R   0.069060 0.479460 0.639610 -0.583217
O4    O     O_R   0.931000 0.520530 0.601530 -0.569191
O5    O     O_R   0.160150 0.620820 0.508360 -0.544721
O6    O     O_R   0.022090 0.661880 0.470280 -0.589661
O7    O     O_R   0.069000 0.479470 0.398470 -0.533374
O8    O     O_R   0.930940 0.520540 0.360390 -0.594959
O9    O     O_3   0.171216 0.483703 0.125755 -0.640705
C51   C     C_3   0.272824 0.508647 0.114338 -0.236855
H23   H     H_    0.312748 0.484677 0.177546 0.197698
H24   H     H_    0.316619 0.590642 0.094838 0.219689
H25   H     H_    0.274544 0.466360 0.066058 0.172900
C52   C     C_2   0.198379 0.613595 0.917701 0.414006
H26   H     H_    0.200024 0.689380 0.903655 0.097575
O10   O     O_2   0.262355 0.597835 0.892445 -0.552886
O11   O     O_3   0.182058 0.650411 0.069483 -0.626649
C53   C     C_3   0.207898 0.675085 0.154840 -0.303432
H27   H     H_    0.218516 0.614838 0.207459 0.211872
H28   H     H_    0.150102 0.697250 0.168846 0.158848
H29   H     H_    0.280918 0.741893 0.157028 0.175061
C54   C     C_2   0.637633 0.822790 0.647958 0.313918
H30   H     H_    0.589917 0.764459 0.693781 0.086498
O12   O     O_2   0.711735 0.814155 0.633605 -0.557972
O13   O     O_3   0.503174 0.629327 0.254315 -0.596578
C55   C     C_3   0.491281 0.717758 0.257929 -0.352828
H31   H     H_    0.556117 0.766524 0.300003 0.174192
H32   H     H_    0.418213 0.699873 0.280958 0.170321
H33   H     H_    0.489782 0.761519 0.190959 0.199756
O14   O     O_3   0.290189 0.568142 0.448132 -0.584806
C56   C     C_3   0.366313 0.653186 0.482359 -0.331410
H34   H     H_    0.443795 0.659089 0.480510 0.168538
H35   H     H_    0.358444 0.652212 0.550721 0.159935
H36   H     H_    0.359336 0.722006 0.441077 0.194865
C57   C     C_2   0.437069 0.253787 0.700317 0.460837
H37   H     H_    0.371493 0.182531 0.703126 0.032372
O15   O     O_2   0.504551 0.268333 0.762299 -0.481071
C58   C     C_2   0.583736 0.313276 0.576882 0.339621
H38   H     H_    0.606223 0.310424 0.517259 0.054284
O16   O     O_2   0.611618 0.268884 0.645560 -0.488129
O17   O     O_3   0.857944 0.339650 0.098614 -0.562402
C59   C     C_3   0.783547 0.380718 0.079838 -0.230263
H39   H     H_    0.773573 0.416646 0.010887 0.186955
H40   H     H_    0.799605 0.433592 0.125393 0.154985
H41   H     H_    0.709399 0.318267 0.092005 0.184783
O18   O     O_3   0.873360 0.571586 0.877976 -0.563254
C60   C     C_3   0.860214 0.663097 0.846978 -0.272962
H42   H     H_    0.910034 0.710545 0.795999 0.168728
H43   H     H_    0.874808 0.705410 0.901096 0.144130
H44   H     H_    0.780333 0.645758 0.816405 0.213916

loop_
_geom_bond_atom_site_label_1
_geom_bond_atom_site_label_2
_ccdc_geom_bond_type
C10   C27   A    
C45   H8    S    
O11   C53   S    
C23   O6    A    
C37   H17   S    
C4    H1    S    
C1    O1    A    
C41   C42   A    
C36   C42   A    
C19   C20   A    
C9    C14   A    
C3    C6    S    
C46   N2    A    
C58   H38   S    
C7    C8    T    
C31   C32   A    
O9    C51   S    
C44   H12   S    
C25   C28   A    
C31   H15   S    
C14   H7    S    
C26   C27   A    
O13   C55   S    
C2    O9    S    
C36   C37   A    
C37   C38   A    
C24   C26   A    
C38   O13   S    
C55   H32   S    
C51   H24   S    
C60   H43   S    
O14   C56   S    
C15   C16   A    
C12   O3    A    
C29   C33   A    
C3    C48   S    
C55   H33   S    
C44   N2    A    
C18   C19   A    
C42   C46   A    
Cu2   O8    S    
C9    C13   A    
C59   H39   S    
C31   N1    A    
C57   H37   S    
C56   H34   S    
C40   C57   S    
Cu1   O5    S    
C4    H22   S    
C16   C20   A    
C53   H28   S    
Cu2   N1    S    
C21   C22   A    
C1    O2    A    
C56   H35   S    
C55   H31   S    
C18   C25   A    
C34   O8    A    
C48   H20   S    
Cu2   O2    S    
C47   C50   S    
Cu1   O3    S    
C2    C45   S    
Cu1   Cu2   S    
C32   C35   A    
C60   H42   S    
C1    C9    S    
C24   C25   A    
C39   C40   A    
C28   H2    S    
C51   H23   S    
C60   H44   S    
C22   H4    S    
C13   H6    S    
C53   H29   S    
C5    O18   S    
C17   C21   A    
C59   H41   S    
C35   C39   A    
C26   H11   S    
Cu1   O1    S    
C29   C30   A    
C11   C16   A    
C52   O10   D    
C47   C48   S    
C8    C12   S    
C39   C58   S    
C17   C18   A    
C57   O15   D    
Cu1   N2    S    
Cu2   O6    S    
C45   C52   S    
C47   H19   S    
C21   H10   S    
C30   H14   S    
C29   H13   S    
C40   C41   A    
C43   H18   S    
C54   O12   D    
C43   C44   A    
C56   H36   S    
C22   C24   A    
C5    C50   S    
C34   O7    A    
C3    C4    S    
Cu1   O7    S    
C47   H16   S    
C10   C28   A    
C15   C17   A    
C34   C49   S    
C23   O5    A    
C2    O11   S    
C41   C43   A    
C7    C50   S    
C4    C5    S    
C51   H25   S    
C58   O16   D    
C48   O17   S    
C10   C23   S    
C33   C38   A    
C32   C33   A    
C2    C3    S    
C11   H5    S    
O17   C59   S    
C30   N1    A    
C11   C13   A    
C52   H26   S    
C45   C50   S    
C19   H9    S    
C12   O4    A    
C27   H3    S    
C6    C49   T    
C5    H21   S    
C53   H27   S    
C59   H40   S    
C46   O14   S    
C20   C54   S    
C54   H30   S    
C14   C15   A    
C35   C36   A    
O18   C60   S    
Cu2   O4    S    
