data_mof_unit_5299.cif
_audit_creation_date              2012-12-10T18:35:25-0500
_audit_creation_method            fapswitch 2.2
_symmetry_space_group_name_H-M    P1
_symmetry_Int_Tables_number       1
_space_group_crystal_system       triclinic
_cell_length_a                    15.113231
_cell_length_b                    13.81002
_cell_length_c                    10.661609
_cell_angle_alpha                 90.00777
_cell_angle_beta                  89.840388
_cell_angle_gamma                 90.001145
_cell_volume                      2225.21864413

loop_
_atom_site_label
_atom_site_type_symbol
_atom_type_description
_atom_site_fract_x
_atom_site_fract_y
_atom_site_fract_z
_atom_type_partial_charge
C1    C     C_R   0.329656 0.500006 0.503316 0.893794
C2    C     C_R   0.670345 0.500010 0.496683 0.893764
C3    C     C_R   0.047983 0.500282 0.519522 -0.072724
C4    C     C_R   0.952016 0.500309 0.480476 -0.072720
C5    C     C_R   0.577640 0.106818 0.473388 0.306439
C6    C     C_R   0.462696 0.892513 0.399887 0.302095
C7    C     C_R   0.422406 0.106830 0.526666 0.306465
C8    C     C_R   0.537361 0.892509 0.600155 0.301911
C9    C     C_R   0.576064 0.208669 0.475029 0.038983
C10   C     C_R   0.462618 0.790682 0.402810 0.056299
C11   C     C_R   0.423948 0.208684 0.525013 0.038918
C12   C     C_R   0.537420 0.790672 0.597187 0.056367
C13   C     C_R   0.500031 0.054098 0.500056 -0.002838
C14   C     C_R   0.500019 0.945205 0.500038 0.033848
C15   C     C_R   0.513788 0.500139 0.262057 0.870928
C16   C     C_R   0.486220 0.500151 0.737946 0.870917
C17   C     C_R   0.557055 0.678278 0.103330 0.382282
C18   C     C_R   0.441473 0.324208 0.898572 0.405595
C19   C     C_R   0.443165 0.678353 0.896737 0.382274
C20   C     C_R   0.558319 0.324117 0.101382 0.405673
C21   C     C_R   0.530426 0.765521 0.049069 -0.177438
C22   C     C_R   0.468714 0.236786 0.951921 -0.178186
C23   C     C_R   0.469912 0.765562 0.950999 -0.177513
C24   C     C_R   0.530955 0.236737 0.048007 -0.178115
C25   C     C_R   0.477819 0.589388 0.941862 -0.061349
C26   C     C_R   0.522624 0.412718 0.057581 -0.062984
C27   C     C_R   0.522301 0.589359 0.058174 -0.061346
C28   C     C_R   0.477290 0.412752 0.942397 -0.062936
C29   C     C_R   0.469676 0.500842 0.875759 -0.070874
C30   C     C_R   0.530342 0.500800 0.124247 -0.070903
C31   C     C_R   0.095488 0.587016 0.542005 0.421818
C32   C     C_R   0.904659 0.413538 0.457632 0.425988
C33   C     C_R   0.904516 0.587072 0.458237 0.421787
C34   C     C_R   0.095335 0.413479 0.542125 0.425971
C35   C     C_R   0.187253 0.587339 0.529874 -0.149337
C36   C     C_R   0.812906 0.412991 0.469728 -0.151963
C37   C     C_R   0.812752 0.587377 0.470363 -0.149300
C38   C     C_R   0.187088 0.412949 0.530030 -0.151891
C39   C     C_R   0.233116 0.500078 0.514605 -0.187385
C40   C     C_R   0.766884 0.500095 0.485393 -0.187390
Cu1   Cu    Cu3+1 0.500000 0.596430 0.500000 1.037899
Cu2   Cu    Cu3+1 0.500000 0.403570 0.500000 1.027452
H1    H     H_    0.556868 0.168657 0.082387 0.224825
H2    H     H_    0.444810 0.833726 0.915709 0.234503
H3    H     H_    0.442710 0.168747 0.917517 0.224795
H4    H     H_    0.555607 0.833651 0.084376 0.234501
H5    H     H_    0.222823 0.654911 0.540935 0.231491
H6    H     H_    0.777524 0.345383 0.458365 0.215659
H7    H     H_    0.777186 0.654965 0.459496 0.231442
H8    H     H_    0.222463 0.345321 0.541195 0.215603
H9    H     H_    0.636529 0.247186 0.455343 0.201853
H10   H     H_    0.432810 0.751004 0.326389 0.168387
H11   H     H_    0.363498 0.247212 0.544683 0.201880
H12   H     H_    0.567234 0.750981 0.673580 0.168359
N1    N     N_R   0.500000 0.258690 0.500000 -0.230134
N2    N     N_R   0.500000 0.741310 0.500000 -0.212635
O1    O     O_R   0.371460 0.581430 0.500010 -0.560377
O2    O     O_R   0.628540 0.418570 0.499990 -0.587104
O3    O     O_R   0.628540 0.581430 0.499990 -0.560390
O4    O     O_R   0.371460 0.418570 0.500010 -0.587100
O5    O     O_R   0.499990 0.581440 0.319660 -0.576642
O6    O     O_R   0.500010 0.418560 0.680340 -0.555249
O7    O     O_R   0.500010 0.581440 0.680340 -0.576636
O8    O     O_R   0.499990 0.418560 0.319660 -0.555201
Cl1   Cl    Cl    0.644913 0.683040 0.211983 -0.528366
Cl2   Cl    Cl    0.350893 0.321358 0.794859 -0.557773
Cl3   Cl    Cl    0.355271 0.683226 0.788150 -0.528318
Cl4   Cl    Cl    0.648894 0.321115 0.205096 -0.557732
Cl5   Cl    Cl    0.048972 0.685249 0.625263 -0.392568
Cl6   Cl    Cl    0.951412 0.315440 0.374365 -0.392047
Cl7   Cl    Cl    0.951037 0.685440 0.375285 -0.392512
Cl8   Cl    Cl    0.048573 0.315258 0.625114 -0.391987
Cl9   Cl    Cl    0.677493 0.047855 0.435426 -0.417657
Cl10  Cl    Cl    0.417008 0.951499 0.268788 -0.527621
Cl11  Cl    Cl    0.322575 0.047881 0.564375 -0.417901
Cl12  Cl    Cl    0.583133 0.951491 0.731254 -0.527628

loop_
_geom_bond_atom_site_label_1
_geom_bond_atom_site_label_2
_ccdc_geom_bond_type
Cu2   O8    S    
Cu1   Cu2   S    
C19   C23   A    
C9    H9    S    
Cu1   O5    S    
C10   H10   S    
Cu2   O2    S    
C7    C11   A    
C32   C36   A    
C28   C29   A    
C37   C40   A    
C38   C39   A    
C8    Cl12  S    
C20   C24   A    
C15   O8    A    
C19   Cl3   S    
C9    N1    A    
C16   O7    A    
C10   N2    A    
Cu2   O6    S    
C5    C13   A    
C11   H11   S    
C35   H5    S    
C34   C38   A    
C13   C14   S    
C27   C30   A    
C16   O6    A    
C6    Cl10  S    
C25   C29   A    
C17   C27   A    
C36   C40   A    
C18   C28   A    
Cu1   O3    S    
C1    O4    A    
Cu2   O4    S    
C33   Cl7   S    
C2    O3    A    
C7    Cl11  S    
C3    C34   A    
C16   C29   S    
C33   C37   A    
C23   H2    S    
C35   C39   A    
Cu1   N2    S    
C5    C9    A    
C1    O1    A    
Cu2   N1    S    
C6    C14   A    
C37   H7    S    
C31   Cl5   S    
C8    C12   A    
C15   O5    A    
C12   N2    A    
C3    C31   A    
C4    C32   A    
C26   C30   A    
C21   C23   A    
C31   C35   A    
C25   C27   A    
Cu1   O7    S    
C3    C4    S    
C34   Cl8   S    
C11   N1    A    
C15   C30   S    
C21   H4    S    
C4    C33   A    
C8    C14   A    
C18   C22   A    
C17   Cl1   S    
C20   Cl4   S    
C6    C10   A    
C32   Cl6   S    
C2    O2    A    
C38   H8    S    
C18   Cl2   S    
C26   C28   A    
Cu1   O1    S    
C20   C26   A    
C36   H6    S    
C22   C24   A    
C5    Cl9   S    
C19   C25   A    
C17   C21   A    
C1    C39   S    
C2    C40   S    
C7    C13   A    
C22   H3    S    
C24   H1    S    
C12   H12   S    
