data_mof_unit_9984.cif
_audit_creation_date              2012-12-10T18:38:02-0500
_audit_creation_method            fapswitch 2.2
_symmetry_space_group_name_H-M    P1
_symmetry_Int_Tables_number       1
_space_group_crystal_system       triclinic
_cell_length_a                    14.804736
_cell_length_b                    15.478412
_cell_length_c                    27.709752
_cell_angle_alpha                 89.940865
_cell_angle_beta                  103.521666
_cell_angle_gamma                 81.647142
_cell_volume                      6104.25451677

loop_
_atom_site_label
_atom_site_type_symbol
_atom_type_description
_atom_site_fract_x
_atom_site_fract_y
_atom_site_fract_z
_atom_type_partial_charge
C1    C     C_R   0.441363 0.662441 0.491909 0.866620
C2    C     C_R   0.558732 0.337638 0.505865 0.871031
C3    C     C_R   0.490637 0.508285 0.897519 -0.053621
C4    C     C_R   0.487122 0.509002 0.100877 -0.050755
C5    C     C_R   0.493017 0.586412 0.872064 -0.042363
C6    C     C_R   0.473035 0.433396 0.124728 -0.030452
C7    C     C_R   0.493219 0.664558 0.897084 -0.138416
C8    C     C_R   0.457773 0.358747 0.097717 -0.136503
C9    C     C_R   0.489999 0.429712 0.871958 -0.018170
C10   C     C_R   0.501758 0.584323 0.128335 -0.028209
C11   C     C_R   0.499161 0.502158 0.646536 -0.101511
C12   C     C_R   0.497025 0.502671 0.353748 -0.064532
C13   C     C_R   0.497862 0.586862 0.025813 0.044642
C14   C     C_R   0.482855 0.429942 0.972992 0.044430
C15   C     C_R   0.476405 0.431408 0.023184 0.044423
C16   C     C_R   0.493567 0.587811 0.974182 0.044158
C17   C     C_R   0.487001 0.509137 0.049737 0.073963
C18   C     C_R   0.488958 0.508698 0.948427 0.073102
C19   C     C_R   0.513851 0.660897 0.054706 -0.211612
C20   C     C_R   0.484683 0.351878 0.946496 -0.216311
C21   C     C_R   0.515644 0.659481 0.104960 -0.146112
C22   C     C_R   0.488030 0.351988 0.896929 -0.140910
C23   C     C_R   0.499960 0.500423 0.593885 0.902412
C24   C     C_R   0.499583 0.500134 0.406316 0.890867
C25   C     C_R   0.493326 0.665469 0.947138 -0.211270
C26   C     C_R   0.459166 0.357651 0.047880 -0.213070
C27   C     C_R   0.406975 0.754978 0.479518 -0.058752
C28   C     C_R   0.594278 0.245204 0.502606 -0.056916
C29   C     C_R   0.287063 0.872964 0.439496 -0.203237
C30   C     C_R   0.720309 0.123902 0.510263 -0.200237
C31   C     C_R   0.313556 0.785425 0.455489 -0.215490
C32   C     C_R   0.690502 0.212814 0.514145 -0.206114
C33   C     C_R   0.473297 0.811987 0.486930 -0.249114
C34   C     C_R   0.528903 0.189269 0.485121 -0.255873
C35   C     C_R   0.450272 0.897527 0.467665 0.092171
C36   C     C_R   0.557010 0.100700 0.479651 0.093975
C37   C     C_R   0.354801 0.929467 0.445778 0.177944
C38   C     C_R   0.654075 0.067257 0.494447 0.174168
C39   C     C_R   0.519511 0.953018 0.472142 0.066397
C40   C     C_R   0.490058 0.043732 0.463785 0.071189
C41   C     C_R   0.394670 0.074234 0.440689 -0.222928
C42   C     C_R   0.617010 0.920882 0.484722 -0.225436
C43   C     C_R   0.328544 0.017320 0.430946 -0.234899
C44   C     C_R   0.683237 0.977564 0.494621 -0.229313
C45   C     C_R   0.494331 0.584527 0.821752 0.569895
C46   C     C_R   0.474052 0.434477 0.175310 0.535936
C47   C     C_R   0.830103 0.658392 0.559979 -0.269977
C48   C     C_R   0.156997 0.369531 0.420473 -0.261736
C49   C     C_R   0.747289 0.623731 0.555972 -0.012035
C50   C     C_R   0.248860 0.385122 0.437890 -0.000875
C51   C     C_R   0.796260 0.512275 0.505131 -0.010672
C52   C     C_R   0.200061 0.495701 0.489388 -0.018647
C53   C     C_R   0.876659 0.549889 0.503207 -0.042923
C54   C     C_R   0.104684 0.488703 0.469666 -0.041727
C55   C     C_R   0.895291 0.622392 0.533136 0.032211
C56   C     C_R   0.083827 0.421313 0.436192 0.032160
C57   C     C_R   0.940484 0.515834 0.474284 -0.037440
C58   C     C_R   0.030499 0.542674 0.484497 -0.038295
C59   C     C_R   0.039368 0.626020 0.505409 0.031816
C60   C     C_R   0.916948 0.461745 0.432875 0.026797
C61   C     C_R   0.975783 0.660931 0.533740 0.407553
C62   C     C_R   0.990195 0.408887 0.417282 0.410417
C63   C     C_R   0.492214 0.430658 0.821799 0.487405
C64   C     C_R   0.503314 0.582223 0.178993 0.545232
C65   C     C_R   0.579419 0.515566 0.732563 0.530832
C66   C     C_R   0.415556 0.551562 0.269516 0.541464
C67   C     C_R   0.580164 0.514791 0.682298 -0.321613
C68   C     C_R   0.417927 0.547191 0.320355 -0.349841
C69   C     C_R   0.416807 0.491909 0.661373 -0.219911
C70   C     C_R   0.572353 0.459346 0.336655 -0.231556
C71   C     C_R   0.415405 0.494375 0.711245 -0.182759
C72   C     C_R   0.569677 0.461582 0.286300 -0.194279
C73   C     C_R   0.496212 0.506540 0.746772 0.221736
C74   C     C_R   0.491513 0.507138 0.252849 0.247437
H1    H     H_    0.353263 0.482509 0.634500 0.167815
H2    H     H_    0.631593 0.421722 0.362046 0.150321
H3    H     H_    0.455257 0.215114 0.478010 0.157918
H4    H     H_    0.543320 0.788791 0.508540 0.156959
H5    H     H_    0.742256 0.255658 0.526867 0.152265
H6    H     H_    0.261933 0.741479 0.448571 0.166179
H7    H     H_    0.214141 0.896226 0.421830 0.136052
H8    H     H_    0.794786 0.099108 0.520731 0.137709
H9    H     H_    0.369872 0.141561 0.428468 0.143247
H10   H     H_    0.643904 0.852009 0.486018 0.156171
H11   H     H_    0.221482 0.537526 0.519652 0.114035
H12   H     H_    0.784098 0.450830 0.488857 0.113150
H13   H     H_    0.304910 0.348368 0.424081 0.135133
H14   H     H_    0.693994 0.654875 0.573774 0.139270
H15   H     H_    0.840889 0.715011 0.582339 0.189287
H16   H     H_    0.143523 0.318773 0.394013 0.188422
H17   H     H_    0.351539 0.486818 0.722432 0.157618
H18   H     H_    0.627913 0.427416 0.273079 0.161540
H19   H     H_    0.493362 0.725713 0.878057 0.189044
H20   H     H_    0.444854 0.300421 0.115035 0.189171
H21   H     H_    0.358762 0.578282 0.333942 0.152958
H22   H     H_    0.644118 0.523576 0.671529 0.176750
H23   H     H_    0.528289 0.717815 0.125483 0.187791
H24   H     H_    0.489166 0.290511 0.878251 0.189581
H25   H     H_    0.527728 0.720686 0.039971 0.142788
H26   H     H_    0.485957 0.288790 0.963259 0.143250
H27   H     H_    0.491177 0.728788 0.963240 0.142275
H28   H     H_    0.444449 0.298229 0.029529 0.142824
H29   H     H_    0.256158 0.042733 0.413248 0.145447
H30   H     H_    0.757272 0.950849 0.504667 0.160802
N1    N     N_R   0.494243 0.507338 0.797955 -0.341176
N2    N     N_R   0.489422 0.508054 0.201175 -0.334081
N3    N     N_R   0.731710 0.552720 0.528410 -0.101906
N4    N     N_R   0.268290 0.447280 0.471590 -0.100323
O1    O     O_R   0.383110 0.605620 0.485680 -0.621604
O2    O     O_R   0.616890 0.394380 0.514320 -0.623851
O3    O     O_R   0.531900 0.639510 0.503910 -0.620550
O4    O     O_R   0.468100 0.360490 0.496090 -0.621741
O5    O     O_R   0.425620 0.483050 0.562130 -0.621852
O6    O     O_R   0.574380 0.516950 0.437870 -0.613871
O7    O     O_R   0.574410 0.516930 0.580360 -0.620278
O8    O     O_R   0.425590 0.483070 0.419640 -0.613072
O9    O     O_2   0.495342 0.659059 0.796670 -0.544416
O10   O     O_2   0.459698 0.362793 0.198570 -0.556760
O11   O     O_2   0.519153 0.653332 0.206034 -0.584031
O12   O     O_2   0.492823 0.355628 0.796990 -0.576749
Zn1   Zn    Zn3+2 0.400660 0.477380 0.487830 0.942105
Zn2   Zn    Zn3+2 0.599340 0.522620 0.512170 0.938978
O13   O     O_3   0.987116 0.737874 0.558341 -0.623854
C75   C     C_3   0.056364 0.718518 0.603080 0.055974
H31   H     H_    0.125551 0.691193 0.595720 0.139235
H32   H     H_    0.035214 0.671146 0.627127 0.143955
C76   C     C_3   0.067888 0.802114 0.631119 -0.793921
H33   H     H_    0.000277 0.830491 0.639646 0.254429
H34   H     H_    0.122100 0.787727 0.666468 0.213337
H35   H     H_    0.090160 0.850341 0.608300 0.254559
O14   O     O_3   0.970103 0.348841 0.380752 -0.615934
C77   C     C_3   0.951357 0.273126 0.402755 0.054083
H36   H     H_    0.888614 0.287957 0.418715 0.136322
H37   H     H_    0.013020 0.244145 0.432518 0.139595
C78   C     C_3   0.931537 0.205665 0.363332 -0.795334
H38   H     H_    0.993424 0.188404 0.347132 0.254428
H39   H     H_    0.916751 0.145735 0.380215 0.205196
H40   H     H_    0.869572 0.232293 0.333375 0.259320
C79   C     C_3   0.095885 0.688623 0.486785 -0.376304
C80   C     C_3   0.065418 0.701783 0.430250 -0.843666
H41   H     H_    0.089422 0.642045 0.411839 0.266976
H42   H     H_    0.987682 0.717717 0.418057 0.266467
H43   H     H_    0.096327 0.756805 0.418157 0.232693
H44   H     H_    0.084275 0.754293 0.502281 0.247873
H45   H     H_    0.172490 0.668488 0.498420 0.184263
C81   C     C_3   0.819231 0.473819 0.397705 -0.381495
C82   C     C_3   0.782867 0.569669 0.381714 -0.792280
H46   H     H_    0.765790 0.607975 0.413035 0.264316
H47   H     H_    0.836180 0.598935 0.367430 0.257909
H48   H     H_    0.717763 0.574182 0.351659 0.255347
H49   H     H_    0.820282 0.438621 0.362905 0.247265
H50   H     H_    0.767916 0.445101 0.413137 0.178547
O15   O     O_3   0.337574 0.592351 0.234793 -0.606408
C83   C     C_3   0.313158 0.679864 0.247106 0.104540
H51   H     H_    0.376216 0.712083 0.262031 0.162508
H52   H     H_    0.269328 0.682484 0.274779 0.138048
C84   C     C_3   0.255810 0.731485 0.200544 -0.765235
H53   H     H_    0.191168 0.702541 0.185057 0.256489
H54   H     H_    0.235471 0.800327 0.209681 0.201408
H55   H     H_    0.298043 0.730387 0.172206 0.265502
O16   O     O_3   0.658373 0.529624 0.767792 -0.593445
C85   C     C_3   0.718671 0.449310 0.779830 0.068023
H56   H     H_    0.747069 0.426233 0.747490 0.141331
H57   H     H_    0.681657 0.398305 0.791809 0.163961
C86   C     C_3   0.800650 0.461833 0.822607 -0.776835
H58   H     H_    0.774307 0.483952 0.855609 0.259423
H59   H     H_    0.848801 0.399078 0.832399 0.205165
H60   H     H_    0.840111 0.511469 0.811771 0.259660

loop_
_geom_bond_atom_site_label_1
_geom_bond_atom_site_label_2
_ccdc_geom_bond_type
C78   H40   S    
C66   C68   A    
C30   C38   A    
C24   O6    A    
C86   H58   S    
C22   H24   S    
O2    Zn2   S    
C47   H15   S    
C14   C18   A    
C82   H46   S    
C80   H43   S    
N4    Zn1   S    
O1    Zn1   S    
C71   H17   S    
O16   C85   S    
C44   H30   S    
C65   C73   A    
O13   C75   S    
C47   C49   A    
C27   C33   A    
C29   H7    S    
C12   C68   A    
C2    O4    A    
C84   H53   S    
C64   O11   S    
C60   C81   S    
C75   H32   S    
C52   H11   S    
C82   H47   S    
C80   H42   S    
C85   H56   S    
C34   H3    S    
C72   H18   S    
C9    C22   A    
C74   N2    S    
C41   H9    S    
C55   C61   A    
C71   C73   A    
C8    C26   A    
C46   O10   S    
C3    C18   A    
C60   C62   A    
C69   C71   A    
C1    O1    A    
C65   O16   S    
C79   H45   S    
C11   C67   A    
C77   H36   S    
C65   C67   A    
C59   C79   S    
C63   N1    A    
C78   H38   S    
C83   H52   S    
C48   C50   A    
C28   C34   A    
C86   H59   S    
O7    Zn2   S    
C48   H16   S    
O3    Zn2   S    
C50   N4    A    
C41   C43   A    
C49   H14   S    
C42   C44   A    
C51   N3    A    
C51   H12   S    
C45   N1    A    
C52   C54   A    
C39   C42   A    
C85   H57   S    
C53   C55   A    
C10   C21   A    
C7    H19   S    
C54   C56   A    
C59   C61   A    
C68   H21   S    
C70   C72   A    
O8    Zn1   S    
C13   C19   A    
C27   C31   A    
C14   C20   A    
C36   C40   A    
C82   H48   S    
C8    H20   S    
C80   H41   S    
C83   C84   S    
C31   H6    S    
C39   C40   A    
C5    C7    A    
C19   H25   S    
C15   C26   A    
C6    C8    A    
C58   C59   A    
C5    C45   A    
C51   C53   A    
C30   H8    S    
C35   C39   A    
C76   H34   S    
C38   C44   A    
C3    C9    A    
C23   O5    A    
C85   C86   S    
C21   H23   S    
C79   H44   S    
C73   N1    S    
C20   H26   S    
C28   C32   A    
C42   H10   S    
C83   H51   S    
C50   H13   S    
C75   C76   S    
C81   H50   S    
C4    C17   A    
C72   C74   A    
C40   C41   A    
C20   C22   A    
C24   O8    A    
C86   H60   S    
C70   H2    S    
C67   H22   S    
C78   H39   S    
C56   C62   A    
C37   C43   A    
C4    C6    A    
C49   N3    A    
C4    C10   A    
O14   C77   S    
C47   C55   A    
C81   C82   S    
C54   C58   A    
C45   O9    S    
C16   C25   A    
C48   C56   A    
C12   C70   A    
C2    O2    A    
C53   C57   A    
C6    C46   A    
C35   C37   A    
C9    C63   A    
C62   O14   S    
C10   C64   A    
C3    C5    A    
C66   O15   S    
C84   H54   S    
C79   C80   S    
C11   C69   A    
C64   N2    A    
C84   H55   S    
C12   C24   S    
C7    C25   A    
C13   C17   A    
C61   O13   S    
C36   C38   A    
C76   H35   S    
O4    Zn1   S    
C29   C31   A    
C26   H28   S    
C32   H5    S    
C30   C32   A    
C63   O12   S    
C25   H27   S    
C57   C58   A    
C77   C78   S    
C77   H37   S    
C46   N2    A    
C11   C23   S    
C33   C35   A    
C69   H1    S    
C34   C36   A    
C33   H4    S    
C43   H29   S    
C23   O7    A    
C81   H49   S    
O6    Zn2   S    
C57   C60   A    
O5    Zn1   S    
C52   N4    A    
C16   C18   A    
C13   C16   A    
C29   C37   A    
C1    C27   S    
C14   C15   A    
C2    C28   S    
N3    Zn2   S    
O15   C83   S    
C15   C17   A    
C1    O3    A    
C76   H33   S    
C75   H31   S    
C19   C21   A    
C66   C74   A    
