data_mof_unit_11692.cif
_audit_creation_date              2012-10-26T19:01:01-0400
_audit_creation_method            fapswitch 2.2
_symmetry_space_group_name_H-M    P1
_symmetry_Int_Tables_number       1
_space_group_crystal_system       triclinic
_cell_length_a                    11.045791
_cell_length_b                    17.738778
_cell_length_c                    16.445202
_cell_angle_alpha                 90.478602
_cell_angle_beta                  102.785353
_cell_angle_gamma                 89.95105
_cell_volume                      3142.24975713

loop_
_atom_site_label
_atom_site_type_symbol
_atom_type_description
_atom_site_fract_x
_atom_site_fract_y
_atom_site_fract_z
_atom_type_partial_charge
C1    C     C_R   0.503649 0.355304 0.500008 0.546177
C2    C     C_R   0.405833 0.465004 0.243622 0.046209
C3    C     C_R   0.406897 0.465759 0.729723 0.038597
C4    C     C_R   0.593098 0.534246 0.270277 0.038600
C5    C     C_R   0.405625 0.466579 0.815191 -0.162774
C6    C     C_R   0.594374 0.533423 0.184809 -0.162768
C7    C     C_R   0.501406 0.502006 0.873343 0.012663
C8    C     C_R   0.498603 0.497985 0.126659 0.012659
C9    C     C_1   0.500301 0.500449 0.962815 -0.027960
C10   C     C_1   0.499708 0.499540 0.037187 -0.027957
C11   C     C_R   0.262293 0.499982 0.466425 0.558274
C12   C     C_R   0.496343 0.644696 0.499991 0.546165
C13   C     C_R   0.737707 0.500020 0.533575 0.558289
C14   C     C_2   0.127460 0.500832 0.447145 -0.139011
C15   C     C_2   0.872540 0.499175 0.552856 -0.139000
C16   C     C_2   0.067209 0.498484 0.508978 -0.172704
C17   C     C_2   0.932791 0.501533 0.491023 -0.172698
C18   C     C_R   0.443279 0.847910 0.561313 -0.008168
C19   C     C_R   0.556676 0.152094 0.438671 -0.008174
C20   C     C_R   0.440443 0.768224 0.560798 -0.034576
C21   C     C_R   0.559555 0.231778 0.439209 -0.034574
C22   C     C_R   0.490647 0.727722 0.500868 -0.009531
C23   C     C_R   0.495111 0.885702 0.502095 0.015825
C24   C     C_R   0.509313 0.272279 0.499121 -0.009524
C25   C     C_R   0.539280 0.767201 0.441797 -0.153766
C26   C     C_R   0.460595 0.232799 0.558152 -0.153771
C27   C     C_R   0.541798 0.845450 0.442617 -0.137605
C28   C     C_R   0.458029 0.154550 0.557306 -0.137615
C29   C     C_R   0.390064 0.891770 0.622381 0.036915
C30   C     C_R   0.467963 0.934004 0.685500 -0.098424
C31   C     C_R   0.417683 0.975573 0.742656 -0.120749
C32   C     C_R   0.289596 0.975131 0.737227 -0.107132
C33   C     C_R   0.211555 0.933184 0.674557 -0.110578
C34   C     C_R   0.504755 0.114301 0.497843 0.015821
C35   C     C_R   0.261440 0.891687 0.617156 -0.085236
C36   C     C_R   0.609955 0.108239 0.377635 0.036936
C37   C     C_R   0.738611 0.108235 0.382992 -0.085242
C38   C     C_R   0.788562 0.066737 0.325624 -0.110577
C39   C     C_R   0.710553 0.024883 0.262849 -0.107123
C40   C     C_R   0.582431 0.024531 0.257287 -0.120734
C41   C     C_R   0.532086 0.066096 0.314415 -0.098420
C42   C     C_R   0.384030 0.728348 0.622360 0.054026
C43   C     C_R   0.444567 0.727771 0.706995 -0.070207
C44   C     C_R   0.391423 0.690147 0.764871 -0.100404
C45   C     C_1   0.498616 0.966274 0.500361 -0.020609
C46   C     C_R   0.277748 0.653022 0.738711 -0.097576
C47   C     C_R   0.216828 0.653614 0.654624 -0.100442
C48   C     C_R   0.269770 0.690969 0.596439 -0.067419
C49   C     C_R   0.616058 0.271655 0.377692 0.054053
C50   C     C_R   0.730347 0.308992 0.403667 -0.067448
C51   C     C_R   0.783367 0.346354 0.345525 -0.100460
C52   C     C_R   0.722495 0.346999 0.261431 -0.097578
C53   C     C_R   0.608792 0.309917 0.235217 -0.100374
C54   C     C_R   0.555571 0.272282 0.293049 -0.070172
C55   C     C_R   0.706041 0.572519 0.900224 0.017195
C56   C     C_1   0.501224 0.033729 0.499559 -0.020602
C57   C     C_R   0.688643 0.628593 0.957495 -0.091118
C58   C     C_R   0.790909 0.661425 0.011635 -0.118370
C59   C     C_R   0.911212 0.639106 0.008635 -0.107770
C60   C     C_R   0.929508 0.584111 0.951258 -0.116790
C61   C     C_R   0.827525 0.550936 0.897192 -0.109191
C62   C     C_R   0.293991 0.427449 0.099780 0.017193
C63   C     C_R   0.172498 0.449024 0.102797 -0.109189
C64   C     C_R   0.070531 0.415833 0.048732 -0.116789
C65   C     C_R   0.088852 0.360829 0.991371 -0.107771
C66   C     C_R   0.209165 0.338517 0.988388 -0.118368
C67   C     C_R   0.598338 0.536506 0.843147 -0.030086
C68   C     C_R   0.311415 0.371366 0.042526 -0.091117
C69   C     C_R   0.401678 0.463479 0.156855 -0.030103
C70   C     C_R   0.594176 0.534986 0.756380 0.046234
Cu1   Cu    Cu3+1 0.499990 0.499980 0.580420 0.935779
Cu2   Cu    Cu3+1 0.500010 0.500020 0.419580 0.935784
H1    H     H_    0.882729 0.505602 0.426341 0.147441
H2    H     H_    0.419002 0.125229 0.603153 0.123885
H3    H     H_    0.666789 0.562494 0.732955 0.123385
H4    H     H_    0.333226 0.437491 0.267047 0.123384
H5    H     H_    0.332722 0.437535 0.686231 0.116070
H6    H     H_    0.667267 0.562477 0.313768 0.116072
H7    H     H_    0.567363 0.934576 0.690374 0.103684
H8    H     H_    0.478009 0.008100 0.791178 0.101625
H9    H     H_    0.250818 0.007313 0.781545 0.102108
H10   H     H_    0.112381 0.932942 0.670361 0.104121
H11   H     H_    0.200075 0.859689 0.568588 0.101838
H12   H     H_    0.117271 0.494419 0.573660 0.147428
H13   H     H_    0.799950 0.140163 0.431639 0.101823
H14   H     H_    0.887765 0.066909 0.329925 0.104126
H15   H     H_    0.749380 0.992703 0.218554 0.102114
H16   H     H_    0.522127 0.992078 0.208683 0.101620
H17   H     H_    0.432662 0.065592 0.309439 0.103657
H18   H     H_    0.532884 0.756163 0.727897 0.100080
H19   H     H_    0.438435 0.689649 0.829978 0.100446
H20   H     H_    0.236885 0.623809 0.783601 0.103825
H21   H     H_    0.128411 0.625308 0.634616 0.101492
H22   H     H_    0.221928 0.690958 0.531401 0.092725
H23   H     H_    0.330338 0.439048 0.835839 0.099973
H24   H     H_    0.778150 0.308965 0.468713 0.092706
H25   H     H_    0.871808 0.374627 0.365575 0.101537
H26   H     H_    0.763417 0.376220 0.216574 0.103803
H27   H     H_    0.561815 0.310456 0.170103 0.100451
H28   H     H_    0.467232 0.243925 0.272106 0.100054
H29   H     H_    0.596146 0.647080 0.960131 0.100821
H30   H     H_    0.776860 0.704291 0.055848 0.098537
H31   H     H_    0.990257 0.664539 0.050631 0.104322
H32   H     H_    0.022743 0.566940 0.948896 0.115209
H33   H     H_    0.843251 0.507836 0.853639 0.097472
H34   H     H_    0.669656 0.560959 0.164160 0.099971
H35   H     H_    0.156754 0.492131 0.146337 0.097477
H36   H     H_    0.977288 0.432999 0.051081 0.115213
H37   H     H_    0.009819 0.335382 0.949376 0.104320
H38   H     H_    0.223233 0.295644 0.944188 0.098538
H39   H     H_    0.403920 0.352885 0.039904 0.100823
H40   H     H_    0.922703 0.495959 0.617556 0.090250
H41   H     H_    0.077297 0.504045 0.382444 0.090255
H42   H     H_    0.577867 0.737369 0.395644 0.126056
H43   H     H_    0.421976 0.262632 0.604291 0.126037
H44   H     H_    0.580761 0.874770 0.396739 0.123884
N1    N     N_R   0.499970 0.499970 0.701210 -0.219841
N2    N     N_R   0.500030 0.500030 0.298790 -0.219845
O1    O     O_R   0.499990 0.391240 0.567930 -0.503075
O2    O     O_R   0.500010 0.608760 0.432070 -0.503082
O3    O     O_R   0.500000 0.391270 0.432120 -0.485413
O4    O     O_R   0.500000 0.608730 0.567880 -0.485408
O5    O     O_R   0.320680 0.500000 0.542950 -0.501597
O6    O     O_R   0.679320 0.500000 0.457050 -0.501575
O7    O     O_R   0.320690 0.500030 0.407130 -0.508934
O8    O     O_R   0.679310 0.499970 0.592870 -0.508939

loop_
_geom_bond_atom_site_label_1
_geom_bond_atom_site_label_2
_ccdc_geom_bond_type
C51   H25   S    
C41   H17   S    
C34   C56   S    
C23   C45   S    
Cu2   O3    S    
Cu1   O4    S    
C66   C68   A    
C39   H15   S    
C28   H2    S    
C21   C49   S    
C2    N2    A    
C31   H8    S    
C53   C54   A    
C53   H27   S    
C32   H9    S    
C8    C69   A    
C37   C38   A    
C48   H22   S    
C38   H14   S    
C37   H13   S    
C36   C37   A    
C11   O7    A    
C24   C26   A    
C19   C36   S    
C30   C31   A    
C11   C14   S    
C46   H20   S    
C70   N1    A    
C49   C54   A    
C12   C22   S    
C16   H12   S    
C15   C17   D    
C1    O1    A    
C26   H43   S    
C3    N1    A    
C33   C35   A    
C12   O2    A    
C47   C48   A    
C45   C56   T    
C16   C17   S    
C22   C25   A    
Cu1   O8    S    
C58   H30   S    
C23   C27   A    
C2    C69   A    
C61   H33   S    
C9    C10   T    
C27   H44   S    
C28   C34   A    
C59   C60   A    
Cu2   O6    S    
C17   H1    S    
C4    N2    A    
C36   C41   A    
C5    H23   S    
C44   C46   A    
C64   H36   S    
C47   H21   S    
C43   H18   S    
Cu1   N1    S    
C18   C23   A    
C4    C6    A    
C39   C40   A    
C5    C7    A    
C13   O6    A    
C35   H11   S    
C6    C8    A    
C58   C59   A    
C7    C67   A    
C51   C52   A    
C62   C69   S    
C60   C61   A    
C68   H39   S    
C43   C44   A    
C4    H6    S    
C62   C63   A    
C55   C67   S    
C31   C32   A    
Cu2   O2    S    
C50   C51   A    
C6    H34   S    
C18   C29   S    
C42   C48   A    
C66   H38   S    
C65   H37   S    
C44   H19   S    
C30   H7    S    
C40   C41   A    
C20   C22   A    
C49   C50   A    
C55   C57   A    
C14   C16   D    
C42   C43   A    
C13   O8    A    
C63   H35   S    
C3    H5    S    
C2    H4    S    
C52   C53   A    
C33   H10   S    
Cu1   O5    S    
C7    C9    S    
C46   C47   A    
C19   C21   A    
C15   H40   S    
C11   O5    A    
C3    C5    A    
C19   C34   A    
C20   C42   S    
Cu1   O1    S    
C25   C27   A    
C14   H41   S    
C57   H29   S    
C29   C35   A    
C26   C28   A    
C62   C68   A    
Cu2   O7    S    
C67   C70   A    
C59   H31   S    
C64   C65   A    
C40   H16   S    
C13   C15   S    
Cu1   Cu2   S    
C25   H42   S    
C32   C33   A    
C50   H24   S    
C57   C58   A    
C38   C39   A    
C55   C61   A    
C52   H26   S    
C54   H28   S    
C18   C20   A    
C1    O3    A    
C29   C30   A    
C63   C64   A    
C12   O4    A    
C1    C24   S    
C8    C10   S    
C65   C66   A    
C21   C24   A    
Cu2   N2    S    
C70   H3    S    
C60   H32   S    
