data_mof_unit_59082.cif
_audit_creation_date              2012-12-10T17:48:46-0500
_audit_creation_method            fapswitch 2.2
_symmetry_space_group_name_H-M    P1
_symmetry_Int_Tables_number       1
_space_group_crystal_system       triclinic
_cell_length_a                    15.745275
_cell_length_b                    10.720367
_cell_length_c                    10.044622
_cell_angle_alpha                 91.929657
_cell_angle_beta                  88.246792
_cell_angle_gamma                 96.209666
_cell_volume                      1683.95963234

loop_
_atom_site_label
_atom_site_type_symbol
_atom_type_description
_atom_site_fract_x
_atom_site_fract_y
_atom_site_fract_z
_atom_type_partial_charge
C1    C     C_R   0.485782 0.260446 0.498610 1.022356
C2    C     C_R   0.269460 0.019195 0.669296 0.537573
C3    C     C_R   0.287081 0.903899 0.710801 0.515060
C4    C     C_R   0.339411 0.506258 0.502072 0.930585
C5    C     C_R   0.358113 0.851353 0.658962 0.414670
C6    C     C_R   0.419757 0.921474 0.575399 -0.189607
C7    C     C_R   0.408477 0.047842 0.551091 -0.221508
C8    C     C_R   0.478605 0.125232 0.493123 -0.165535
C9    C     C_R   0.553656 0.075974 0.451628 0.593669
C10   C     C_R   0.560731 0.950443 0.463050 0.058608
C11   C     C_R   0.492187 0.871812 0.514920 -0.134985
C12   C     C_3   0.959251 0.644103 0.566297 0.590471
C13   C     C_R   0.368011 0.356257 0.137305 0.486507
C14   C     C_R   0.295123 0.305911 0.072604 0.435842
C15   C     C_R   0.293287 0.308712 0.936301 0.420054
C16   C     C_R   0.497538 0.739230 0.503576 0.920487
C17   C     C_R   0.364789 0.359587 0.864934 0.488096
C18   C     C_R   0.433709 0.432227 0.928715 -0.204443
C19   C     C_R   0.434237 0.431872 0.072161 -0.168519
C20   C     C_R   0.563545 0.564108 0.067999 0.115356
C21   C     C_R   0.562676 0.564873 0.926455 0.674153
C22   C     C_R   0.661520 0.502070 0.498220 0.899078
C23   C     C_3   0.919134 0.519566 0.494788 -0.530443
C24   C     C_3   0.059432 0.651036 0.553389 0.466088
C25   C     C_3   0.039974 0.413759 0.595177 0.646702
C26   C     C_3   0.941497 0.405367 0.576062 0.995832
C27   C     C_1   0.751095 0.509555 0.494472 -0.033746
C28   C     C_3   0.084944 0.518699 0.502441 -0.529035
C29   C     C_3   0.958067 0.511165 0.348922 0.513575
C30   C     C_3   0.053236 0.485032 0.356107 0.543185
C31   C     C_1   0.826941 0.515902 0.493152 0.265570
C32   C     C_1   0.176216 0.517165 0.506134 0.250228
C33   C     C_1   0.251203 0.513939 0.506148 -0.050352
C34   C     C_R   0.326997 0.088245 0.584120 0.099229
F1    F     F_    0.935781 0.639695 0.700599 -0.526197
F2    F     F_    0.368734 0.318741 0.738394 -0.624375
F3    F     F_    0.626505 0.632165 0.857866 -0.600265
F4    F     F_    0.067890 0.298407 0.559580 -0.496659
F5    F     F_    0.898062 0.402421 0.698447 -0.562212
F6    F     F_    0.914139 0.293841 0.508758 -0.539535
F7    F     F_    0.058366 0.358260 0.329314 -0.518560
F8    F     F_    0.954297 0.624403 0.288202 -0.631365
F9    F     F_    0.622481 0.152468 0.406530 -0.617262
F10   F     F_    0.191675 0.057196 0.701171 -0.467279
F11   F     F_    0.230681 0.837027 0.793000 -0.489037
F12   F     F_    0.365547 0.734444 0.698941 -0.609593
F13   F     F_    0.092299 0.679895 0.678301 -0.517975
F14   F     F_    0.378872 0.309821 0.255195 -0.601055
F15   F     F_    0.230629 0.239408 0.140650 -0.497190
F16   F     F_    0.226241 0.246913 0.871918 -0.498959
I1    I     I_    0.123400 0.806686 0.441718 -0.016619
I2    I     I_    0.905343 0.811590 0.507253 0.142382
I3    I     I_    0.886818 0.374435 0.217958 0.170807
I4    I     I_    0.265093 0.204939 0.465789 0.138553
I5    I     I_    0.683641 0.891404 0.431038 -0.052640
I6    I     I_    0.672374 0.663916 0.152005 -0.029227
I7    I     I_    0.073592 0.434302 0.803816 0.269996
I8    I     I_    0.131026 0.566094 0.191692 0.004667
N1    N     N_R   0.499210 0.498800 0.142780 -0.110580
N2    N     N_R   0.499180 0.498720 0.857170 -0.115341
O1    O     O_R   0.500000 0.316780 0.614690 -0.565817
O2    O     O_R   0.499990 0.316750 0.385360 -0.515386
O3    O     O_R   0.377150 0.500020 0.614720 -0.506898
O4    O     O_R   0.377140 0.499990 0.385380 -0.590940
O5    O     O_R   0.500010 0.683250 0.614640 -0.526142
O6    O     O_R   0.500000 0.683220 0.385310 -0.630782
O7    O     O_R   0.622860 0.500010 0.614620 -0.549171
O8    O     O_R   0.622850 0.499980 0.385280 -0.603157
Zn1   Zn    Zn3+2 0.500010 0.500020 0.653130 1.150354
Zn2   Zn    Zn3+2 0.499990 0.499980 0.346870 1.078659

loop_
_geom_bond_atom_site_label_1
_geom_bond_atom_site_label_2
_ccdc_geom_bond_type
C13   F14   S    
C30   F7    S    
C34   I4    S    
C29   C30   S    
C17   F2    S    
O4    Zn2   S    
C25   F4    S    
C1    C8    S    
C9    C10   A    
C4    O4    A    
C12   C23   S    
C20   I6    S    
C22   O8    A    
C32   C33   T    
C2    C34   A    
C24   I1    S    
C28   C30   S    
C17   C18   A    
C3    C5    A    
C7    C8    A    
C13   C14   A    
C1    O2    A    
C20   N1    A    
C10   I5    S    
O7    Zn1   S    
C4    O3    A    
C26   F6    S    
O6    Zn2   S    
C26   F5    S    
C29   I3    S    
N2    Zn1   S    
O5    Zn1   S    
C23   C29   S    
C18   N2    A    
C12   I2    S    
C2    C3    A    
C6    C7    A    
C22   C27   S    
O3    Zn1   S    
C5    C6    A    
C29   F8    S    
C7    C34   A    
C22   O7    A    
C9    F9    S    
C14   F15   S    
C16   O6    A    
C10   C11   A    
C13   C19   A    
N1    Zn2   S    
C25   C28   S    
C23   C31   S    
C25   I7    S    
C30   I8    S    
C28   C32   S    
C21   F3    S    
C20   C21   A    
O2    Zn2   S    
C21   N2    A    
O8    Zn2   S    
C18   C19   A    
C5    F12   S    
C15   F16   S    
O1    Zn1   S    
C6    C11   A    
C23   C26   S    
C4    C33   S    
C12   C24   S    
C14   C15   A    
C16   O5    A    
C19   N1    A    
C25   C26   S    
C15   C17   A    
C24   F13   S    
C27   C31   T    
C3    F11   S    
C11   C16   S    
C24   C28   S    
C2    F10   S    
C8    C9    A    
C12   F1    S    
C1    O1    A    
