data_mof_unit_17368.cif
_audit_creation_date              2012-12-10T17:01:35-0500
_audit_creation_method            fapswitch 2.2
_symmetry_space_group_name_H-M    P1
_symmetry_Int_Tables_number       1
_space_group_crystal_system       triclinic
_cell_length_a                    12.889726
_cell_length_b                    10.676373
_cell_length_c                    10.010224
_cell_angle_alpha                 88.275194
_cell_angle_beta                  96.753146
_cell_angle_gamma                 90.22014
_cell_volume                      1367.38480761

loop_
_atom_site_label
_atom_site_type_symbol
_atom_type_description
_atom_site_fract_x
_atom_site_fract_y
_atom_site_fract_z
_atom_type_partial_charge
C1    C     C_R   0.492460 0.262241 0.501091 0.911296
C2    C     C_2   0.460220 0.133008 0.502945 0.039518
C3    C     C_2   0.567412 0.562070 0.933100 -0.136676
C4    C     C_R   0.298223 0.499239 0.474053 0.867747
C5    C     C_2   0.563169 0.568197 0.082335 -0.098909
C6    C     C_R   0.499617 0.737620 0.497675 0.922409
C7    C     C_R   0.701650 0.505211 0.525767 0.937634
C8    C     C_R   0.813651 0.515636 0.541879 -0.230268
C9    C     C_R   0.186293 0.504722 0.458925 -0.057789
C10   C     C_R   0.023864 0.553959 0.325379 -0.177323
C11   C     C_R   0.130579 0.536458 0.334381 -0.227254
C12   C     C_R   0.028892 0.500972 0.565657 -0.002265
C13   C     C_R   0.135561 0.484957 0.573179 -0.209663
C14   C     C_3   0.827533 0.739057 0.307211 0.033231
C15   C     C_3   0.741638 0.810494 0.366097 -0.341122
C16   C     C_3   0.758917 0.951825 0.357038 -0.955117
C17   C     C_3   0.486186 0.075899 0.746479 -0.753785
C18   C     C_3   0.023919 0.540335 0.898415 0.074197
C19   C     C_3   0.102142 0.646942 0.882603 -0.366564
C20   C     C_3   0.086721 0.752958 0.977180 -0.969547
C21   C     C_3   0.278673 0.838220 0.320128 -0.746488
C22   C     C_R   0.972595 0.538602 0.440860 0.004096
C23   C     C_R   0.865433 0.557694 0.433192 0.425950
C24   C     C_R   0.869344 0.480476 0.665579 -0.396278
C25   C     C_R   0.977759 0.480541 0.680717 0.490325
C26   C     C_2   0.444403 0.935233 0.390114 0.247815
C27   C     C_2   0.500541 0.870346 0.490425 -0.374859
C28   C     C_2   0.455297 0.070095 0.388244 -0.331778
H1    H     H_    0.629108 0.613871 0.891050 0.157559
H2    H     H_    0.470680 0.115046 0.293727 0.164923
H3    H     H_    0.824829 0.765984 0.198774 0.157176
H4    H     H_    0.905806 0.768908 0.355690 0.136332
H5    H     H_    0.664999 0.788172 0.309353 0.239740
H6    H     H_    0.740167 0.781300 0.473332 0.200982
H7    H     H_    0.834579 0.977219 0.414811 0.267612
H8    H     H_    0.695179 0.000781 0.399973 0.266970
H9    H     H_    0.758750 0.983732 0.250364 0.265539
H10   H     H_    0.362744 0.012689 0.606834 0.243417
H11   H     H_    0.491458 0.977578 0.786274 0.222484
H12   H     H_    0.439072 0.458182 0.889988 0.162012
H13   H     H_    0.452842 0.134425 0.820652 0.249004
H14   H     H_    0.566595 0.108990 0.734737 0.239357
H15   H     H_    0.042248 0.496553 0.000507 0.166360
H16   H     H_    0.943043 0.578079 0.894154 0.134140
H17   H     H_    0.183011 0.609891 0.904833 0.225478
H18   H     H_    0.091921 0.685535 0.777571 0.220909
H19   H     H_    0.008847 0.796900 0.949791 0.265251
H20   H     H_    0.147855 0.825455 0.969129 0.273295
H21   H     H_    0.092325 0.716828 0.082763 0.251965
H22   H     H_    0.373724 0.926844 0.194332 0.218497
H23   H     H_    0.617104 0.631176 0.137989 0.178362
H24   H     H_    0.236889 0.785250 0.236703 0.234356
H25   H     H_    0.231596 0.921800 0.337942 0.227152
H26   H     H_    0.286966 0.776376 0.411927 0.233369
H27   H     H_    0.454164 0.436342 0.097239 0.158357
H28   H     H_    0.829027 0.450783 0.750218 0.197700
H29   H     H_    0.981848 0.579017 0.228205 0.162044
H30   H     H_    0.169673 0.550588 0.245089 0.162608
H31   H     H_    0.179563 0.457566 0.668514 0.200302
H32   H     H_    0.551779 0.916211 0.567840 0.149578
N1    N     N_2   0.501130 0.501330 0.852280 -0.192110
N2    N     N_2   0.501160 0.501360 0.147950 -0.192312
N3    N     N_2   0.418529 0.082190 0.619994 -0.298198
N4    N     N_2   0.379876 0.876402 0.284445 -0.269042
O1    O     O_R   0.499980 0.319060 0.613040 -0.592470
O2    O     O_3   0.033411 0.446397 0.803504 -0.648235
O3    O     O_R   0.500020 0.319100 0.386900 -0.635780
O4    O     O_R   0.346340 0.499960 0.594380 -0.627870
O5    O     O_R   0.346380 0.500000 0.368250 -0.615197
O6    O     O_R   0.499980 0.680900 0.613100 -0.618935
O7    O     O_R   0.500020 0.680940 0.386960 -0.590452
O8    O     O_R   0.653620 0.500000 0.631750 -0.634697
O9    O     O_R   0.653660 0.500040 0.405620 -0.559142
O10   O     O_3   0.810027 0.607921 0.316556 -0.635670
Zn1   Zn    Zn3+2 0.499980 0.499970 0.650990 0.936823
Zn2   Zn    Zn3+2 0.500020 0.500030 0.349010 0.961925

loop_
_geom_bond_atom_site_label_1
_geom_bond_atom_site_label_2
_ccdc_geom_bond_type
C1    O1    A    
C24   C25   A    
C19   H17   S    
C20   H21   S    
C13   H31   S    
C18   H16   S    
C18   O2    S    
C11   H30   S    
H22   N4    S    
C16   H9    S    
C15   H6    S    
C26   C28   S    
C19   C20   S    
O1    Zn1   S    
C6    C27   S    
C12   C25   A    
C1    C2    S    
C10   C22   A    
C2    C28   D    
C8    C23   A    
C28   H2    S    
C19   H18   S    
C7    C8    S    
C7    O9    A    
C18   H15   S    
C17   N3    S    
O4    Zn1   S    
C21   H25   S    
C12   C13   A    
C9    C11   A    
N2    Zn2   S    
C26   C27   D    
C20   H20   S    
O8    Zn1   S    
C16   H8    S    
C14   O10   S    
C4    O5    A    
C8    C24   A    
C5    N2    D    
C18   C19   S    
C27   H32   S    
C3    N1    D    
C16   H7    S    
C21   H26   S    
O9    Zn2   S    
C17   H13   S    
C20   H19   S    
C24   H28   S    
C10   C11   A    
C25   O2    S    
C23   O10   S    
C15   C16   S    
H27   N2    S    
C12   C22   A    
O7    Zn2   S    
O6    Zn1   S    
C10   H29   S    
C2    N3    S    
O5    Zn2   S    
C6    O6    A    
H10   N3    S    
C17   H11   S    
C7    O8    A    
C3    H1    S    
C14   H3    S    
C9    C13   A    
C22   C23   A    
C5    H23   S    
C21   N4    S    
C26   N4    S    
O3    Zn2   S    
C1    O3    A    
C4    C9    S    
C17   H14   S    
C4    O4    A    
C15   H5    S    
C21   H24   S    
N1    Zn1   S    
H12   N1    S    
C14   C15   S    
C14   H4    S    
C6    O7    A    
C3    C5    S    
