data_mof_unit_43458.cif
_audit_creation_date              2012-12-11T17:08:24-0500
_audit_creation_method            fapswitch 2.2
_symmetry_space_group_name_H-M    P1
_symmetry_Int_Tables_number       1
_space_group_crystal_system       triclinic
_cell_length_a                    6.956246
_cell_length_b                    14.530137
_cell_length_c                    16.069788
_cell_angle_alpha                 90.01844
_cell_angle_beta                  90.023458
_cell_angle_gamma                 89.998072
_cell_volume                      1624.25693358

loop_
_atom_site_label
_atom_site_type_symbol
_atom_type_description
_atom_site_fract_x
_atom_site_fract_y
_atom_site_fract_z
_atom_type_partial_charge
O1    O     O_R   0.505700 0.583890 0.413310 -0.520201
O2    O     O_R   0.175960 0.594920 0.586080 -0.537282
O3    O     O_R   0.005660 0.416110 0.586690 -0.552301
C1    C     C_R   0.344316 0.615082 0.616197 0.762510
O4    O     O_R   0.175980 0.594920 0.413930 -0.507029
O5    O     O_R   0.005680 0.416110 0.413310 -0.544909
C2    C     C_R   0.344563 0.616312 0.384725 0.791949
O6    O     O_R   0.505680 0.583890 0.586690 -0.523174
O7    O     O_3   0.339200 0.441330 0.500000 -0.381737
V1    V     V_3+5 0.064350 0.510880 0.500000 1.642410
O8    O     O_R   0.675960 0.405080 0.413920 -0.517339
C3    C     C_R   0.844874 0.382863 0.385382 0.734646
O9    O     O_R   0.675940 0.405080 0.586070 -0.532007
C4    C     C_R   0.845143 0.380871 0.613042 0.686598
V2    V     V_3+5 0.564340 0.489120 0.500000 1.647085
O10   O     O_3   0.839360 0.558670 0.500000 -0.334831
C5    C     C_R   0.998459 0.318216 0.741845 0.056412
C6    C     C_R   0.854433 0.311513 0.680881 -0.252390
C7    C     C_R   0.713693 0.240955 0.690814 0.384947
C8    C     C_R   0.721050 0.182145 0.760485 -0.155898
H1    H     H_    0.613432 0.128658 0.766154 0.133393
C9    C     C_R   0.875282 0.185237 0.817218 -0.161355
C10   C     C_R   0.010474 0.255513 0.807329 0.031450
C11   C     C_3   0.223845 0.249000 0.801747 -0.409021
C12   C     C_3   0.211637 0.317184 0.730483 0.502498
H2    H     H_    0.273114 0.179608 0.781915 0.132756
H3    H     H_    0.296036 0.276884 0.858103 0.213239
H4    H     H_    0.255999 0.289687 0.669006 0.100112
C13   C     C_R   0.738837 0.255297 0.183661 -0.128182
C14   C     C_R   0.881796 0.187231 0.181636 -0.073442
C15   C     C_R   0.020999 0.188715 0.245332 -0.082991
H5    H     H_    0.132407 0.136924 0.246859 0.201254
C16   C     C_R   0.008694 0.252285 0.311438 -0.147235
H6    H     H_    0.111351 0.248116 0.361815 0.197961
C17   C     C_R   0.857129 0.316268 0.315798 -0.091070
C18   C     C_R   0.726649 0.318169 0.249444 -0.015401
C19   C     C_3   0.512685 0.313088 0.251322 0.792745
C20   C     C_3   0.525153 0.245638 0.178871 0.752218
C21   C     C_R   0.473328 0.758374 0.681385 -0.157499
C22   C     C_R   0.351005 0.681917 0.685921 -0.244833
C23   C     C_R   0.227147 0.676023 0.756843 0.355297
C24   C     C_R   0.238939 0.743058 0.820594 0.704984
C25   C     C_R   0.376345 0.814417 0.817745 -0.261056
C26   C     C_R   0.485881 0.822515 0.745311 -0.154602
C27   C     C_3   0.696161 0.837505 0.731689 0.836520
C28   C     C_3   0.683162 0.767396 0.660866 0.221109
H7    H     H_    0.708439 0.796558 0.597870 0.166498
C29   C     C_R   0.477936 0.759772 0.319430 -0.172914
C30   C     C_R   0.351412 0.684823 0.316426 -0.101550
C31   C     C_R   0.222530 0.680114 0.248169 0.454036
C32   C     C_R   0.234546 0.746305 0.182973 -0.160870
H8    H     H_    0.139085 0.740957 0.129904 0.181703
C33   C     C_R   0.376831 0.815422 0.183338 -0.070348
C34   C     C_R   0.491470 0.822570 0.254513 -0.141927
C35   C     C_3   0.703110 0.834320 0.265472 0.416126
C36   C     C_3   0.688208 0.765834 0.337023 1.068373
H9    H     H_    0.744861 0.905159 0.284305 0.056248
O11   O     O_R   0.229000 0.916070 0.913330 -0.515127
O12   O     O_R   0.558770 0.905070 0.086080 -0.510002
O13   O     O_R   0.729000 0.083900 0.086690 -0.526897
C37   C     C_R   0.389827 0.882907 0.114620 0.774548
O14   O     O_R   0.558720 0.905070 0.913930 -0.523986
O15   O     O_R   0.728960 0.083900 0.913310 -0.563362
C38   C     C_R   0.389721 0.882872 0.885535 0.777187
O16   O     O_R   0.229050 0.916070 0.086710 -0.535737
O17   O     O_3   0.395460 0.058650 0.000020 -0.392541
V3    V     V_3+5 0.670340 0.989120 0.000000 1.608715
O18   O     O_R   0.058670 0.094960 0.913900 -0.547733
C39   C     C_R   0.889528 0.116705 0.885064 0.696989
O19   O     O_R   0.058720 0.094960 0.086050 -0.533362
C40   C     C_R   0.889882 0.117152 0.114680 0.715530
V4    V     V_3+5 0.170330 0.010930 0.999970 1.569852
O20   O     O_3   0.895340 0.941350 0.999980 -0.331893
O21   O     O_3   0.576392 0.221823 0.631365 -0.644491
H10   H     H_    0.624390 0.242154 0.576408 0.294568
F1    F     F_    0.444850 0.275034 0.324638 -0.698140
O22   O     O_3   0.448843 0.280263 0.104425 -0.644172
H11   H     H_    0.479310 0.234107 0.060913 0.299533
F2    F     F_    0.461372 0.157783 0.197774 -0.690620
O23   O     O_3   0.101723 0.603782 0.770011 -0.576134
H12   H     H_    0.126766 0.554121 0.729579 0.335686
F3    F     F_    0.125201 0.733768 0.888793 -0.603980
F4    F     F_    0.809733 0.810370 0.798240 -0.638130
O24   O     O_3   0.737707 0.926464 0.703401 -0.655048
H13   H     H_    0.735938 0.966401 0.753453 0.279557
O25   O     O_3   0.789904 0.686611 0.675251 -0.602404
H14   H     H_    0.744920 0.658115 0.727955 0.352571
O26   O     O_3   0.095312 0.607341 0.243465 -0.600063
H15   H     H_    0.018121 0.613290 0.191856 0.341041
F5    F     F_    0.805074 0.800012 0.198348 -0.665115
F6    F     F_    0.726814 0.804364 0.413985 -0.715747
F7    F     F_    0.784259 0.683917 0.323345 -0.633912
F8    F     F_    0.294103 0.400957 0.750385 -0.670181
O27   O     O_3   0.427501 0.397750 0.231640 -0.633341
H16   H     H_    0.286740 0.386887 0.232606 0.314655

loop_
_geom_bond_atom_site_label_1
_geom_bond_atom_site_label_2
_ccdc_geom_bond_type
C35   C36   S    
C12   F8    S    
C23   C24   A    
C4    C6    S    
C7    C8    A    
C24   F3    S    
C11   H3    S    
C1    O6    A    
C23   O23   S    
C14   C40   S    
C27   C28   S    
C12   H4    S    
C29   C34   A    
C13   C18   A    
C5    C10   A    
O14   V3    S    
C18   C19   S    
C19   C20   S    
C11   H2    S    
C35   F5    S    
O5    C3    A    
C14   C15   A    
C20   F2    S    
V2    O10   S    
C5    C6    A    
C6    C7    A    
O14   C38   A    
O12   V3    S    
C34   C35   S    
O8    V2    S    
C36   F6    S    
O17   V4    S    
C1    C22   S    
O13   V3    S    
O18   C39   A    
C13   C20   S    
C10   C11   S    
C15   C16   A    
O19   C40   A    
V3    O20   S    
O7    V1    S    
C9    C39   S    
C31   O26   S    
O26   H15   S    
O17   V3    S    
O9    C4    A    
C27   F4    S    
C33   C37   S    
C25   C38   S    
C16   H6    S    
O11   C38   A    
O15   V3    S    
O12   C37   A    
O21   H10   S    
C32   H8    S    
O15   C39   A    
C11   C12   S    
C2    C30   S    
C21   C22   A    
O4    C2    A    
O25   H14   S    
V4    O20   S    
O13   C40   A    
O22   H11   S    
C32   C33   A    
C17   C18   A    
O2    C1    A    
C25   C26   A    
C13   C14   A    
C15   H5    S    
O18   V4    S    
C31   C32   A    
O24   H13   S    
C3    C17   S    
O3    C4    A    
C21   C28   S    
O1    V2    S    
C29   C30   A    
C19   F1    S    
C8    C9    A    
O6    V2    S    
C35   H9    S    
C27   O24   S    
C24   C25   A    
O2    V1    S    
C26   C27   S    
C29   C36   S    
C28   H7    S    
C22   C23   A    
O1    C2    A    
C7    O21   S    
O23   H12   S    
O5    V1    S    
O8    C3    A    
C33   C34   A    
C21   C26   A    
C20   O22   S    
O16   V4    S    
C5    C12   S    
O9    V2    S    
O7    V2    S    
O4    V1    S    
O3    V1    S    
V1    O10   S    
O11   V4    S    
C16   C17   A    
C19   O27   S    
O27   H16   S    
C37   O16   A    
C36   F7    S    
C8    H1    S    
C30   C31   A    
C9    C10   A    
O19   V4    S    
C28   O25   S    
