data_mof_unit_39905.cif
_audit_creation_date              2012-12-11T14:23:12-0500
_audit_creation_method            fapswitch 2.2
_symmetry_space_group_name_H-M    P1
_symmetry_Int_Tables_number       1
_space_group_crystal_system       triclinic
_cell_length_a                    11.394253
_cell_length_b                    11.205005
_cell_length_c                    18.854609
_cell_angle_alpha                 89.436373
_cell_angle_beta                  89.844326
_cell_angle_gamma                 59.352481
_cell_volume                      2070.86922343

loop_
_atom_site_label
_atom_site_type_symbol
_atom_type_description
_atom_site_fract_x
_atom_site_fract_y
_atom_site_fract_z
_atom_type_partial_charge
C1    C     C_R   0.241325 0.644321 0.610795 0.589481
C2    C     C_R   0.543816 0.273302 0.727050 -0.070394
C3    C     C_R   0.560099 0.260464 0.800445 -0.068047
C4    C     C_R   0.654080 0.619272 0.600626 0.565887
C5    C     C_R   0.910612 0.148449 0.814550 0.045439
C6    C     C_R   0.000145 0.160942 0.769925 0.340392
C7    C     C_R   0.990986 0.150666 0.696541 0.035771
C8    C     C_R   0.897515 0.119684 0.668831 -0.090667
C9    C     C_R   0.654336 0.201096 0.680990 0.071660
C10   C     C_R   0.190764 0.661260 0.838083 0.065156
C11   C     C_R   0.206806 0.543557 0.801315 0.008496
C12   C     C_3   0.822155 0.533706 0.786438 0.166974
C13   C     C_R   0.199229 0.548917 0.725570 -0.081129
C14   C     C_R   0.204535 0.763886 0.726870 0.294285
C15   C     C_R   0.201039 0.763332 0.800105 0.279203
C16   C     C_R   0.624084 0.235692 0.604649 0.526133
C17   C     C_R   0.233034 0.419813 0.837142 0.201044
C18   C     C_R   0.259661 0.303900 0.796763 -0.065618
C19   C     C_R   0.239512 0.315051 0.723711 0.208393
C20   C     C_R   0.194296 0.441293 0.690453 -0.079215
C21   C     C_R   0.202172 0.658015 0.687362 0.041699
C22   C     C_R   0.725345 0.690927 0.181172 -0.025821
C23   C     C_3   0.721859 0.689584 0.806832 -0.024997
C24   C     C_R   0.794365 0.553585 0.211621 0.075670
C25   C     C_R   0.733835 0.535017 0.271595 -0.009551
C26   C     C_R   0.618832 0.781957 0.294922 -0.130057
C27   C     C_R   0.642817 0.803133 0.224831 -0.180704
C28   C     C_R   0.218141 0.655404 0.402826 0.519471
C29   C     C_R   0.914693 0.432802 0.184622 0.262828
C30   C     C_R   0.944957 0.300217 0.206126 -0.103115
C31   C     C_R   0.863531 0.285600 0.255032 -0.120487
C32   C     C_R   0.755288 0.402245 0.285391 -0.079562
C33   C     C_R   0.657775 0.648372 0.317606 -0.005430
C34   C     C_3   0.682259 0.644152 0.674234 -0.061130
C35   C     C_R   0.670449 0.080754 0.185085 -0.003583
C36   C     C_R   0.535568 0.167015 0.212702 0.046168
C37   C     C_R   0.529977 0.238704 0.274349 -0.005396
C38   C     C_R   0.764434 0.066481 0.302249 -0.167092
C39   C     C_R   0.782746 0.025925 0.231588 -0.176177
C40   C     C_R   0.639317 0.619508 0.391175 0.519106
C41   C     C_R   0.406139 0.185329 0.187926 0.295165
C42   C     C_R   0.288333 0.270405 0.226279 -0.030325
C43   C     C_R   0.288502 0.354083 0.278566 -0.124000
C44   C     C_R   0.406160 0.355591 0.292410 -0.084106
C45   C     C_3   0.726909 0.753762 0.673974 0.068028
C46   C     C_R   0.640789 0.180536 0.322456 0.001297
C47   C     C_R   0.134000 0.672788 0.186914 0.056057
C48   C     C_R   0.221579 0.714307 0.214225 -0.025794
C49   C     C_R   0.198427 0.761789 0.283982 -0.055511
C50   C     C_R   0.063522 0.656611 0.307369 -0.192286
C51   C     C_R   0.049225 0.652562 0.234094 -0.160475
C52   C     C_R   0.615958 0.230846 0.395496 0.514885
C53   C     C_R   0.314095 0.731853 0.172101 0.191413
C54   C     C_R   0.355221 0.822680 0.194184 -0.039040
C55   C     C_R   0.301807 0.900376 0.255861 0.266107
C56   C     C_3   0.791841 0.504295 0.711837 0.473745
C57   C     C_R   0.218658 0.873654 0.300405 0.258183
C58   C     C_R   0.150770 0.698476 0.332801 -0.014335
C59   C     C_R   0.701381 0.105802 0.898087 0.587597
C60   C     C_R   0.750656 0.708580 0.882605 0.647358
C61   C     C_R   0.120141 0.704142 0.907305 0.670827
C62   C     C_R   0.697620 0.046653 0.110377 0.514854
C63   C     C_R   0.735642 0.714506 0.104980 0.538113
C64   C     C_3   0.570429 0.724236 0.797627 0.426469
C65   C     C_R   0.087333 0.710598 0.113892 0.586757
C66   C     C_3   0.548495 0.703190 0.718068 0.114024
C67   C     C_R   0.687236 0.179277 0.829943 0.068549
C68   C     C_3   0.750034 0.781726 0.752157 0.354173
C69   C     C_R   0.799222 0.146023 0.786240 0.051478
C70   C     C_R   0.786133 0.144166 0.710988 0.058719
Cl1   Cl    Cl    0.450956 0.902193 0.818330 -0.405050
Cl2   Cl    Cl    0.911154 0.762148 0.765516 -0.639877
Cl3   Cl    Cl    0.232329 0.891935 0.688776 -0.538311
Cl4   Cl    Cl    0.530893 0.626345 0.860287 -0.406338
Cl5   Cl    Cl    0.209008 0.896216 0.844424 -0.415643
Cl6   Cl    Cl    0.302507 0.167580 0.669866 -0.556893
Cl7   Cl    Cl    0.371184 0.089869 0.125560 -0.587755
Cl8   Cl    Cl    0.384944 0.638247 0.093387 -0.480354
Cl9   Cl    Cl    0.648912 0.960837 0.763501 -0.547431
Cr1   Cr    Cr6+3 0.392940 0.397950 0.502230 1.057594
Cr2   Cr    Cr6+3 0.398400 0.708500 0.501260 1.117293
Cr3   Cr    Cr6+3 0.708640 0.393530 0.496460 1.040468
Cr4   Cr    Cr6+3 0.937880 0.938320 0.007620 1.099541
Cr5   Cr    Cr6+3 0.625560 0.937220 0.994510 1.184277
Cr6   Cr    Cr6+3 0.938080 0.625010 0.001190 1.111863
H1    H     H_    0.446253 0.344473 0.705408 0.141912
H2    H     H_    0.033522 0.207875 0.186023 0.142901
H3    H     H_    0.891606 0.183222 0.272302 0.152114
H4    H     H_    0.688635 0.390942 0.320762 0.156762
H5    H     H_    0.848665 0.017064 0.339230 0.115958
H6    H     H_    0.883960 0.950707 0.213365 0.130726
H7    H     H_    0.197342 0.266037 0.218710 0.174292
H8    H     H_    0.201007 0.407154 0.312043 0.145793
H9    H     H_    0.404431 0.429805 0.328505 0.154018
H10   H     H_    0.010506 0.624005 0.343231 0.131904
H11   H     H_    0.969656 0.638401 0.214498 0.168277
H12   H     H_    0.919430 0.161409 0.870625 0.176279
H13   H     H_    0.482743 0.807192 0.694447 0.251132
H14   H     H_    0.423832 0.836976 0.160823 0.225200
H15   H     H_    0.641111 0.850592 0.649777 0.181362
H16   H     H_    0.928288 0.515204 0.787940 0.141719
H17   H     H_    0.955582 0.490779 0.670865 0.354488
H18   H     H_    0.811798 0.734797 0.581336 0.328327
H19   H     H_    0.180868 0.123203 0.771937 0.416893
H20   H     H_    0.280317 0.310816 0.924969 0.345692
H21   H     H_    0.068238 0.356006 0.119072 0.342748
H22   H     H_    0.510594 0.550931 0.739999 0.373975
H23   H     H_    0.476658 0.310125 0.835768 0.166951
H24   H     H_    0.296841 0.041116 0.318127 0.367930
H25   H     H_    0.070272 0.955754 0.368540 0.326692
H26   H     H_    0.903838 0.383392 0.857445 0.363760
H27   H     H_    0.710065 0.402141 0.672966 0.354280
H28   H     H_    0.060494 0.160204 0.661068 0.222158
H29   H     H_    0.903147 0.097640 0.612909 0.156574
H30   H     H_    0.305767 0.203002 0.822069 0.217116
H31   H     H_    0.165133 0.448074 0.635689 0.195579
H32   H     H_    0.564614 0.869282 0.330035 0.173965
H33   H     H_    0.594812 0.906310 0.204251 0.179027
O1    O     O_R   0.507340 0.255690 0.581430 -0.457805
O2    O     O_R   0.837290 0.593240 0.915240 -0.486261
O3    O     O_R   0.065320 0.635310 0.931580 -0.459050
O4    O     O_R   0.280360 0.527380 0.578910 -0.531291
O5    O     O_R   0.068470 0.828620 0.091850 -0.500557
O6    O     O_R   0.799150 0.057200 0.079350 -0.492522
O7    O     O_R   0.585220 0.080180 0.076770 -0.447390
O8    O     O_R   0.627170 0.809480 0.067050 -0.444761
O9    O     O_R   0.816200 0.596410 0.076500 -0.436929
O10   O     O_R   0.045770 0.638240 0.081070 -0.469416
O11   O     O_3   0.833840 0.833520 0.001110 -0.386221
O12   O     O_R   0.524510 0.695820 0.424050 -0.499102
O13   O     O_R   0.260600 0.739610 0.584580 -0.422080
O14   O     O_R   0.532370 0.695050 0.573830 -0.464029
O15   O     O_R   0.744850 0.503430 0.576380 -0.472678
O16   O     O_R   0.699080 0.276500 0.571950 -0.542269
O17   O     O_R   0.498860 0.256520 0.419860 -0.505834
O18   O     O_R   0.272490 0.528150 0.429140 -0.519479
O19   O     O_R   0.252110 0.740440 0.423010 -0.484574
O20   O     O_3   0.914461 0.432467 0.673527 -0.660777
O21   O     O_3   0.842584 0.715004 0.631519 -0.674044
O22   O     O_3   0.098024 0.179748 0.800006 -0.686346
O23   O     O_R   0.736370 0.504260 0.414810 -0.519236
O24   O     O_3   0.264361 0.402429 0.908749 -0.656516
O25   O     O_3   0.009904 0.444309 0.144343 -0.686459
O26   O     O_3   0.481207 0.628621 0.706227 -0.683057
O27   O     O_3   0.332253 0.001610 0.270763 -0.711785
O28   O     O_3   0.147837 0.966652 0.353894 -0.695048
O29   O     O_3   0.813165 0.441424 0.834866 -0.593085
O30   O     O_3   0.739723 0.415584 0.719438 -0.649131
O31   O     O_R   0.691220 0.277270 0.422180 -0.523268
O32   O     O_3   0.499990 0.499990 0.499980 -0.297471
O33   O     O_R   0.089570 0.825450 0.930590 -0.432520
O34   O     O_R   0.818700 0.054260 0.929860 -0.517364
O35   O     O_R   0.606310 0.077010 0.915520 -0.452018
O36   O     O_R   0.646730 0.806540 0.917560 -0.382522

loop_
_geom_bond_atom_site_label_1
_geom_bond_atom_site_label_2
_ccdc_geom_bond_type
C15   Cl5   S    
C1    C21   S    
C41   C42   A    
C19   C20   A    
C26   H32   S    
C16   O16   A    
C56   O30   S    
C34   C66   S    
C62   O6    A    
C59   O35   A    
C7    C8    A    
C4    O14   A    
Cr1   O4    S    
C59   O34   A    
C34   C56   S    
C12   C23   S    
C26   C27   A    
Cr1   O17   S    
C12   O29   S    
C36   C37   A    
C9    C16   S    
Cr4   O11   S    
H18   O21   S    
C10   C15   A    
C41   Cl7   S    
C30   C31   A    
C50   H10   S    
C55   O27   S    
C66   O26   S    
Cr2   O32   S    
C29   O25   S    
C44   H9    S    
C46   C52   S    
Cr5   O11   S    
C45   O21   S    
C49   C57   A    
C61   O3    A    
C18   C19   A    
H17   O20   S    
C64   Cl1   S    
C1    O4    A    
C5    C69   A    
C59   C67   S    
C22   C63   S    
C24   C29   A    
Cr5   O36   S    
C11   C17   A    
C35   C36   A    
C52   O31   A    
Cr6   O3    S    
Cr4   O6    S    
C37   C46   A    
C8    H29   S    
C51   H11   S    
Cr6   O11   S    
C68   Cl9   S    
Cr1   O1    S    
C2    H1    S    
C40   O23   A    
C36   C41   A    
C48   C53   A    
Cr3   O23   S    
C39   H6    S    
C50   C51   A    
Cr4   O33   S    
Cr5   O8    S    
C23   C60   S    
C4    C34   S    
C33   C40   S    
C50   C58   A    
C65   O10   A    
H21   O25   S    
C38   C39   A    
C9    C70   A    
C16   O1    A    
H20   O24   S    
C20   H31   S    
Cr2   O14   S    
C47   C51   A    
C53   C54   A    
C49   C58   A    
H19   O22   S    
C17   O24   S    
C67   C69   A    
C64   C66   S    
C23   C68   S    
Cr3   O16   S    
Cr6   O2    S    
C35   C39   A    
C43   C44   A    
C14   Cl3   S    
C29   C30   A    
H26   O29   S    
C56   O20   S    
Cr5   O35   S    
C26   C33   A    
C47   C48   A    
C68   Cl2   S    
C45   C68   S    
C17   C18   A    
C13   C21   A    
C34   C45   S    
C12   C56   S    
C24   C25   A    
C61   O33   A    
Cr3   O32   S    
C23   C64   S    
C5    H12   S    
C22   C27   A    
C55   C57   A    
C32   H4    S    
C22   C24   A    
C54   H14   S    
Cr6   O9    S    
C10   C61   S    
C42   C43   A    
C14   C21   A    
Cr4   O34   S    
C27   H33   S    
Cr5   O7    S    
C40   O12   A    
C54   C55   A    
C19   Cl6   S    
C31   H3    S    
C13   C20   A    
C28   O18   A    
C31   C32   A    
H24   O27   S    
C28   O19   A    
C1    O13   A    
C45   H15   S    
C18   H30   S    
C62   O7    A    
C6    C7    A    
C28   C58   S    
C3    H23   S    
C38   H5    S    
C8    C70   A    
Cr1   O18   S    
C7    H28   S    
C37   C44   A    
C2    C3    A    
H22   O26   S    
C12   H16   S    
H25   O28   S    
C11   C13   A    
C66   H13   S    
Cr2   O12   S    
C5    C6    A    
C3    C67   A    
Cr3   O15   S    
C48   C49   A    
C43   H8    S    
Cr1   O32   S    
C35   C62   S    
C42   H7    S    
C65   O5    A    
C6    O22   S    
C69   C70   A    
C60   O36   A    
C38   C46   A    
Cr3   O31   S    
Cr2   O13   S    
C10   C11   A    
C60   O2    A    
C53   Cl8   S    
H27   O30   S    
C63   O8    A    
Cr2   O19   S    
C52   O17   A    
C64   Cl4   S    
C14   C15   A    
Cr6   O10   S    
Cr4   O5    S    
C30   H2    S    
C57   O28   S    
C2    C9    A    
C47   C65   S    
C63   O9    A    
C25   C33   A    
C4    O15   A    
C25   C32   A    
