data_mof_unit_58401.cif
_audit_creation_date              2012-12-10T18:54:27-0500
_audit_creation_method            fapswitch 2.2
_symmetry_space_group_name_H-M    P1
_symmetry_Int_Tables_number       1
_space_group_crystal_system       triclinic
_cell_length_a                    19.549089
_cell_length_b                    18.290498
_cell_length_c                    9.072827
_cell_angle_alpha                 90.229867
_cell_angle_beta                  93.626665
_cell_angle_gamma                 91.565779
_cell_volume                      3236.34426589

loop_
_atom_site_label
_atom_site_type_symbol
_atom_type_description
_atom_site_fract_x
_atom_site_fract_y
_atom_site_fract_z
_atom_type_partial_charge
C1    C     C_R   0.367627 0.498890 0.505395 0.752635
C2    C     C_R   0.632374 0.501111 0.494607 0.752634
C3    C     C_R   0.462822 0.721249 0.390785 0.182897
C4    C     C_R   0.537188 0.278749 0.609198 0.182891
C5    C     C_R   0.536696 0.723787 0.609846 0.142102
C6    C     C_R   0.463296 0.276213 0.390164 0.142105
C7    C     C_R   0.463483 0.798558 0.389848 -0.201793
C8    C     C_R   0.536525 0.201439 0.610132 -0.201755
C9    C     C_R   0.536403 0.801068 0.610515 -0.200663
C10   C     C_R   0.463589 0.198931 0.389495 -0.200661
C11   C     C_R   0.500070 0.839491 0.500038 0.020289
C12   C     C_R   0.499929 0.160509 0.499957 0.020261
C13   C     C_R   0.499134 0.961830 0.632922 -0.148224
C14   C     C_R   0.500862 0.038170 0.367071 -0.148223
C15   C     C_R   0.500935 0.961334 0.367112 -0.154121
C16   C     C_R   0.499063 0.038666 0.632881 -0.154123
C17   C     C_R   0.499923 0.078178 0.499957 0.119028
C18   C     C_R   0.500075 0.921822 0.500037 0.119029
C19   C     C_R   0.499772 0.499903 0.220615 0.835755
C20   C     C_R   0.500227 0.500097 0.779385 0.835744
C21   C     C_1   0.499919 0.499872 0.065539 -0.139292
C22   C     C_1   0.500081 0.500127 0.934461 -0.139301
C23   C     C_R   0.741468 0.443207 0.421773 -0.021211
C24   C     C_R   0.258538 0.556792 0.578269 -0.021214
C25   C     C_R   0.250608 0.435974 0.458787 0.011967
C26   C     C_R   0.749389 0.564033 0.541220 0.011980
C27   C     C_R   0.813320 0.441805 0.430232 -0.126588
C28   C     C_R   0.186686 0.558195 0.569829 -0.126595
C29   C     C_R   0.179284 0.439646 0.452049 -0.132027
C30   C     C_R   0.820713 0.560363 0.547980 -0.132024
C31   C     C_R   0.852859 0.499964 0.493074 0.009741
C32   C     C_R   0.147143 0.500042 0.506980 0.009744
C33   C     C_R   0.708209 0.503527 0.483655 -0.198294
C34   C     C_R   0.291792 0.496475 0.516361 -0.198286
C35   C     C_R   0.965171 0.562257 0.453205 -0.157304
C36   C     C_R   0.034833 0.437751 0.546865 -0.157303
C37   C     C_R   0.036500 0.562651 0.458069 -0.151084
C38   C     C_R   0.963504 0.437357 0.542003 -0.151084
C39   C     C_R   0.071818 0.500355 0.504598 0.102946
C40   C     C_R   0.928185 0.499653 0.495470 0.102949
Cu1   Cu    Cu3+1 0.500000 0.573360 0.500000 0.928930
Cu2   Cu    Cu3+1 0.500000 0.426640 0.500000 0.928909
H1    H     H_    0.838889 0.396539 0.381888 0.177070
H2    H     H_    0.161121 0.603458 0.618191 0.177070
H3    H     H_    0.148222 0.394110 0.405677 0.171140
H4    H     H_    0.851772 0.605902 0.594345 0.171142
H5    H     H_    0.938825 0.610606 0.414860 0.143989
H6    H     H_    0.061179 0.389401 0.585207 0.143994
H7    H     H_    0.064052 0.611128 0.423320 0.148701
H8    H     H_    0.935952 0.388880 0.576751 0.148703
H9    H     H_    0.433252 0.826987 0.305060 0.178566
H10   H     H_    0.566763 0.173008 0.694908 0.178597
H11   H     H_    0.566477 0.831515 0.695662 0.179469
H12   H     H_    0.433509 0.168484 0.304354 0.179479
H13   H     H_    0.497252 0.933693 0.737393 0.148037
H14   H     H_    0.502744 0.066307 0.262601 0.148038
H15   H     H_    0.502845 0.932871 0.262670 0.147277
H16   H     H_    0.497154 0.067129 0.737323 0.147275
N1    N     N_R   0.500000 0.683620 0.500000 -0.260557
N2    N     N_R   0.500000 0.316380 0.500000 -0.260556
O1    O     O_R   0.400190 0.561980 0.499980 -0.614435
O2    O     O_R   0.599810 0.438020 0.500020 -0.614444
O3    O     O_R   0.599810 0.561980 0.500020 -0.615383
O4    O     O_R   0.400190 0.438020 0.499980 -0.615386
O5    O     O_R   0.500000 0.561940 0.288400 -0.588493
O6    O     O_R   0.500000 0.438060 0.711600 -0.588526
O7    O     O_R   0.500000 0.561940 0.711600 -0.602362
O8    O     O_R   0.500000 0.438060 0.288400 -0.602378
C41   C     C_2   0.703048 0.383738 0.337185 0.401861
H17   H     H_    0.652396 0.392745 0.285900 0.105647
O9    O     O_2   0.728304 0.324128 0.320860 -0.520799
C42   C     C_2   0.296964 0.616253 0.662864 0.401855
H18   H     H_    0.347618 0.607242 0.714134 0.105654
O10   O     O_2   0.271711 0.675864 0.679210 -0.520808
C43   C     C_2   0.278654 0.366168 0.410305 0.342604
H19   H     H_    0.319254 0.340281 0.475984 0.092994
O11   O     O_2   0.254145 0.334857 0.299257 -0.520331
C44   C     C_2   0.721339 0.633843 0.589672 0.342582
H20   H     H_    0.680738 0.659723 0.523979 0.093012
O12   O     O_2   0.745846 0.665167 0.700707 -0.520356
C45   C     C_2   0.419556 0.683631 0.271819 0.412387
H21   H     H_    0.397427 0.629885 0.285859 0.118981
O13   O     O_2   0.406792 0.713693 0.153641 -0.543795
C46   C     C_2   0.580468 0.316367 0.728150 0.412347
H22   H     H_    0.602563 0.370129 0.714139 0.119033
O14   O     O_2   0.593285 0.286284 0.846284 -0.543829
C47   C     C_2   0.578523 0.688792 0.730256 0.435254
H23   H     H_    0.598981 0.635390 0.717226 0.115767
O15   O     O_2   0.591974 0.720484 0.847737 -0.529208
C48   C     C_2   0.421463 0.311209 0.269761 0.435188
H24   H     H_    0.401021 0.364618 0.282781 0.115793
O16   O     O_2   0.407990 0.279509 0.152297 -0.529225

loop_
_geom_bond_atom_site_label_1
_geom_bond_atom_site_label_2
_ccdc_geom_bond_type
C15   C18   A    
C14   H14   S    
C47   H23   S    
C11   C18   S    
Cu1   Cu2   S    
C23   C41   S    
C20   O7    A    
Cu1   O1    S    
C4    C8    A    
C35   H5    S    
C45   H21   S    
Cu1   O7    S    
C7    C11   A    
C26   C44   S    
C13   C18   A    
C20   O6    A    
C19   C21   S    
C46   O14   D    
C29   C32   A    
C3    C7    A    
C30   C31   A    
C44   O12   D    
C31   C40   S    
C41   O9    D    
C32   C39   S    
C43   O11   D    
C16   C17   A    
C23   C33   A    
C12   C17   S    
C3    C45   S    
C19   O5    A    
C23   C27   A    
C8    H10   S    
C25   C34   A    
C21   C22   T    
Cu2   O8    S    
C15   H15   S    
C14   C17   A    
C45   O13   D    
C1    C34   S    
C25   C29   A    
C5    N1    A    
C27   C31   A    
C6    N2    A    
C28   C32   A    
C46   H22   S    
Cu1   N1    S    
C42   O10   D    
Cu2   N2    S    
C44   H20   S    
Cu1   O5    S    
C6    C48   S    
C28   H2    S    
C24   C34   A    
C29   H3    S    
C25   C43   S    
C43   H19   S    
C5    C9    A    
C37   H7    S    
C26   C33   A    
C48   O16   D    
C4    C46   S    
C8    C12   A    
C4    N2    A    
C19   O8    A    
C16   H16   S    
C9    C11   A    
C10   C12   A    
C2    C33   S    
C20   C22   S    
C26   C30   A    
C47   O15   D    
C9    H11   S    
Cu1   O3    S    
C1    O4    A    
Cu2   O4    S    
C2    O3    A    
C24   C42   S    
Cu2   O2    S    
C35   C37   A    
C30   H4    S    
C36   C39   A    
C24   C28   A    
C42   H18   S    
C1    O1    A    
C6    C10   A    
C38   H8    S    
C36   C38   A    
C35   C40   A    
C7    H9    S    
C37   C39   A    
C38   C40   A    
C48   H24   S    
C36   H6    S    
C41   H17   S    
C10   H12   S    
C5    C47   S    
C27   H1    S    
C13   C16   A    
Cu2   O6    S    
C14   C15   A    
C2    O2    A    
C13   H13   S    
C3    N1    A    
