data_mof_unit_47674.cif
_audit_creation_date              2012-12-11T14:34:07-0500
_audit_creation_method            fapswitch 2.2
_symmetry_space_group_name_H-M    P1
_symmetry_Int_Tables_number       1
_space_group_crystal_system       triclinic
_cell_length_a                    13.823939
_cell_length_b                    14.012812
_cell_length_c                    27.368275
_cell_angle_alpha                 89.880903
_cell_angle_beta                  89.949619
_cell_angle_gamma                 119.956759
_cell_volume                      4593.27267267

loop_
_atom_site_label
_atom_site_type_symbol
_atom_type_description
_atom_site_fract_x
_atom_site_fract_y
_atom_site_fract_z
_atom_type_partial_charge
C1    C     C_R   0.233521 0.786955 0.568813 0.543112
C2    C     C_1   0.708919 0.862675 0.859834 -0.002462
C3    C     C_1   0.113605 0.881583 0.852560 -0.004647
C4    C     C_1   0.114635 0.232040 0.852411 -0.006064
C5    C     C_1   0.630555 0.814922 0.658666 0.099635
C6    C     C_1   0.175905 0.818052 0.656344 0.103205
C7    C     C_1   0.177481 0.358762 0.656447 0.097189
C8    C     C_1   0.602111 0.796513 0.616516 0.086395
C9    C     C_1   0.198138 0.805345 0.615214 0.087600
C10   C     C_1   0.192106 0.393269 0.615267 0.085289
C11   C     C_R   0.068801 0.156326 0.096856 0.525511
C12   C     C_R   0.212249 0.446416 0.568811 0.543779
C13   C     C_R   0.775259 0.883416 0.087344 0.570975
C14   C     C_R   0.085501 0.931923 0.096427 0.530847
C15   C     C_R   0.069381 0.160644 0.943254 0.515715
C16   C     C_R   0.780079 0.887163 0.950620 0.550990
C17   C     C_R   0.090614 0.930016 0.943306 0.511804
C18   C     C_R   0.615672 0.895668 0.359677 0.393701
C19   C     C_R   0.084797 0.739062 0.368266 0.399203
C20   C     C_R   0.277903 0.375736 0.362778 0.395442
C21   C     C_R   0.629598 0.907590 0.308528 -0.040388
C22   C     C_R   0.056079 0.758507 0.321360 -0.036414
C23   C     C_R   0.552814 0.765276 0.568999 0.542521
C24   C     C_R   0.260408 0.329712 0.315953 -0.031773
C25   C     C_R   0.658093 0.924431 0.205406 -0.024374
C26   C     C_R   0.019967 0.791894 0.222161 -0.010472
C27   C     C_R   0.226526 0.270069 0.216301 -0.024455
C28   C     C_R   0.231868 0.788531 0.432077 0.561918
C29   C     C_R   0.212137 0.444453 0.431701 0.561551
C30   C     C_R   0.554231 0.766618 0.431082 0.560410
C31   C     C_R   0.637393 0.999411 0.231375 0.405360
C32   C     C_R   0.943133 0.695258 0.247660 0.410095
C33   C     C_R   0.333378 0.313530 0.237618 0.388559
C34   C     C_3   0.664583 0.735359 0.789799 0.314165
C35   C     C_R   0.624505 0.992259 0.282248 0.253889
C36   C     C_R   0.959623 0.679310 0.296629 0.274529
C37   C     C_R   0.349054 0.337613 0.287299 0.263644
C38   C     C_R   0.687190 0.937535 0.155063 0.225249
C39   C     C_R   0.009400 0.807613 0.171601 0.246088
C40   C     C_R   0.208423 0.248778 0.165699 0.238699
C41   C     C_R   0.709748 0.860163 0.132429 -0.013408
C42   C     C_R   0.089892 0.907006 0.148395 -0.022900
C43   C     C_R   0.097219 0.192246 0.147650 -0.019149
C44   C     C_R   0.632176 0.731032 0.357419 -0.149374
C45   C     C_3   0.246149 0.952691 0.783228 0.312160
C46   C     C_R   0.251569 0.919770 0.367748 -0.158440
C47   C     C_R   0.080138 0.314720 0.370737 -0.159660
C48   C     C_R   0.645573 0.740681 0.307247 -0.004602
C49   C     C_R   0.226134 0.940058 0.321403 0.006933
C50   C     C_R   0.060842 0.267407 0.324563 0.014328
C51   C     C_R   0.643207 0.828094 0.282374 -0.051605
C52   C     C_R   0.130288 0.858216 0.297162 -0.047777
C53   C     C_R   0.151864 0.280046 0.295968 -0.044607
C54   C     C_R   0.654219 0.659416 0.281426 -0.048739
C55   C     C_R   0.300684 0.038026 0.297664 -0.066925
C56   C     C_3   0.048519 0.304992 0.785357 0.316826
C57   C     C_R   0.952689 0.213609 0.305414 -0.071975
C58   C     C_R   0.659342 0.663128 0.230954 -0.029317
C59   C     C_R   0.283942 0.053307 0.249129 -0.079733
C60   C     C_R   0.935135 0.176998 0.257389 -0.078239
C61   C     C_R   0.663273 0.752038 0.206014 0.004979
C62   C     C_R   0.190745 0.972764 0.224225 0.011581
C63   C     C_R   0.025275 0.195389 0.227721 0.026694
C64   C     C_3   0.564054 0.849559 0.737535 0.348740
C65   C     C_3   0.135590 0.730512 0.738928 0.343754
C66   C     C_3   0.269757 0.398489 0.737727 0.347923
C67   C     C_3   0.646298 0.723468 0.733595 0.301646
C68   C     C_R   0.654678 0.835098 0.231268 -0.045541
C69   C     C_R   0.112285 0.874840 0.248025 -0.034795
C70   C     C_R   0.134493 0.246844 0.246792 -0.032119
C71   C     C_R   0.683891 0.762359 0.156482 -0.121013
C72   C     C_R   0.177880 0.988292 0.175315 -0.163562
C73   C     C_R   0.007448 0.164980 0.178958 -0.161275
C74   C     C_R   0.609464 0.803201 0.383369 0.000762
C75   C     C_R   0.186064 0.816956 0.389800 0.000364
C76   C     C_R   0.188959 0.374224 0.388707 0.000953
C77   C     C_3   0.770229 0.927464 0.722706 0.115839
C78   C     C_3   0.262426 0.936591 0.728356 0.297517
C79   C     C_3   0.056237 0.851104 0.714148 0.119937
C80   C     C_3   0.130998 0.203471 0.713421 0.116896
C81   C     C_3   0.789754 0.939754 0.778814 -0.292707
C82   C     C_3   0.038348 0.865699 0.769023 -0.293793
C83   C     C_3   0.113038 0.169616 0.768063 -0.295631
C84   C     C_1   0.735680 0.873332 0.902230 0.029828
C85   C     C_1   0.102810 0.902184 0.894238 0.022857
C86   C     C_1   0.096419 0.200519 0.894132 0.019718
C87   C     C_3   0.652415 0.828836 0.711637 0.016971
C88   C     C_3   0.157630 0.833166 0.708039 0.019127
C89   C     C_3   0.063999 0.337076 0.730299 0.302338
C90   C     C_3   0.161306 0.325455 0.708078 0.018894
C91   C     C_3   0.584510 0.862259 0.793552 -0.124898
C92   C     C_3   0.119755 0.748262 0.793793 -0.131689
C93   C     C_3   0.252686 0.363167 0.792305 -0.127636
C94   C     C_3   0.686582 0.850106 0.806940 -0.078525
C95   C     C_3   0.129080 0.862182 0.801053 -0.076879
C96   C     C_3   0.132169 0.267216 0.800955 -0.075654
Cl1   Cl    Cl    0.699556 0.049962 0.120277 -0.419452
Cl2   Cl    Cl    0.900718 0.701067 0.137024 -0.441494
Cl3   Cl    Cl    0.324303 0.302482 0.124977 -0.402721
Cl4   Cl    Cl    0.601657 0.092732 0.310468 -0.379537
Cl5   Cl    Cl    0.855990 0.556029 0.324320 -0.340798
Cl6   Cl    Cl    0.481073 0.372638 0.311644 -0.391627
Cr1   Cr    Cr6+3 0.164410 0.584450 0.499910 1.144696
Cr2   Cr    Cr6+3 0.415550 0.579960 0.499910 1.140554
Cr3   Cr    Cr6+3 0.420040 0.835590 0.499910 1.138542
Cr4   Cr    Cr6+3 0.155170 0.075460 0.019960 1.132483
Cr5   Cr    Cr6+3 0.924540 0.079710 0.019960 1.115574
Cr6   Cr    Cr6+3 0.920290 0.844830 0.019960 1.123162
F1    F     F_    0.456981 0.763967 0.728269 -0.439523
F2    F     F_    0.781597 0.024080 0.703313 -0.649282
F3    F     F_    0.960468 0.762640 0.695177 -0.643623
F4    F     F_    0.214818 0.187890 0.694015 -0.656848
F5    F     F_    0.544750 0.630938 0.722741 -0.489066
F6    F     F_    0.357237 0.927792 0.721824 -0.508832
F7    F     F_    0.083359 0.443562 0.724222 -0.490415
F8    F     F_    0.572599 0.652468 0.814029 -0.536544
F9    F     F_    0.328927 0.950488 0.811047 -0.544784
F10   F     F_    0.063237 0.393145 0.813781 -0.530941
F11   F     F_    0.222889 0.709292 0.733849 -0.445583
F12   F     F_    0.300220 0.508720 0.733954 -0.435704
F13   F     F_    0.602647 0.969855 0.386496 -0.562837
F14   F     F_    0.019458 0.642338 0.391827 -0.553674
F15   F     F_    0.383120 0.432778 0.380949 -0.567922
F16   F     F_    0.631433 0.082060 0.208223 -0.497800
F17   F     F_    0.851924 0.612841 0.225658 -0.538396
F18   F     F_    0.423339 0.328127 0.211499 -0.526854
H1    H     H_    0.599275 0.944506 0.805236 0.133572
H2    H     H_    0.692347 0.698756 0.137791 0.207984
H3    H     H_    0.238990 0.063947 0.157581 0.180255
H4    H     H_    0.923010 0.122226 0.164762 0.158142
H5    H     H_    0.664176 0.598424 0.211463 0.243570
H6    H     H_    0.346189 0.126427 0.230486 0.214641
H7    H     H_    0.851783 0.138737 0.242692 0.156441
H8    H     H_    0.655836 0.592319 0.300299 0.228062
H9    H     H_    0.374723 0.100721 0.315965 0.203678
H10   H     H_    0.882158 0.202548 0.327113 0.178539
H11   H     H_    0.569582 0.926212 0.722803 0.212056
H12   H     H_    0.036483 0.681875 0.806441 0.123947
H13   H     H_    0.058732 0.656725 0.725493 0.205880
H14   H     H_    0.339624 0.389745 0.722532 0.201534
H15   H     H_    0.629558 0.660875 0.375578 0.203752
H16   H     H_    0.327934 0.981688 0.384953 0.191334
H17   H     H_    0.011258 0.310552 0.391506 0.174307
H18   H     H_    0.834987 0.913364 0.705454 0.156269
H19   H     H_    0.071696 0.926216 0.693688 0.164702
H20   H     H_    0.052887 0.149587 0.692906 0.164729
H21   H     H_    0.808228 0.023145 0.790631 0.186292
H22   H     H_    0.953978 0.800052 0.780917 0.179934
H23   H     H_    0.313739 0.336926 0.802749 0.120271
H24   H     H_    0.170855 0.140094 0.779073 0.170507
H25   H     H_    0.863737 0.931979 0.788008 0.070658
H26   H     H_    0.041281 0.945290 0.774161 0.078213
H27   H     H_    0.026401 0.100933 0.773273 0.085551
H28   H     H_    0.712762 0.711352 0.716792 0.111588
H29   H     H_    0.275653 0.010719 0.707691 0.122324
H30   H     H_    0.985276 0.281147 0.710613 0.108777
H31   H     H_    0.509064 0.799421 0.813406 0.254552
H32   H     H_    0.183441 0.742222 0.816339 0.250698
H33   H     H_    0.269539 0.434394 0.815904 0.255500
H34   H     H_    0.737844 0.726059 0.799102 0.095887
H35   H     H_    0.254626 0.035147 0.788203 0.100086
H36   H     H_    0.961599 0.236515 0.791412 0.105312
O1    O     O_R   0.137150 0.468200 0.553200 -0.493005
O2    O     O_R   0.140110 0.470540 0.446010 -0.494839
O3    O     O_R   0.529460 0.669570 0.446010 -0.488419
O4    O     O_R   0.330430 0.859890 0.446010 -0.498965
O5    O     O_R   0.176710 0.690910 0.450560 -0.426683
O6    O     O_R   0.309090 0.485800 0.450560 -0.428320
O7    O     O_R   0.514200 0.823290 0.450560 -0.428234
O8    O     O_3   0.333333 0.666667 0.499990 -0.319946
O9    O     O_R   0.176750 0.985260 0.074180 -0.461726
O10   O     O_R   0.014740 0.191490 0.074180 -0.426625
O11   O     O_R   0.808510 0.823250 0.074180 -0.490667
O12   O     O_R   0.531800 0.668950 0.553200 -0.487351
O13   O     O_R   0.146100 0.172630 0.068980 -0.432767
O14   O     O_R   0.827370 0.973470 0.068980 -0.482423
O15   O     O_R   0.026530 0.853900 0.068980 -0.400649
O16   O     O_3   1.000000 0.000000 0.020040 -0.365266
O17   O     O_R   0.148270 0.170520 0.969620 -0.474059
O18   O     O_R   0.829480 0.977750 0.969620 -0.518891
O19   O     O_R   0.022250 0.851730 0.969620 -0.458394
O20   O     O_R   0.331050 0.862850 0.553200 -0.489507
O21   O     O_R   0.179100 0.982980 0.967000 -0.454117
O22   O     O_R   0.017020 0.196120 0.967000 -0.440400
O23   O     O_R   0.803880 0.820900 0.967000 -0.494793
O24   O     O_R   0.173970 0.688730 0.549930 -0.488101
O25   O     O_R   0.311270 0.485240 0.549930 -0.489631
O26   O     O_R   0.514760 0.826030 0.549930 -0.487932

loop_
_geom_bond_atom_site_label_1
_geom_bond_atom_site_label_2
_ccdc_geom_bond_type
C25   C31   A    
C65   C92   S    
C89   F7    S    
C19   F14   S    
C26   C32   A    
C16   O18   A    
C55   C59   A    
Cr5   O18   S    
C13   O14   A    
C18   C21   A    
Cr4   O9    S    
C93   H23   S    
C92   H12   S    
C6    C9    T    
C13   C41   S    
C79   C82   S    
C72   H3    S    
C66   C90   S    
C29   C76   S    
C45   F9    S    
C1    O24   A    
C27   C33   A    
C13   O11   A    
C25   C68   A    
C46   C49   A    
Cr1   O2    S    
Cr3   O7    S    
Cr6   O19   S    
C60   C63   A    
C17   C85   S    
C32   C36   A    
C29   O6    A    
C22   C52   A    
C31   F16   S    
C15   O17   A    
C16   O23   A    
C38   Cl1   S    
C37   Cl6   S    
C30   C74   S    
C78   H29   S    
C4    C86   T    
Cr5   O14   S    
C34   F8    S    
C54   H8    S    
C56   H36   S    
C16   C84   S    
C8    C23   S    
C6    C88   S    
Cr3   O4    S    
C20   C76   A    
C92   H32   S    
C7    C10   T    
C93   H33   S    
C45   H35   S    
C46   C75   A    
C20   F15   S    
C52   C69   A    
C28   O5    A    
Cr2   O3    S    
C4    C96   S    
C2    C84   T    
C43   C73   A    
C40   C43   A    
C20   C24   A    
C44   H15   S    
C81   H21   S    
Cr1   O8    S    
Cr4   O13   S    
C57   H10   S    
C11   C43   S    
C45   C78   S    
Cr3   O20   S    
C39   C42   A    
C58   H5    S    
C64   C87   S    
C28   O4    A    
C41   C71   A    
C83   H24   S    
C61   C71   A    
C58   C61   A    
C80   H20   S    
C11   O10   A    
C18   C74   A    
C66   F12   S    
C15   O22   A    
C29   O2    A    
C78   F6    S    
Cr1   O24   S    
C40   Cl3   S    
C80   C83   S    
C53   C70   A    
C10   C12   S    
C79   C88   S    
C47   C50   A    
C64   H11   S    
C48   C51   A    
C59   H6    S    
C50   C53   A    
Cr3   O8    S    
Cr6   O16   S    
Cr6   O23   S    
C2    C94   S    
C19   C22   A    
C1    C9    S    
C30   O3    A    
C38   C41   A    
C79   H19   S    
C23   O12   A    
C39   Cl2   S    
Cr2   O12   S    
C63   C73   A    
C24   C53   A    
C81   H25   S    
C12   O25   A    
C92   C95   S    
C33   C37   A    
C62   C69   A    
C67   C87   S    
C65   H13   S    
C32   F17   S    
C48   C54   A    
C30   O7    A    
C25   C38   A    
Cr2   O6    S    
C26   C39   A    
C17   O21   A    
C63   C70   A    
C77   C81   S    
C27   C40   A    
C49   C52   A    
Cr6   O11   S    
C80   F4    S    
C42   C72   A    
C24   C37   A    
C65   F11   S    
C62   C72   A    
Cr5   O10   S    
Cr1   O5    S    
C44   C74   A    
C11   O13   A    
C27   C70   A    
C91   H1    S    
C15   C86   S    
C21   C35   A    
C56   C89   S    
C93   C96   S    
C67   H28   S    
Cr5   O16   S    
C31   C35   A    
C3    C85   T    
C35   Cl4   S    
C45   C95   S    
Cr4   O17   S    
C21   C51   A    
Cr3   O26   S    
C65   C88   S    
Cr2   O8    S    
C54   C58   A    
C78   C88   S    
C56   C96   S    
Cr2   O25   S    
C73   H4    S    
C59   C62   A    
C82   C95   S    
C66   C93   S    
C50   C57   A    
C56   F10   S    
C34   C94   S    
C47   H17   S    
C14   O9    A    
C89   H30   S    
C34   C67   S    
C47   C76   A    
C5    C8    T    
C82   H22   S    
C1    O20   A    
C83   H27   S    
C79   F3    S    
C22   C36   A    
Cr1   O1    S    
C14   C42   S    
Cr5   O22   S    
C19   C75   A    
C67   F5    S    
C77   H18   S    
C49   C55   A    
C12   O1    A    
C81   C94   S    
C7    C90   S    
C61   C68   A    
C64   F1    S    
C23   O26   A    
C55   H9    S    
C83   C96   S    
C33   F18   S    
C46   H16   S    
Cr6   O15   S    
C51   C68   A    
C80   C90   S    
C77   F2    S    
C71   H2    S    
Cr4   O21   S    
C91   H31   S    
C14   O15   A    
C18   F13   S    
C5    C87   S    
C17   O19   A    
C57   C60   A    
C66   H14   S    
C77   C87   S    
C26   C69   A    
C36   Cl5   S    
C3    C95   S    
C64   C91   S    
C89   C90   S    
C28   C75   S    
C60   H7    S    
Cr4   O16   S    
C82   H26   S    
C44   C48   A    
C91   C94   S    
C34   H34   S    
