data_mof_unit_43669.cif
_audit_creation_date              2013-03-05T16:48:15-0500
_audit_creation_method            fapswitch 2.2
_symmetry_space_group_name_H-M    P1
_symmetry_Int_Tables_number       1
_space_group_crystal_system       monoclinic
_cell_length_a                    23.463464
_cell_length_b                    8.926935
_cell_length_c                    8.097686
_cell_angle_alpha                 89.982287
_cell_angle_beta                  90.0
_cell_angle_gamma                 90.0
_cell_volume                      1696.11546169

loop_
_atom_site_label
_atom_site_type_symbol
_atom_site_description
_atom_site_fract_x
_atom_site_fract_y
_atom_site_fract_z
_atom_type_partial_charge
O1    O     O_R   0.500000 0.285350 0.636850 -0.613934
O2    O     O_R   0.500000 0.714650 0.363150 -0.613934
O3    O     O_R   0.500000 0.714650 0.636850 -0.614740
O4    O     O_R   0.500000 0.285350 0.363150 -0.614740
C1    C     C_R   0.500000 0.217971 0.500016 0.942319
C2    C     C_R   0.500000 0.782029 0.499984 0.942319
O5    O     O_R   0.416160 0.500000 0.636910 -0.622487
O6    O     O_R   0.583840 0.500000 0.363090 -0.622489
O7    O     O_R   0.583840 0.500000 0.636910 -0.622489
O8    O     O_R   0.416160 0.500000 0.363090 -0.622487
C3    C     C_R   0.208279 0.500002 0.500000 -0.039123
C4    C     C_R   0.791721 0.500003 0.500000 -0.039149
C5    C     C_R   0.388995 0.500000 0.500000 0.956302
C6    C     C_R   0.611005 0.500000 0.500000 0.956303
Zn1   Zn    Zn3+2 0.500000 0.500000 0.682780 1.011760
Zn2   Zn    Zn3+2 0.500000 0.500000 0.317220 1.011760
C7    C     C_R   0.296950 0.491673 0.350143 -0.276246
C8    C     C_R   0.703050 0.508253 0.649862 -0.276249
C9    C     C_R   0.296950 0.508329 0.649856 -0.276246
C10   C     C_R   0.703050 0.491750 0.350138 -0.276250
H1    H     H_    0.319222 0.484888 0.233213 0.210143
H2    H     H_    0.680778 0.514976 0.766798 0.210144
H3    H     H_    0.319222 0.515114 0.766787 0.210143
H4    H     H_    0.680778 0.485026 0.233202 0.210144
C11   C     C_R   0.326853 0.500000 0.500000 -0.237072
C12   C     C_R   0.673147 0.500001 0.500000 -0.237075
C13   C     C_R   0.880385 0.627895 0.456038 0.723133
C14   C     C_R   0.119616 0.372112 0.543968 0.723132
C15   C     C_R   0.880385 0.372111 0.543962 0.723132
C16   C     C_R   0.119617 0.627893 0.456032 0.723132
N1    N     N_R   0.852358 0.500003 0.500000 -0.344354
N2    N     N_R   0.147643 0.500002 0.500000 -0.344348
C17   C     C_R   0.940038 0.369091 0.545767 -0.231255
C18   C     C_R   0.059963 0.630914 0.454231 -0.231250
C19   C     C_R   0.940038 0.630915 0.454233 -0.231255
C20   C     C_R   0.059963 0.369092 0.545769 -0.231251
C21   C     C_R   0.969990 0.500003 0.500000 -0.155599
C22   C     C_R   0.030011 0.500003 0.500000 -0.155594
C23   C     C_R   0.970369 0.239571 0.591765 0.643771
C24   C     C_R   0.029632 0.760434 0.408234 0.643768
C25   C     C_R   0.970369 0.760435 0.408236 0.643770
C26   C     C_R   0.029632 0.239571 0.591766 0.643768
C27   C     C_1   0.500000 0.065197 0.500023 -0.165584
C28   C     C_1   0.500000 0.934803 0.499977 -0.165584
C29   C     C_R   0.237788 0.491477 0.350227 0.683039
C30   C     C_R   0.762212 0.508451 0.649779 0.683044
C31   C     C_R   0.237788 0.508527 0.649773 0.683039
C32   C     C_R   0.762212 0.491554 0.350221 0.683044
N3    N     N_1   0.500000 0.500000 0.073640 -0.027009
N4    N     N_1   0.500000 0.500000 0.926360 -0.027009
O9    O     O_2   0.850265 0.751260 0.415134 -0.403505
O10   O     O_2   0.149736 0.248751 0.584881 -0.403516
O11   O     O_2   0.850265 0.248747 0.584866 -0.403506
O12   O     O_2   0.149736 0.751254 0.415119 -0.403516
F1    F     F_    0.943093 0.112050 0.637947 -0.515305
F2    F     F_    0.056908 0.887955 0.362051 -0.515303
F3    F     F_    0.943093 0.887956 0.362054 -0.515305
F4    F     F_    0.056908 0.112050 0.637949 -0.515303
F5    F     F_    0.209039 0.482405 0.205147 -0.567769
F6    F     F_    0.790961 0.517450 0.794866 -0.567755
F7    F     F_    0.209039 0.517599 0.794852 -0.567770
F8    F     F_    0.790961 0.482556 0.205134 -0.567755

loop_
_geom_bond_atom_site_label_1
_geom_bond_atom_site_label_2
_geom_bond_distance
_ccdc_geom_bond_type
O4    Zn2   1.951816 S    
O5    C5    1.278814 A    
C9    H3    1.083216 S    
O7    C6    1.278815 A    
C31   F7    1.357137 S    
C21   C22   1.408282 A    
O1    Zn1   1.952041 S    
C23   F1    1.358333 S    
O2    Zn2   1.952040 S    
C3    C31   1.398629 A    
C4    N1    1.422745 S    
C8    C12   1.403724 A    
C14   O10   1.349705 S    
C17   C21   1.413045 A    
C4    C32   1.398639 A    
O3    C2    1.260832 A    
C7    C11   1.403719 A    
C26   F4    1.358334 S    
O5    Zn1   2.001940 S    
O7    Zn1   2.001937 S    
C25   F3    1.358333 S    
C15   N1    1.364685 A    
C24   F2    1.358334 S    
O8    Zn2   2.001940 S    
C6    C12   1.458074 S    
C16   N2    1.364682 A    
C16   O12   1.349704 S    
C5    C11   1.458071 S    
O2    C2    1.260931 A    
C30   F6    1.357143 S    
C10   C12   1.403725 A    
O6    C6    1.278816 A    
C18   C24   1.407751 A    
C8    C30   1.388135 A    
C20   C22   1.413047 A    
C24   C25   1.390532 A    
C19   C21   1.413046 A    
C13   O9    1.349704 S    
C3    N2    1.422740 S    
C23   C26   1.390532 A    
C9    C31   1.388137 A    
C27   C28   1.164016 T    
C1    C27   1.363807 S    
C19   C25   1.407750 A    
O1    C1    1.260931 A    
C3    C29   1.398630 A    
C16   C18   1.400023 A    
C9    C11   1.403718 A    
C13   N1    1.364685 A    
C15   C17   1.400023 A    
C32   F8    1.357143 S    
C14   N2    1.364682 A    
O3    Zn1   1.951815 S    
Zn2   N3    1.972434 S    
C14   C20   1.400023 A    
C4    C30   1.398640 A    
N3    N4    1.192626 T    
O6    Zn2   2.001937 S    
Zn1   N4    1.972434 S    
C29   F5    1.357138 S    
C2    C28   1.363807 S    
C10   C32   1.388135 A    
C13   C19   1.400023 A    
C8    H2    1.083222 S    
C20   C26   1.407749 A    
C17   C23   1.407750 A    
C7    H1    1.083216 S    
C10   H4    1.083221 S    
C7    C29   1.388135 A    
O4    C1    1.260832 A    
C15   O11   1.349705 S    
O8    C5    1.278815 A    
C18   C22   1.413046 A    
