data_mof_unit_63261.cif
_audit_creation_date              2012-10-26T19:01:50-0400
_audit_creation_method            fapswitch 2.2
_symmetry_space_group_name_H-M    P1
_symmetry_Int_Tables_number       1
_space_group_crystal_system       triclinic
_cell_length_a                    13.90956
_cell_length_b                    15.819702
_cell_length_c                    17.207613
_cell_angle_alpha                 95.654079
_cell_angle_beta                  88.714829
_cell_angle_gamma                 83.270259
_cell_volume                      3739.85548923

loop_
_atom_site_label
_atom_site_type_symbol
_atom_type_description
_atom_site_fract_x
_atom_site_fract_y
_atom_site_fract_z
_atom_type_partial_charge
C1    C     C_R   0.502167 0.509760 0.651524 0.591022
C2    C     C_R   0.547211 0.839847 0.468532 -0.113789
C3    C     C_R   0.521890 0.106958 0.483744 0.168616
C4    C     C_R   0.476989 0.893012 0.516235 0.193124
C5    C     C_R   0.585851 0.146431 0.438052 0.245191
C6    C     C_R   0.410711 0.853978 0.559878 0.228165
C7    C     C_R   0.580078 0.236594 0.443244 0.026528
C8    C     C_R   0.419335 0.763011 0.556418 -0.015419
C9    C     C_R   0.316433 0.513159 0.500653 0.547461
C10   C     C_R   0.683573 0.486839 0.499299 0.554396
C11   C     C_1   0.786515 0.479490 0.498922 0.050787
C12   C     C_R   0.496463 0.490345 0.348582 0.582004
C13   C     C_1   0.213509 0.520517 0.500905 0.038769
C14   C     C_2   0.976959 0.464930 0.498223 0.239435
C15   C     C_2   0.023085 0.535116 0.501403 0.236604
C16   C     C_1   0.126732 0.527562 0.501146 0.069052
C17   C     C_1   0.873301 0.472470 0.498573 0.078267
C18   C     C_R   0.505345 0.514279 0.737920 0.020981
C19   C     C_R   0.488668 0.485983 0.262468 0.014153
C20   C     C_R   0.521476 0.438904 0.776776 0.181078
C21   C     C_R   0.480586 0.561042 0.222877 0.181676
C22   C     C_R   0.516609 0.444514 0.857933 -0.054709
C23   C     C_R   0.485256 0.598422 0.864969 -0.104459
C24   C     C_R   0.481209 0.554350 0.141753 -0.056233
C25   C     C_R   0.496487 0.524170 0.902430 0.145065
C26   C     C_R   0.488385 0.474004 0.097798 0.143644
C27   C     C_3   0.564013 0.715293 0.766796 -0.005610
C28   C     C_3   0.570120 0.783999 0.711654 -0.334703
C29   C     C_3   0.387691 0.313734 0.257217 0.002555
C30   C     C_3   0.382392 0.231379 0.294950 -0.350932
C31   C     C_3   0.621629 0.068342 0.319644 -0.003214
C32   C     C_3   0.647320 0.124372 0.256958 -0.380285
C33   C     C_3   0.250884 0.878595 0.605988 -0.012171
C34   C     C_R   0.490669 0.400552 0.136262 -0.099517
C35   C     C_3   0.175107 0.953118 0.634482 -0.321814
C36   C     C_R   0.492795 0.594943 0.783429 0.201953
C37   C     C_R   0.487608 0.405654 0.217808 0.195923
C38   C     C_R   0.448659 0.249504 0.535089 0.368910
C39   C     C_R   0.551610 0.750758 0.465508 0.374334
C40   C     C_R   0.452645 0.160341 0.532220 -0.108581
Cl1   Cl    Cl    0.960017 0.639115 0.506045 -0.556521
Cl2   Cl    Cl    0.040067 0.360942 0.493558 -0.549667
Cl3   Cl    Cl    0.464823 0.666386 0.269626 -0.522503
Cl4   Cl    Cl    0.553229 0.335104 0.728855 -0.507829
Cl5   Cl    Cl    0.641077 0.690796 0.402479 -0.457325
Cl6   Cl    Cl    0.361364 0.309904 0.599792 -0.463959
Cu1   Cu    Cu3+1 0.495370 0.585120 0.503830 1.081171
Cu2   Cu    Cu3+1 0.504630 0.414880 0.496170 1.085202
H1    H     H_    0.476137 0.612719 0.113282 0.187090
H2    H     H_    0.555036 0.747295 0.827453 0.137318
H3    H     H_    0.500887 0.827143 0.714324 0.187261
H4    H     H_    0.629573 0.822401 0.728753 0.124004
H5    H     H_    0.585537 0.753811 0.650997 0.171181
H6    H     H_    0.357599 0.305244 0.197848 0.134403
H7    H     H_    0.341866 0.366416 0.293350 0.150023
H8    H     H_    0.409493 0.237978 0.355060 0.161640
H9    H     H_    0.306098 0.217380 0.298002 0.135111
H10   H     H_    0.426567 0.177311 0.259872 0.143836
H11   H     H_    0.541888 0.064734 0.321233 0.122494
H12   H     H_    0.529176 0.386072 0.886030 0.187839
H13   H     H_    0.656669 0.002191 0.302451 0.186241
H14   H     H_    0.727082 0.124270 0.252126 0.184160
H15   H     H_    0.621065 0.099384 0.199723 0.122408
H16   H     H_    0.612841 0.191003 0.271863 0.188312
H17   H     H_    0.246205 0.827309 0.645189 0.144844
H18   H     H_    0.233259 0.855010 0.545313 0.148971
H19   H     H_    0.177499 0.005632 0.596382 0.187469
H20   H     H_    0.101843 0.931779 0.632812 0.130630
H21   H     H_    0.189108 0.977427 0.695454 0.178619
H22   H     H_    0.470682 0.659745 0.899684 0.142010
H23   H     H_    0.493715 0.338602 0.102641 0.148922
H24   H     H_    0.598773 0.866939 0.433150 0.179208
H25   H     H_    0.401985 0.133448 0.568604 0.187923
H26   H     H_    0.630440 0.266232 0.409033 0.164053
H27   H     H_    0.371951 0.732000 0.591998 0.151974
H28   H     H_    0.633834 0.672126 0.760648 0.140190
N1    N     N_2   0.490204 0.533088 0.985102 -0.229634
N2    N     N_2   0.492865 0.464262 0.014985 -0.226749
N3    N     N_R   0.511590 0.287020 0.490400 -0.259820
N4    N     N_R   0.488410 0.712980 0.509600 -0.254156
N5    N     N_2   0.529948 0.014993 0.479489 -0.211448
N6    N     N_2   0.469399 0.985005 0.520914 -0.183574
O1    O     O_R   0.495670 0.579790 0.617520 -0.480127
O2    O     O_3   0.485008 0.331039 0.253033 -0.556794
O3    O     O_3   0.658672 0.097472 0.392108 -0.529196
O4    O     O_3   0.343620 0.906732 0.609303 -0.541671
O5    O     O_R   0.504330 0.420210 0.382480 -0.488436
O6    O     O_R   0.503490 0.436020 0.611040 -0.409687
O7    O     O_R   0.496510 0.563980 0.388960 -0.410822
O8    O     O_R   0.357690 0.582040 0.503680 -0.519075
O9    O     O_R   0.642310 0.417960 0.496320 -0.510436
O10   O     O_R   0.365510 0.438280 0.497200 -0.454479
O11   O     O_R   0.634490 0.561720 0.502800 -0.451258
O12   O     O_3   0.483934 0.670438 0.748125 -0.537598

loop_
_geom_bond_atom_site_label_1
_geom_bond_atom_site_label_2
_ccdc_geom_bond_type
C31   O3    S    
C34   C37   A    
C31   H13   S    
C14   C17   S    
N5    N6    D    
C33   H17   S    
N1    N2    D    
C1    C18   S    
C26   N2    S    
C25   N1    S    
Cu2   N3    S    
C19   C21   A    
C24   C26   A    
C22   H12   S    
C28   H3    S    
C38   N3    A    
C15   C16   S    
C30   H9    S    
C40   H25   S    
C31   H11   S    
C9    C13   S    
C19   C37   A    
C21   Cl3   S    
C2    C39   A    
C26   C34   A    
Cu1   Cu2   S    
C22   C25   A    
C3    N5    S    
Cu2   O6    S    
C37   O2    S    
Cu1   O1    S    
C27   H2    S    
C39   Cl5   S    
C5    O3    S    
C1    O6    A    
Cu1   O7    S    
C23   H22   S    
Cu1   N4    S    
C2    H24   S    
C9    O10   A    
C20   Cl4   S    
C33   H18   S    
C7    H26   S    
C12   O7    A    
C32   H16   S    
C29   O2    S    
C4    C6    A    
C5    C7    A    
C6    C8    A    
C29   H7    S    
C10   O11   A    
C30   H8    S    
Cu2   O9    S    
C8    H27   S    
C2    C4    A    
C33   O4    S    
C29   C30   S    
C31   C32   S    
C35   H19   S    
Cu1   O11   S    
Cu2   O5    S    
C15   Cl1   S    
C20   C22   A    
C10   O9    A    
Cu1   O8    S    
C21   C24   A    
C27   H28   S    
C7    N3    A    
C24   H1    S    
C11   C17   T    
C12   O5    A    
C32   H15   S    
C3    C5    A    
C9    O8    A    
C3    C40   A    
C28   H5    S    
C29   H6    S    
C1    O1    A    
C6    O4    S    
C14   Cl2   S    
C39   N4    A    
C32   H14   S    
C38   C40   A    
C28   H4    S    
C35   H20   S    
C30   H10   S    
C12   C19   S    
C33   C35   S    
C18   C20   A    
C23   C25   A    
C38   Cl6   S    
C10   C11   S    
C36   O12   S    
C4    N6    S    
C35   H21   S    
C23   C36   A    
Cu2   O10   S    
C13   C16   T    
C27   C28   S    
C8    N4    A    
C14   C15   D    
C27   O12   S    
C18   C36   A    
C34   H23   S    
