data_mof_unit_10875.cif
_audit_creation_date              2012-10-26T19:42:44-0400
_audit_creation_method            fapswitch 2.2
_symmetry_space_group_name_H-M    P1
_symmetry_Int_Tables_number       1
_space_group_crystal_system       triclinic
_cell_length_a                    19.336419
_cell_length_b                    10.784518
_cell_length_c                    9.59647
_cell_angle_alpha                 90.184626
_cell_angle_beta                  89.808932
_cell_angle_gamma                 92.35236
_cell_volume                      1999.4828314

loop_
_atom_site_label
_atom_site_type_symbol
_atom_type_description
_atom_site_fract_x
_atom_site_fract_y
_atom_site_fract_z
_atom_type_partial_charge
C1    C     C_R   0.496986 0.262565 0.499856 0.542771
C2    C     C_R   0.853461 0.482016 0.492557 0.010227
C3    C     C_R   0.393315 0.122729 0.666440 -0.098987
C4    C     C_R   0.367532 0.499227 0.500267 0.531203
C5    C     C_R   0.347314 0.055932 0.753714 0.010483
C6    C     C_R   0.347850 0.926459 0.754449 -0.108869
C7    C     C_R   0.394124 0.864412 0.670104 -0.116007
C8    C     C_R   0.443252 0.930863 0.586545 0.022194
C9    C     C_R   0.442927 0.061945 0.585171 0.012166
C10   C     C_R   0.491186 0.128378 0.499317 -0.000284
C11   C     C_R   0.535681 0.066227 0.411097 -0.146622
C12   C     C_R   0.291517 0.498066 0.500758 0.010757
C13   C     C_R   0.535764 0.938461 0.411684 -0.151807
C14   C     C_R   0.491454 0.870529 0.500698 0.006250
C15   C     C_R   0.592425 0.663757 0.143941 -0.085900
C16   C     C_R   0.496961 0.737062 0.500306 0.529426
C17   C     C_R   0.637581 0.743773 0.071760 -0.156579
C18   C     C_R   0.637390 0.744171 0.928219 -0.158989
C19   C     C_R   0.592078 0.664484 0.855987 -0.086732
C20   C     C_R   0.545319 0.580699 0.925175 0.159009
C21   C     C_R   0.545402 0.580488 0.074760 0.159732
C22   C     C_R   0.456632 0.423701 0.073939 -0.006518
C23   C     C_R   0.929687 0.485692 0.494904 0.366801
C24   C     C_R   0.456642 0.423732 0.926038 -0.004938
C25   C     C_R   0.632479 0.499555 0.499608 0.539478
C26   C     C_R   0.254325 0.474214 0.624378 -0.143493
C27   C     C_R   0.182189 0.472461 0.624373 -0.119472
C28   C     C_R   0.146107 0.495863 0.501082 0.037061
C29   C     C_R   0.183418 0.520044 0.377655 -0.117483
C30   C     C_R   0.255444 0.520455 0.377327 -0.136108
C31   C     C_3   0.297853 0.123120 0.846246 -0.258013
C32   C     C_3   0.322233 0.121997 0.998159 -0.299473
C33   C     C_3   0.277472 0.201769 0.090741 -0.447058
C34   C     C_R   0.069939 0.494171 0.500426 0.341743
C35   C     C_2   0.847115 0.432182 0.232151 0.589464
C36   C     C_R   0.818181 0.501060 0.618546 -0.134409
C37   C     C_R   0.746428 0.507227 0.621259 -0.135478
C38   C     C_R   0.708426 0.495333 0.497652 -0.018700
C39   C     C_R   0.743202 0.475528 0.371445 -0.133026
C40   C     C_R   0.815181 0.465902 0.367346 0.051853
Cu1   Cu    Cu3+1 0.500000 0.499990 0.640660 0.914983
Cu2   Cu    Cu3+1 0.500000 0.500010 0.359340 0.922851
H1    H     H_    0.280890 0.456064 0.720937 0.116092
H2    H     H_    0.596160 0.673073 0.746217 0.182965
H3    H     H_    0.154764 0.453657 0.721080 0.137438
H4    H     H_    0.421017 0.361363 0.870890 0.107338
H5    H     H_    0.156994 0.537538 0.280805 0.140079
H6    H     H_    0.282828 0.539013 0.280486 0.128413
H7    H     H_    0.846389 0.513672 0.715269 0.146314
H8    H     H_    0.720839 0.522465 0.720060 0.147854
H9    H     H_    0.713861 0.462986 0.276026 0.169819
H10   H     H_    0.572011 0.117127 0.344125 0.137026
H11   H     H_    0.280681 0.299851 0.055377 0.142408
H12   H     H_    0.389222 0.222211 0.662434 0.124248
H13   H     H_    0.222679 0.166679 0.087830 0.171430
H14   H     H_    0.296151 0.198369 0.199927 0.152857
H15   H     H_    0.319881 0.025270 0.038136 0.170194
H16   H     H_    0.376780 0.158385 0.004350 0.159906
H17   H     H_    0.294138 0.220938 0.811493 0.131674
H18   H     H_    0.245209 0.078288 0.837842 0.153426
H19   H     H_    0.844599 0.444482 0.022359 0.344719
H20   H     H_    0.311599 0.873208 0.819187 0.113780
H21   H     H_    0.390007 0.764268 0.670425 0.150504
H22   H     H_    0.572113 0.892419 0.344925 0.116999
H23   H     H_    0.421074 0.361246 0.129225 0.115695
H24   H     H_    0.596753 0.671810 0.253688 0.178376
H25   H     H_    0.672886 0.806229 0.127971 0.130406
H26   H     H_    0.672569 0.806905 0.872061 0.131612
N1    N     N_R   0.035603 0.542878 0.391755 -0.215324
N2    N     N_R   0.966816 0.539404 0.389468 -0.173894
N3    N     N_R   0.963926 0.438970 0.604900 -0.217887
N4    N     N_R   0.032783 0.442968 0.607505 -0.223163
N5    N     N_R   0.500660 0.501210 0.147910 -0.242008
N6    N     N_R   0.500680 0.501290 0.852040 -0.241829
O1    O     O_R   0.499990 0.319640 0.618810 -0.497192
O2    O     O_R   0.819196 0.474821 0.107720 -0.707146
O3    O     O_R   0.500000 0.319660 0.381240 -0.498032
O4    O     O_R   0.400140 0.499970 0.618820 -0.519663
O5    O     O_R   0.400150 0.500000 0.381250 -0.501749
O6    O     O_R   0.500000 0.680340 0.618760 -0.527773
O7    O     O_R   0.500010 0.680360 0.381190 -0.515808
O8    O     O_R   0.599850 0.500000 0.618750 -0.511755
O9    O     O_R   0.599860 0.500030 0.381180 -0.520930
O10   O     O_2   0.895901 0.363563 0.228702 -0.480924

loop_
_geom_bond_atom_site_label_1
_geom_bond_atom_site_label_2
_ccdc_geom_bond_type
C33   H13   S    
C39   H9    S    
C1    O3    A    
Cu1   Cu2   S    
C19   C20   A    
C32   H16   S    
Cu1   O6    S    
C7    C8    A    
C26   C27   A    
C29   C30   A    
C29   H5    S    
C30   H6    S    
C36   C37   A    
C5    C6    A    
C3    H12   S    
C18   H26   S    
C21   N5    A    
C18   C19   A    
C31   H17   S    
C11   H10   S    
Cu1   N6    S    
C8    C9    A    
C4    C12   S    
C9    C10   A    
C27   H3    S    
C33   H14   S    
C28   C34   S    
Cu2   O5    S    
C13   C14   A    
C23   N2    A    
Cu2   O7    S    
C32   H15   S    
C26   H1    S    
H19   O2    S    
C33   H11   S    
C35   O2    S    
C17   H25   S    
Cu2   O9    S    
C1    O1    A    
C23   N3    A    
C4    O5    A    
Cu1   O4    S    
C15   H24   S    
C12   C26   A    
C16   O6    A    
C31   H18   S    
C22   H23   S    
C4    O4    A    
C37   C38   A    
C3    C9    A    
C25   C38   S    
Cu1   O1    S    
C31   C32   S    
C2    C23   S    
C17   C18   A    
C20   N6    A    
C34   N1    A    
C7    H21   S    
C25   O8    A    
C14   C16   S    
C34   N4    A    
C39   C40   A    
C19   H2    S    
C2    C36   A    
C15   C17   A    
C28   C29   A    
Cu2   N5    S    
C8    C14   A    
C12   C30   A    
C1    C10   S    
C3    C5    A    
C35   O10   D    
C6    C7    A    
C24   H4    S    
C32   C33   S    
C6    H20   S    
C35   C40   S    
N3    N4    A    
C37   H8    S    
C11   C13   A    
C24   N6    A    
C38   C39   A    
C13   H22   S    
Cu1   O8    S    
C16   O7    A    
C22   C24   A    
N1    N2    A    
C10   C11   A    
C2    C40   A    
C15   C21   A    
C20   C21   A    
Cu2   O3    S    
C27   C28   A    
C25   O9    A    
C22   N5    A    
C36   H7    S    
C5    C31   S    
