data_mof_unit_23647.cif
_audit_creation_date              2013-03-05T15:52:26-0500
_audit_creation_method            fapswitch 2.2
_symmetry_space_group_name_H-M    P1
_symmetry_Int_Tables_number       1
_space_group_crystal_system       triclinic
_cell_length_a                    27.784565
_cell_length_b                    10.841824
_cell_length_c                    9.637552
_cell_angle_alpha                 90.771396
_cell_angle_beta                  89.455509
_cell_angle_gamma                 93.463941
_cell_volume                      2897.4949952

loop_
_atom_site_label
_atom_site_type_symbol
_atom_site_description
_atom_site_fract_x
_atom_site_fract_y
_atom_site_fract_z
_atom_type_partial_charge
O1    O     O_R   0.500000 0.319640 0.618810 -0.587330
O2    O     O_R   0.500000 0.319660 0.381240 -0.603310
C1    C     C_R   0.502861 0.262916 0.500145 0.784690
O3    O     O_R   0.430260 0.500010 0.618770 -0.552332
O4    O     O_R   0.430270 0.500030 0.381200 -0.557444
C2    C     C_R   0.407506 0.503188 0.500853 0.831292
Cu1   Cu    Cu3+1 0.500000 0.499990 0.640660 0.973697
Cu2   Cu    Cu3+1 0.500000 0.500010 0.359340 0.946701
O5    O     O_R   0.500000 0.680340 0.618760 -0.530586
O6    O     O_R   0.500000 0.680360 0.381190 -0.607161
O7    O     O_R   0.569730 0.499970 0.618800 -0.565095
O8    O     O_R   0.569740 0.499990 0.381230 -0.592000
C3    C     C_R   0.495891 0.736686 0.501770 0.796253
C4    C     C_R   0.592314 0.503513 0.499785 0.867294
C5    C     C_R   0.175282 0.385163 0.476509 0.591627
O9    O     O_2   0.198308 0.279786 0.460311 -0.524294
N1    N     N_R   0.201339 0.495538 0.491096 -0.435938
C6    C     C_R   0.179221 0.604341 0.505250 0.533683
C7    C     C_R   0.276458 0.501056 0.624158 0.401367
C8    C     C_R   0.327231 0.513945 0.628042 0.330158
C9    C     C_R   0.329672 0.506561 0.375350 -0.285576
C10   C     C_R   0.279572 0.503284 0.372228 -0.192700
C11   C     C_R   0.252923 0.497879 0.495673 0.237496
C12   C     C_R   0.101134 0.491545 0.500754 -0.048620
C13   C     C_R   0.124627 0.381275 0.478981 -0.039191
C14   C     C_R   0.097173 0.269814 0.462472 -0.145957
C15   C     C_R   0.128827 0.604091 0.514312 -0.029771
C16   C     C_R   0.354263 0.508656 0.502283 -0.200938
H1    H     H_    0.349161 0.507923 0.277674 0.209188
H2    H     H_    0.261305 0.502822 0.273424 0.167925
H3    H     H_    0.114345 0.183472 0.447471 0.184681
C17   C     C_R   0.645020 0.502079 0.501726 -0.093853
C18   C     C_R   0.971249 0.377267 0.482503 0.040805
C19   C     C_R   0.976346 0.595746 0.558928 0.042062
C20   C     C_R   0.948516 0.485886 0.523807 0.069479
C21   C     C_R   0.941854 0.273266 0.438424 -0.207526
C22   C     C_R   0.891842 0.275339 0.438213 -0.147762
C23   C     C_R   0.869153 0.380303 0.483976 -0.021049
C24   C     C_R   0.897392 0.485078 0.528998 -0.045836
C25   C     C_R   0.874432 0.589480 0.578197 -0.018379
C26   C     C_R   0.823890 0.587172 0.581641 0.533462
N2    N     N_R   0.796976 0.486849 0.530488 -0.450701
C27   C     C_R   0.818685 0.384073 0.482600 0.538020
C28   C     C_R   0.714765 0.401832 0.584678 -0.100530
C29   C     C_R   0.665082 0.406401 0.573847 -0.325014
C30   C     C_R   0.674985 0.598150 0.442653 0.382988
C31   C     C_R   0.725617 0.588802 0.450571 -0.239510
C32   C     C_R   0.745370 0.492007 0.521710 0.307424
O10   O     O_2   0.791655 0.286651 0.431285 -0.554796
C33   C     C_R   0.022385 0.376808 0.484816 0.042134
C34   C     C_R   0.050035 0.489396 0.508789 0.072045
C35   C     C_R   0.027140 0.599977 0.540718 0.041581
C36   C     C_R   0.047045 0.267475 0.464422 -0.204388
H4    H     H_    0.641999 0.334938 0.622494 0.150867
H5    H     H_    0.729497 0.327898 0.642117 0.161886
H6    H     H_    0.870986 0.193818 0.401790 0.184424
H7    H     H_    0.956496 0.189880 0.398766 0.139870
H8    H     H_    0.028559 0.177634 0.453617 0.136791
O11   O     O_2   0.205993 0.712344 0.511437 -0.564004
C37   C     C_R   0.105780 0.713626 0.537191 -0.149330
H9    H     H_    0.126249 0.801616 0.546008 0.189757
C38   C     C_R   0.952260 0.697696 0.612056 -0.210115
C39   C     C_R   0.902287 0.694093 0.622261 -0.150820
O12   O     O_2   0.801795 0.684724 0.635506 -0.563671
C40   C     C_R   0.055938 0.711750 0.551141 -0.208969
H10   H     H_    0.971191 0.780901 0.650050 0.140325
H11   H     H_    0.885543 0.774834 0.663064 0.184662
H12   H     H_    0.750791 0.656202 0.404105 0.138639
H13   H     H_    0.040833 0.800289 0.565963 0.138706
H14   H     H_    0.496215 0.107545 0.281026 0.201710
C41   C     C_R   0.525926 0.121815 0.755327 -0.304072
H15   H     H_    0.546798 0.208563 0.750783 0.151018
C42   C     C_R   0.519623 0.063528 0.884949 0.494065
C43   C     C_R   0.494438 0.948660 0.888324 -0.186982
H16   H     H_    0.486278 0.905015 0.986941 0.145559
C44   C     C_R   0.481722 0.886117 0.765591 -0.204400
H17   H     H_    0.462327 0.797747 0.776170 0.175603
C45   C     C_R   0.492688 0.938932 0.634595 0.099158
C46   C     C_R   0.507697 0.065033 0.631321 0.046577
C47   C     C_R   0.505039 0.128475 0.503513 -0.094620
C48   C     C_R   0.497830 0.061520 0.379719 -0.204460
H18   H     H_    0.491160 0.884913 0.282375 0.172344
C49   C     C_R   0.493290 0.934019 0.380987 -0.201527
C50   C     C_R   0.491443 0.870873 0.507013 -0.120406
C51   C     C_R   0.575972 0.621982 0.143910 -0.080889
H19   H     H_    0.573001 0.661525 0.245755 0.233674
C52   C     C_R   0.620926 0.625755 0.079875 -0.241392
H20   H     H_    0.653556 0.646921 0.136422 0.214298
C53   C     C_R   0.623450 0.614790 0.937825 -0.364747
H21   H     H_    0.658591 0.629668 0.889517 0.157387
C54   C     C_R   0.580150 0.619265 0.862838 0.535124
C55   C     C_R   0.537716 0.562112 0.926119 0.089131
C56   C     C_R   0.536741 0.562930 0.074930 0.063277
N3    N     N_R   0.500460 0.501210 0.147910 -0.217761
C57   C     C_R   0.464938 0.435567 0.073361 0.348135
H22   H     H_    0.437847 0.384906 0.866340 0.186901
C58   C     C_R   0.465306 0.436981 0.924775 -0.088837
N4    N     N_R   0.500480 0.501290 0.852040 -0.229150
O13   O     O_3   0.249815 0.474923 0.743554 -0.552429
C59   C     C_3   0.240710 0.584614 0.817427 0.075528
H23   H     H_    0.240994 0.668109 0.751137 0.157095
H24   H     H_    0.268123 0.600542 0.899741 0.174194
C60   C     C_3   0.191474 0.568868 0.887543 -0.755801
H25   H     H_    0.190597 0.489728 0.959715 0.254125
H26   H     H_    0.184038 0.654023 0.947292 0.205792
H27   H     H_    0.163000 0.551488 0.808381 0.247594
O14   O     O_3   0.652809 0.698148 0.384758 -0.619382
C61   C     C_3   0.685173 0.797789 0.344668 0.041037
H28   H     H_    0.711075 0.767602 0.264251 0.144206
H29   H     H_    0.704910 0.837418 0.436457 0.174935
C62   C     C_3   0.657703 0.899559 0.278821 -0.816035
H30   H     H_    0.683381 0.977873 0.250620 0.221287
H31   H     H_    0.639284 0.864975 0.183164 0.246460
H32   H     H_    0.630331 0.934697 0.350806 0.248673
O15   O     O_3   0.533387 0.117671 0.011703 -0.603318
C63   C     C_3   0.575243 0.198014 0.001272 0.038811
H33   H     H_    0.565908 0.288661 0.959711 0.156425
H34   H     H_    0.603466 0.157195 0.934990 0.137918
C64   C     C_3   0.596211 0.221343 0.145099 -0.756837
H35   H     H_    0.604634 0.132549 0.192700 0.245238
H36   H     H_    0.629791 0.281954 0.137641 0.212621
H37   H     H_    0.570013 0.267853 0.212168 0.267626
N5    N     N_2   0.429097 0.361338 0.146091 -0.395479
H38   H     H_    0.442526 0.288137 0.196877 0.279461
C65   C     C_3   0.383077 0.330663 0.080922 -0.717233
H39   H     H_    0.356991 0.293686 0.160202 0.245850
H40   H     H_    0.386849 0.258239 0.999554 0.229915
H41   H     H_    0.368510 0.414228 0.035567 0.259298
O16   O     O_3   0.576547 0.698585 0.750611 -0.539426
C66   C     C_3   0.618757 0.776987 0.728470 0.060453
H42   H     H_    0.648145 0.722495 0.685395 0.162441
H43   H     H_    0.630689 0.825809 0.825902 0.142036
C67   C     C_3   0.609436 0.876588 0.625912 -0.752886
H44   H     H_    0.587515 0.945944 0.676317 0.230555
H45   H     H_    0.644177 0.924570 0.594777 0.202844
H46   H     H_    0.590936 0.835713 0.533403 0.272619
O17   O     O_3   0.349649 0.530608 0.755103 -0.558264
C68   C     C_3   0.360512 0.658913 0.775915 0.079082
H47   H     H_    0.328455 0.713764 0.759879 0.113210
H48   H     H_    0.389293 0.693560 0.702978 0.141624
C69   C     C_3   0.377747 0.683216 0.923742 -0.805226
H49   H     H_    0.412264 0.639803 0.940214 0.247592
H50   H     H_    0.383614 0.784280 0.942408 0.203818
H51   H     H_    0.350450 0.645354 0.999207 0.239749

loop_
_geom_bond_atom_site_label_1
_geom_bond_atom_site_label_2
_geom_bond_distance
_ccdc_geom_bond_type
C28   C32   1.397455 A    
C52   H20   1.073553 S    
C26   N2    1.370972 A    
C56   N3    1.369790 A    
Cu1   N4    2.037210 S    
C17   C29   1.402330 A    
C66   H43   1.114952 S    
C62   H30   1.110453 S    
C12   C15   1.407902 A    
C41   C46   1.420505 A    
C58   N4    1.360310 A    
C55   N4    1.390625 A    
N5    H38   1.028758 S    
C51   H19   1.070244 S    
C61   H28   1.112093 S    
Cu1   O7    1.946860 S    
C3    C50   1.467657 S    
N1    C11   1.433029 S    
C25   C39   1.397474 A    
C43   C44   1.393254 A    
C49   C50   1.401253 A    
C21   C22   1.391119 A    
C44   C45   1.416210 A    
C15   C37   1.396838 A    
C69   H50   1.110497 S    
O4    C2    1.310988 A    
O7    C4    1.302093 A    
N5    C65   1.448551 S    
C5    O9    1.349284 S    
C19   C38   1.413994 A    
C18   C21   1.414677 A    
C63   H33   1.112182 S    
Cu1   O5    1.969504 S    
C19   C20   1.419156 A    
C42   C43   1.391777 A    
H14   C48   1.082595 S    
O5    C3    1.298798 A    
C55   C56   1.434087 A    
C22   H6    1.083419 S    
C51   C56   1.399286 A    
C57   C58   1.432221 A    
C2    C16   1.484008 S    
C7    C8    1.409994 A    
C61   H29   1.112834 S    
C67   H46   1.107253 S    
O14   C61   1.418505 S    
C53   C54   1.412996 A    
C36   H8    1.077608 S    
C12   C34   1.419943 A    
C51   C52   1.386504 A    
C65   H39   1.110160 S    
C14   H3    1.083446 S    
C9    C10   1.390922 A    
H22   C58   1.079594 S    
C62   H32   1.105758 S    
O3    Cu1   1.951154 S    
C1    C47   1.463288 S    
C48   C49   1.380676 A    
N1    C6    1.367276 A    
C64   H36   1.110590 S    
C39   H11   1.083436 S    
C33   C36   1.415108 A    
C43   H16   1.083355 S    
C38   H10   1.077924 S    
C34   C35   1.419577 A    
Cu1   Cu2   2.711239 S    
Cu2   N3    2.037798 S    
C12   C13   1.408664 A    
C62   H31   1.108552 S    
C21   H7    1.077541 S    
C69   H51   1.110232 S    
C24   C25   1.407129 A    
C41   C42   1.412209 A    
C7    O13   1.385481 S    
C45   C46   1.405729 A    
C27   O10   1.349572 S    
C8    C16   1.422117 A    
C18   C33   1.421485 A    
C9    H1    1.081340 S    
O6    C3    1.312716 A    
C59   C60   1.521352 S    
C37   H9    1.083470 S    
O1    C1    1.295256 A    
C8    O17   1.383861 S    
C20   C24   1.420380 A    
C22   C23   1.398161 A    
C65   H41   1.110869 S    
C31   C32   1.403111 A    
Cu2   O8    1.951149 S    
C30   O14   1.403549 S    
C38   C39   1.389256 A    
C59   H24   1.109588 S    
C33   C34   1.419871 A    
C60   H26   1.110457 S    
C61   C62   1.527250 S    
N2    C32   1.441645 S    
C44   H17   1.076061 S    
C68   H48   1.111223 S    
O3    C2    1.307559 A    
C25   C26   1.403105 A    
C9    C16   1.406101 A    
O8    C4    1.307621 A    
C29   H4    1.084182 S    
C52   C53   1.374061 A    
C67   H44   1.101015 S    
C66   C67   1.509147 S    
N2    C27   1.371312 A    
C14   C36   1.391416 A    
C31   H12   1.079265 S    
C54   C55   1.433245 A    
C28   C29   1.389268 A    
C7    C11   1.404854 A    
C65   H40   1.110980 S    
O16   C66   1.422397 S    
C64   H37   1.108395 S    
C57   N5    1.426785 S    
C5    N1    1.366986 A    
C30   C31   1.419373 A    
C10   H2    1.083095 S    
O1    Cu1   1.963809 S    
C17   C30   1.415757 A    
O2    Cu2   1.969504 S    
C6    C15   1.401893 A    
C4    C17   1.465732 S    
C47   C48   1.397914 A    
C68   C69   1.521876 S    
C37   C40   1.389019 A    
O4    Cu2   1.946863 S    
C64   H35   1.110473 S    
C63   C64   1.520813 S    
C54   O16   1.398897 S    
O17   C68   1.417491 S    
C19   C35   1.418558 A    
C42   O15   1.394834 S    
O13   C59   1.412566 S    
O2    C1    1.313258 A    
C13   C14   1.397583 A    
C41   H15   1.075860 S    
C69   H49   1.107231 S    
C28   H5    1.082784 S    
C23   C24   1.407031 A    
C40   H13   1.077892 S    
C59   H23   1.114583 S    
C18   C20   1.420103 A    
C63   H34   1.115195 S    
C66   H42   1.110559 S    
C60   H27   1.110414 S    
N3    C57   1.382620 A    
C5    C13   1.405489 A    
C68   H47   1.113532 S    
C46   C47   1.423542 A    
C45   C50   1.425061 A    
C6    O11   1.349702 S    
C23   C27   1.405509 A    
Cu2   O6    1.963809 S    
H18   C49   1.083427 S    
C60   H25   1.110780 S    
C67   H45   1.109261 S    
C10   C11   1.395336 A    
C26   O12   1.350022 S    
C53   H21   1.081885 S    
C35   C40   1.414187 A    
O15   C63   1.413866 S    
