data_mof_unit_51154.cif
_audit_creation_date              2012-12-10T19:04:12-0500
_audit_creation_method            fapswitch 2.2
_symmetry_space_group_name_H-M    P1
_symmetry_Int_Tables_number       1
_space_group_crystal_system       triclinic
_cell_length_a                    10.632678
_cell_length_b                    10.833709
_cell_length_c                    9.576414
_cell_angle_alpha                 90.662146
_cell_angle_beta                  90.064244
_cell_angle_gamma                 90.693788
_cell_volume                      1102.96454804

loop_
_atom_site_label
_atom_site_type_symbol
_atom_type_description
_atom_site_fract_x
_atom_site_fract_y
_atom_site_fract_z
_atom_type_partial_charge
C1    C     C_R   0.496815 0.262485 0.499267 0.786313
C2    C     C_3   0.958735 0.498917 0.366386 -0.180715
C3    C     C_3   0.040253 0.397575 0.433172 -0.207244
C4    C     C_3   0.122673 0.499095 0.500952 0.001625
C5    C     C_R   0.473796 0.065515 0.623009 0.131866
C6    C     C_R   0.482896 0.129443 0.497838 -0.099804
C7    C     C_R   0.473913 0.062803 0.371403 -0.224423
C8    C     C_R   0.474679 0.934030 0.372320 -0.190455
C9    C     C_R   0.484498 0.870944 0.499666 -0.096039
C10   C     C_R   0.474542 0.938441 0.624145 0.140630
C11   C     C_3   0.553431 0.936894 0.753230 -0.496281
C12   C     C_R   0.259461 0.499792 0.500110 0.829703
C13   C     C_3   0.551989 0.076759 0.751992 -0.452900
C14   C     C_R   0.605656 0.532757 0.074178 0.190154
C15   C     C_R   0.401816 0.449934 0.071551 0.457677
C16   C     C_R   0.400888 0.454038 0.923712 -0.085682
C17   C     C_R   0.606333 0.531031 0.927279 0.241267
C18   C     C_3   0.678440 0.649549 0.922713 -0.489355
C19   C     C_3   0.676142 0.652185 0.081469 -0.477187
C20   C     C_R   0.497641 0.737726 0.500400 0.807686
C21   C     C_R   0.740537 0.500150 0.499913 0.801786
C22   C     C_3   0.040667 0.500251 0.633255 -0.190169
C23   C     C_3   0.956252 0.398539 0.565412 -0.157033
C24   C     C_3   0.877285 0.500201 0.499279 -0.048289
C25   C     C_3   0.959151 0.602131 0.567491 -0.244306
C26   C     C_3   0.041948 0.598169 0.436500 0.448535
Cu1   Cu    Cu3+1 0.499990 0.499980 0.640670 0.939471
Cu2   Cu    Cu3+1 0.500010 0.500020 0.359330 0.960942
H1    H     H_    0.917377 0.316038 0.618739 0.138244
H2    H     H_    0.648539 0.898621 0.734079 0.192868
H3    H     H_    0.498925 0.117667 0.840784 0.200606
H4    H     H_    0.646022 0.119226 0.732504 0.197171
H5    H     H_    0.320689 0.416885 0.867035 0.163378
H6    H     H_    0.774250 0.637443 0.878637 0.196831
H7    H     H_    0.623158 0.723793 0.875424 0.209309
H8    H     H_    0.770826 0.642206 0.128937 0.191207
H9    H     H_    0.619040 0.728490 0.125675 0.207427
H10   H     H_    0.076459 0.500072 0.742216 0.158750
H11   H     H_    0.923612 0.686426 0.620517 0.134223
H12   H     H_    0.923799 0.499991 0.257144 0.145622
H13   H     H_    0.076365 0.314036 0.379110 0.155344
H14   H     H_    0.473051 0.109462 0.271986 0.163356
H15   H     H_    0.474011 0.884790 0.273257 0.165895
H16   H     H_    0.501227 0.897938 0.843383 0.201955
N1    N     N_R   0.500800 0.500930 0.147930 -0.234604
N2    N     N_R   0.500800 0.500890 0.852020 -0.222283
O1    O     O_R   0.500000 0.319640 0.618810 -0.579465
O2    O     O_R   0.500010 0.319680 0.381230 -0.615310
O3    O     O_R   0.316850 0.499950 0.618770 -0.605346
O4    O     O_R   0.316860 0.499990 0.381190 -0.536921
O5    O     O_R   0.499990 0.680320 0.618770 -0.576997
O6    O     O_R   0.500000 0.680360 0.381190 -0.578255
O7    O     O_R   0.683140 0.500010 0.618810 -0.578254
O8    O     O_R   0.683150 0.500050 0.381230 -0.587250
O9    O     O_3   0.302048 0.391345 0.134084 -0.736456
H17   H     H_    0.336934 0.342107 0.210659 0.348194
O10   O     O_3   0.091281 0.701941 0.369495 -0.727936
H18   H     H_    0.017189 0.748542 0.337429 0.310924

loop_
_geom_bond_atom_site_label_1
_geom_bond_atom_site_label_2
_ccdc_geom_bond_type
C12   O4    A    
O9    H17   S    
Cu1   O7    S    
C1    O2    A    
C6    C7    A    
C16   H5    S    
C4    C12   S    
C4    C22   S    
C18   H7    S    
C9    C20   S    
C3    C23   S    
C8    H15   S    
C23   C24   S    
C12   O3    A    
C24   C25   S    
C11   H16   S    
C2    C26   S    
C25   H11   S    
C21   O7    A    
Cu2   O6    S    
C14   C17   A    
O10   H18   S    
C21   O8    A    
Cu2   O4    S    
Cu1   O3    S    
C23   H1    S    
Cu1   N2    S    
C5    C10   A    
Cu1   O5    S    
C17   C18   S    
C20   O5    A    
C2    C3    S    
C19   H8    S    
C18   H6    S    
C2    C24   S    
C5    C6    A    
C26   O10   S    
Cu2   N1    S    
C21   C24   S    
C4    C26   S    
C10   C11   S    
C15   N1    A    
Cu1   O1    S    
C15   C16   A    
C22   H10   S    
C2    H12   S    
C11   C13   S    
C17   N2    A    
C3    H13   S    
C20   O6    A    
C18   C19   S    
C9    C10   A    
C7    H14   S    
C16   N2    A    
Cu1   Cu2   S    
C7    C8    A    
Cu2   O8    S    
C22   C23   S    
Cu2   O2    S    
C19   H9    S    
C14   N1    A    
C25   C26   S    
C13   H4    S    
C5    C13   S    
C14   C19   S    
C13   H3    S    
C1    O1    A    
C3    C4    S    
C1    C6    S    
C11   H2    S    
C8    C9    A    
C22   C25   S    
C15   O9    S    
