data_mof_unit_6604.cif
_audit_creation_date              2012-10-26T20:04:04-0400
_audit_creation_method            fapswitch 2.2
_symmetry_space_group_name_H-M    P1
_symmetry_Int_Tables_number       1
_space_group_crystal_system       triclinic
_cell_length_a                    15.007573
_cell_length_b                    13.955786
_cell_length_c                    14.321963
_cell_angle_alpha                 90.099055
_cell_angle_beta                  85.814314
_cell_angle_gamma                 90.948471
_cell_volume                      2991.21633072

loop_
_atom_site_label
_atom_site_type_symbol
_atom_type_description
_atom_site_fract_x
_atom_site_fract_y
_atom_site_fract_z
_atom_type_partial_charge
C1    C     C_R   0.329051 0.499424 0.500697 0.535418
C2    C     C_R   0.962965 0.612893 0.371239 -0.127818
C3    C     C_R   0.446303 0.793975 0.566690 0.136486
C4    C     C_R   0.557519 0.204284 0.437959 0.131431
C5    C     C_R   0.551469 0.796384 0.432248 0.136534
C6    C     C_R   0.441897 0.202954 0.562105 0.131616
C7    C     C_R   0.542418 0.898244 0.425460 -0.005193
C8    C     C_R   0.452335 0.101821 0.571228 -0.011733
C9    C     C_R   0.452341 0.896509 0.572215 -0.002580
C10   C     C_R   0.544597 0.103222 0.427541 -0.012017
C11   C     C_R   0.497665 0.948377 0.499032 0.029079
C12   C     C_R   0.670872 0.500396 0.499554 0.534197
C13   C     C_R   0.498118 0.051150 0.499238 0.028687
C14   C     C_R   0.579825 0.952295 0.348202 -0.153527
C15   C     C_R   0.413073 0.049320 0.647763 -0.155422
C16   C     C_R   0.412506 0.949410 0.648150 -0.153131
C17   C     C_R   0.581539 0.052243 0.349683 -0.155942
C18   C     C_R   0.500132 0.499965 0.331355 0.525567
C19   C     C_R   0.500098 0.500094 0.668627 0.525292
C20   C     C_1   0.500376 0.499833 0.228946 -0.062293
C21   C     C_1   0.500260 0.500158 0.771006 -0.062593
C22   C     C_1   0.500546 0.499726 0.143442 -0.056173
C23   C     C_R   0.953104 0.498563 0.500216 0.038886
C24   C     C_1   0.500384 0.499981 0.856485 -0.055754
C25   C     C_1   0.500598 0.499696 0.042703 -0.014135
C26   C     C_1   0.500533 0.499776 0.957204 -0.013992
C27   C     C_R   0.818959 0.555373 0.435452 -0.148977
C28   C     C_R   0.180980 0.440008 0.561897 -0.154980
C29   C     C_R   0.767338 0.500204 0.500154 -0.012990
C30   C     C_R   0.232491 0.498650 0.499839 -0.014474
C31   C     C_R   0.807452 0.441676 0.563384 -0.144914
C32   C     C_R   0.192138 0.558496 0.437952 -0.139780
C33   C     C_R   0.900816 0.440159 0.565137 0.021649
C34   C     C_R   0.046681 0.499397 0.499445 0.038841
C35   C     C_R   0.098854 0.559016 0.435521 0.021682
C36   C     C_3   0.892213 0.319310 0.701809 -0.257173
C37   C     C_3   0.854123 0.379072 0.785055 -0.294216
C38   C     C_3   0.797998 0.317015 0.855347 -0.453454
C39   C     C_3   0.107034 0.682183 0.300765 -0.256152
C40   C     C_3   0.135031 0.775702 0.347769 -0.296329
C41   C     C_3   0.193436 0.838480 0.280177 -0.453308
C42   C     C_3   0.373913 0.744267 0.630902 -0.207595
C43   C     C_3   0.280098 0.767191 0.601295 -0.313765
C44   C     C_3   0.207313 0.714998 0.662621 -0.457514
C45   C     C_R   0.911658 0.555830 0.435413 0.002617
C46   C     C_3   0.648148 0.243283 0.396920 -0.200877
C47   C     C_3   0.645629 0.300479 0.305398 -0.268833
C48   C     C_3   0.725699 0.279918 0.236559 -0.483150
C49   C     C_3   0.622033 0.750366 0.365194 -0.211670
C50   C     C_3   0.717122 0.788283 0.381156 -0.319611
C51   C     C_3   0.778841 0.782250 0.291791 -0.473136
C52   C     C_3   0.353255 0.241099 0.605802 -0.203629
C53   C     C_3   0.359023 0.294685 0.699339 -0.274333
C54   C     C_3   0.282264 0.267814 0.771139 -0.484972
C55   C     C_R   0.088213 0.440471 0.562804 0.001787
C56   C     C_R   0.943447 0.382201 0.629389 -0.000434
C57   C     C_R   0.056194 0.616404 0.370839 -0.000807
C58   C     C_R   0.036908 0.382917 0.626674 -0.126353
Cu1   Cu    Cu3+1 0.500000 0.597420 0.500000 0.891825
Cu2   Cu    Cu3+1 0.500000 0.402580 0.500000 0.899256
H1    H     H_    0.786608 0.595867 0.383775 0.101800
H2    H     H_    0.612400 0.089469 0.289168 0.115620
H3    H     H_    0.740479 0.284146 0.821723 0.155328
H4    H     H_    0.839244 0.259512 0.882734 0.148104
H5    H     H_    0.771899 0.361980 0.914946 0.144883
H6    H     H_    0.910075 0.412754 0.820766 0.161678
H7    H     H_    0.811771 0.437263 0.760921 0.166531
H8    H     H_    0.838618 0.278156 0.669197 0.135625
H9    H     H_    0.936959 0.264605 0.728709 0.132933
H10   H     H_    0.255675 0.800607 0.256765 0.156057
H11   H     H_    0.156716 0.856852 0.218210 0.149038
H12   H     H_    0.213088 0.395995 0.611167 0.098930
H13   H     H_    0.211864 0.905849 0.315938 0.145076
H14   H     H_    0.074333 0.815905 0.372165 0.160491
H15   H     H_    0.172684 0.760284 0.409671 0.159250
H16   H     H_    0.165635 0.645026 0.266600 0.138479
H17   H     H_    0.064528 0.700485 0.243069 0.132071
H18   H     H_    0.216666 0.636292 0.658765 0.160104
H19   H     H_    0.209020 0.738720 0.736541 0.146570
H20   H     H_    0.140828 0.731395 0.637852 0.149391
H21   H     H_    0.267675 0.845290 0.605618 0.157070
H22   H     H_    0.275051 0.744649 0.527471 0.177508
H23   H     H_    0.764500 0.398661 0.611185 0.119026
H24   H     H_    0.377753 0.667045 0.632812 0.212641
H25   H     H_    0.380940 0.763764 0.705063 0.096503
H26   H     H_    0.789036 0.296715 0.269239 0.155317
H27   H     H_    0.725096 0.203536 0.214746 0.144362
H28   H     H_    0.722590 0.325237 0.173246 0.144300
H29   H     H_    0.583389 0.283630 0.270617 0.172200
H30   H     H_    0.649001 0.378066 0.321196 0.186354
H31   H     H_    0.685580 0.280106 0.449862 0.162374
H32   H     H_    0.694345 0.182515 0.383717 0.105318
H33   H     H_    0.779674 0.708202 0.263405 0.141331
H34   H     H_    0.234873 0.603073 0.391397 0.121662
H35   H     H_    0.755871 0.831339 0.237860 0.149397
H36   H     H_    0.847717 0.804261 0.307009 0.141512
H37   H     H_    0.717631 0.863850 0.405206 0.169151
H38   H     H_    0.744899 0.746313 0.437711 0.171717
H39   H     H_    0.625026 0.672848 0.369782 0.201998
H40   H     H_    0.604681 0.762919 0.292204 0.110096
H41   H     H_    0.216894 0.280930 0.742251 0.139076
H42   H     H_    0.285537 0.191295 0.791239 0.145408
H43   H     H_    0.287024 0.312238 0.835046 0.148630
H44   H     H_    0.423218 0.279816 0.730237 0.175270
H45   H     H_    0.070047 0.338813 0.675427 0.095788
H46   H     H_    0.353969 0.372609 0.686882 0.177490
H47   H     H_    0.316890 0.279816 0.554661 0.162979
H48   H     H_    0.304615 0.180573 0.617054 0.105280
H49   H     H_    0.930021 0.655936 0.321661 0.101166
H50   H     H_    0.610384 0.918760 0.286202 0.116116
H51   H     H_    0.382338 0.085200 0.708457 0.116229
H52   H     H_    0.379809 0.915482 0.709257 0.110073
N1    N     N_R   0.500000 0.743810 0.500000 -0.224256
N2    N     N_R   0.500000 0.256190 0.500000 -0.214282
O1    O     O_R   0.370260 0.582280 0.500020 -0.511675
O2    O     O_R   0.629740 0.417720 0.499980 -0.512128
O3    O     O_R   0.629740 0.582280 0.499980 -0.503604
O4    O     O_R   0.370260 0.417720 0.500020 -0.503383
O5    O     O_R   0.500000 0.582290 0.376050 -0.497845
O6    O     O_R   0.500000 0.417710 0.623950 -0.484050
O7    O     O_R   0.500000 0.582290 0.623950 -0.494860
O8    O     O_R   0.500000 0.417710 0.376050 -0.480342

loop_
_geom_bond_atom_site_label_1
_geom_bond_atom_site_label_2
_ccdc_geom_bond_type
Cu1   O7    S    
C32   H34   S    
C3    C42   S    
C8    C13   A    
C23   C45   A    
C12   C29   S    
C27   C29   A    
C54   H41   S    
Cu2   N2    S    
C2    C57   A    
C2    H49   S    
C4    C46   S    
C53   C54   S    
C52   C53   S    
C7    C11   A    
C36   C56   S    
C39   H17   S    
C4    N2    A    
C36   C37   S    
C19   C21   S    
C9    C16   A    
C24   C26   S    
C46   H32   S    
C53   H44   S    
C15   C16   A    
C39   C57   S    
C31   H23   S    
C34   C35   A    
C6    N2    A    
C27   H1    S    
C53   H46   S    
C7    C14   A    
C52   H47   S    
C40   H14   S    
C23   C33   A    
C22   C25   S    
C48   H28   S    
Cu2   O4    S    
C51   H36   S    
C41   H11   S    
C27   C45   A    
C33   C56   A    
C34   C55   A    
Cu1   O3    S    
C47   H29   S    
C14   C17   A    
C5    C49   S    
C28   H12   S    
C28   C55   A    
C38   H4    S    
C2    C45   A    
C50   H38   S    
C32   C35   A    
C15   H51   S    
C54   H43   S    
C44   H20   S    
C42   H24   S    
C3    N1    A    
C39   C40   S    
C5    C7    A    
C6    C8    A    
C46   H31   S    
C25   C26   T    
C43   C44   S    
C37   C38   S    
C3    C9    A    
C17   H2    S    
C49   H39   S    
C47   C48   S    
C38   H5    S    
Cu1   N1    S    
C23   C34   A    
C37   H6    S    
C31   C33   A    
C50   C51   S    
C48   H27   S    
C42   H25   S    
C39   H16   S    
Cu2   O8    S    
C9    C11   A    
C51   H33   S    
C40   C41   S    
C18   O8    A    
C19   O6    A    
C8    C15   A    
C43   H21   S    
C47   H30   S    
C48   H26   S    
Cu2   O2    S    
C42   C43   S    
C21   C24   T    
C4    C10   A    
C36   H9    S    
C16   H52   S    
C38   H3    S    
C14   H50   S    
C46   C47   S    
C19   O7    A    
C50   H37   S    
Cu1   O5    S    
C5    N1    A    
C54   H42   S    
C44   H19   S    
C20   C22   T    
C10   C13   A    
C36   H8    S    
C1    O1    A    
C40   H15   S    
C35   C57   A    
C58   H45   S    
C44   H18   S    
C29   C31   A    
C49   H40   S    
C30   C32   A    
C11   C13   A    
C37   H7    S    
C28   C30   A    
C1    C30   S    
C56   C58   A    
Cu2   O6    S    
C18   C20   S    
C1    O4    A    
C41   H13   S    
C12   O3    A    
Cu1   Cu2   S    
C52   H48   S    
Cu1   O1    S    
C49   C50   S    
C55   C58   A    
C43   H22   S    
C10   C17   A    
C6    C52   S    
C18   O5    A    
C51   H35   S    
C41   H10   S    
C12   O2    A    
