data_mof_unit_14343.cif
_audit_creation_date              2012-12-10T20:49:27-0500
_audit_creation_method            fapswitch 2.2
_symmetry_space_group_name_H-M    P1
_symmetry_Int_Tables_number       1
_space_group_crystal_system       triclinic
_cell_length_a                    15.794792
_cell_length_b                    8.923952
_cell_length_c                    8.117306
_cell_angle_alpha                 89.967497
_cell_angle_beta                  89.986242
_cell_angle_gamma                 89.956869
_cell_volume                      1144.1496954

loop_
_atom_site_label
_atom_site_type_symbol
_atom_type_description
_atom_site_fract_x
_atom_site_fract_y
_atom_site_fract_z
_atom_type_partial_charge
C1    C     C_1   0.500002 0.065217 0.500042 -0.147169
C2    C     C_3   0.971578 0.597299 0.612842 -0.124760
C3    C     C_1   0.249186 0.500604 0.500060 -0.068143
C4    C     C_1   0.750814 0.499396 0.499940 -0.068142
C5    C     C_3   0.028115 0.459972 0.649359 -0.110432
C6    C     C_3   0.971885 0.540028 0.350641 -0.110432
C7    C     C_3   0.083746 0.500604 0.500148 0.124392
C8    C     C_3   0.916254 0.499396 0.499852 0.124392
C9    C     C_1   0.174285 0.500831 0.500142 0.170649
C10   C     C_1   0.825715 0.499168 0.499858 0.170648
C11   C     C_2   0.057555 0.292026 0.260283 0.417705
C12   C     C_1   0.499998 0.934783 0.499957 -0.147169
C13   C     C_2   0.942445 0.707974 0.739717 0.417705
C14   C     C_2   0.944008 0.206046 0.577508 0.387582
C15   C     C_2   0.055992 0.793954 0.422492 0.387581
C16   C     C_2   0.943149 0.586094 0.182104 0.392428
C17   C     C_2   0.056851 0.413906 0.817896 0.392429
C18   C     C_R   0.500006 0.218040 0.500030 0.937226
C19   C     C_R   0.499994 0.781960 0.499970 0.937226
C20   C     C_R   0.337621 0.500167 0.499993 0.892884
C21   C     C_R   0.662379 0.499833 0.500007 0.892885
C22   C     C_3   0.972289 0.362067 0.536376 -0.105175
C23   C     C_3   0.027711 0.637933 0.463624 -0.105175
C24   C     C_3   0.028422 0.402701 0.387158 -0.124760
H1    H     H_    0.011121 0.229378 0.190125 0.067074
H2    H     H_    0.988879 0.770622 0.809875 0.067074
H3    H     H_    0.990916 0.119929 0.601419 0.074051
H4    H     H_    0.009084 0.880071 0.398580 0.074051
H5    H     H_    0.989782 0.617392 0.090394 0.061117
H6    H     H_    0.010217 0.382608 0.909606 0.061117
N1    N     N_1   0.500010 0.500000 0.073640 -0.009172
N2    N     N_1   0.499990 0.500000 0.926360 -0.009172
O1    O     O_R   0.500000 0.285340 0.636850 -0.613303
O2    O     O_2   0.867152 0.728455 0.764548 -0.509730
O3    O     O_2   0.868882 0.175083 0.584377 -0.542501
O4    O     O_2   0.131118 0.824917 0.415622 -0.542501
O5    O     O_2   0.868029 0.589206 0.147429 -0.522851
O6    O     O_2   0.131971 0.410793 0.852571 -0.522851
O7    O     O_R   0.500000 0.714660 0.363150 -0.613303
O8    O     O_R   0.500000 0.285340 0.363150 -0.613162
O9    O     O_R   0.500000 0.714660 0.636850 -0.613162
O10   O     O_R   0.376770 0.500000 0.636850 -0.605616
O11   O     O_R   0.623230 0.500000 0.363150 -0.605617
O12   O     O_R   0.376780 0.500000 0.363100 -0.601980
O13   O     O_R   0.623220 0.500000 0.636900 -0.601980
O14   O     O_2   0.132847 0.271544 0.235452 -0.509730
Zn1   Zn    Zn3+2 0.499990 0.500000 0.682780 1.048883
Zn2   Zn    Zn3+2 0.500010 0.500000 0.317220 1.048883

loop_
_geom_bond_atom_site_label_1
_geom_bond_atom_site_label_2
_ccdc_geom_bond_type
C20   O10   A    
C3    C9    T    
C14   H3    S    
C5    C7    S    
O11   Zn2   S    
C11   C24   S    
C8    C22   S    
N1    N2    T    
C16   O5    D    
O10   Zn1   S    
C6    C24   S    
C14   C22   S    
C15   C23   S    
O9    Zn1   S    
C3    C20   S    
C4    C21   S    
C17   H6    S    
C1    C18   S    
C1    C12   T    
C19   O7    A    
C7    C23   S    
C6    C23   S    
C12   C19   S    
N2    Zn1   S    
C20   O12   A    
C21   O13   A    
N1    Zn2   S    
O13   Zn1   S    
O1    Zn1   S    
C18   O1    A    
C22   C24   S    
C13   H2    S    
C2    C5    S    
C5    C17   S    
C11   H1    S    
C4    C10   T    
C7    C24   S    
C15   H4    S    
C19   O9    A    
C15   O4    D    
C13   O2    D    
C17   O6    D    
C8    C10   S    
C2    C23   S    
C7    C9    S    
C2    C13   S    
C18   O8    A    
O8    Zn2   S    
C11   O14   D    
C6    C8    S    
C16   H5    S    
C21   O11   A    
C6    C16   S    
C14   O3    D    
C2    C8    S    
C5    C22   S    
O12   Zn2   S    
O7    Zn2   S    
