data_mof_unit_8574.cif
_audit_creation_date              2012-12-11T14:30:14-0500
_audit_creation_method            fapswitch 2.2
_symmetry_space_group_name_H-M    P1
_symmetry_Int_Tables_number       1
_space_group_crystal_system       triclinic
_cell_length_a                    12.730275
_cell_length_b                    12.730284
_cell_length_c                    27.197147
_cell_angle_alpha                 90.000596
_cell_angle_beta                  90.000294
_cell_angle_gamma                 120.001538
_cell_volume                      3817.00850156

loop_
_atom_site_label
_atom_site_type_symbol
_atom_type_description
_atom_site_fract_x
_atom_site_fract_y
_atom_site_fract_z
_atom_type_partial_charge
Br1   Br    Br    0.873050 0.135477 0.072474 -0.104713
Br2   Br    Br    0.231743 0.105816 0.953386 -0.042713
Br3   Br    Br    0.127092 0.262572 0.572488 -0.104995
Br4   Br    Br    0.874084 0.768291 0.953392 -0.042697
Br5   Br    Br    0.125885 0.894101 0.453382 -0.042832
Br6   Br    Br    0.864517 0.737537 0.072487 -0.104744
Br7   Br    Br    0.105911 0.231816 0.453394 -0.042869
Br8   Br    Br    0.262467 0.126987 0.072481 -0.104799
Br9   Br    Br    0.768255 0.874067 0.453396 -0.042735
Br10  Br    Br    0.135418 0.872909 0.572470 -0.105103
Br11  Br    Br    0.894164 0.125924 0.953371 -0.042750
Br12  Br    Br    0.737498 0.864509 0.572491 -0.104811
C1    C     C_R   0.561584 0.455212 0.823018 0.606026
C2    C     C_R   0.454918 0.558531 0.177649 0.599963
C3    C     C_R   0.090583 0.361250 0.483478 0.231237
C4    C     C_R   0.363800 0.082656 0.034873 0.240813
C5    C     C_R   0.638777 0.729328 0.483479 0.231251
C6    C     C_R   0.281114 0.917307 0.534872 0.240829
C7    C     C_R   0.909447 0.270659 0.983469 0.231229
C8    C     C_R   0.636161 0.718849 0.534878 0.240762
C9    C     C_R   0.361198 0.090528 0.983474 0.231267
C10   C     C_R   0.082705 0.363855 0.534876 0.240785
C11   C     C_R   0.729327 0.638823 0.983475 0.231276
C12   C     C_R   0.438413 0.893622 0.323019 0.606032
C13   C     C_R   0.103611 0.545079 0.177649 0.599946
C14   C     C_R   0.991183 0.488549 0.975045 -0.152749
C15   C     C_R   0.501588 0.009386 0.526307 -0.150236
C16   C     C_R   0.511442 0.502664 0.975043 -0.152771
C17   C     C_R   0.990544 0.492157 0.526296 -0.150282
C18   C     C_R   0.497355 0.008806 0.975045 -0.152756
C19   C     C_R   0.507826 0.498382 0.526299 -0.150200
C20   C     C_R   0.488533 0.991162 0.475050 -0.152747
C21   C     C_R   0.896377 0.441462 0.677647 0.599948
C22   C     C_R   0.009428 0.501609 0.026300 -0.150266
C23   C     C_R   0.502646 0.511445 0.475043 -0.152739
C24   C     C_R   0.492174 0.990564 0.026300 -0.150283
C25   C     C_R   0.008799 0.497347 0.475042 -0.152764
C26   C     C_R   0.498382 0.507845 0.026298 -0.150284
C27   C     C_R   0.097662 0.708060 0.965333 0.460704
C28   C     C_R   0.721316 0.114375 0.515972 0.449522
C29   C     C_R   0.291940 0.389620 0.965327 0.460710
C30   C     C_R   0.885441 0.606767 0.515946 0.449551
C31   C     C_R   0.610393 0.902342 0.965330 0.460703
C32   C     C_R   0.544791 0.106379 0.823019 0.606035
C33   C     C_R   0.393184 0.278665 0.515950 0.449545
C34   C     C_R   0.708040 0.097633 0.465340 0.460713
C35   C     C_R   0.114426 0.721338 0.015964 0.449506
C36   C     C_R   0.389670 0.291945 0.465321 0.460740
C37   C     C_R   0.606906 0.885575 0.015960 0.449502
C38   C     C_R   0.902253 0.610296 0.465318 0.460741
C39   C     C_R   0.278663 0.393135 0.015957 0.449517
C40   C     C_R   0.003619 0.577441 0.893877 0.421399
C41   C     C_R   0.632886 0.091420 0.597572 0.362234
C42   C     C_R   0.422561 0.426186 0.893876 0.421413
C43   C     C_R   0.558530 0.454917 0.677649 0.600052
C44   C     C_R   0.908331 0.541241 0.597545 0.362239
C45   C     C_R   0.573816 0.996384 0.893876 0.421460
C46   C     C_R   0.458700 0.367086 0.597552 0.362260
C47   C     C_R   0.577427 0.003604 0.393883 0.421424
C48   C     C_R   0.091520 0.632903 0.097561 0.362181
C49   C     C_R   0.426206 0.422564 0.393873 0.421441
C50   C     C_R   0.541381 0.908470 0.097560 0.362173
C51   C     C_R   0.996359 0.573786 0.393872 0.421429
C52   C     C_R   0.367093 0.458674 0.097554 0.362210
C53   C     C_R   0.052544 0.530539 0.127875 0.026697
C54   C     C_R   0.893622 0.438415 0.823018 0.606023
C55   C     C_R   0.460833 0.935609 0.374361 0.036959
C56   C     C_R   0.469450 0.522013 0.127873 0.026726
C57   C     C_R   0.064390 0.525225 0.374358 0.036990
C58   C     C_R   0.477999 0.947453 0.127875 0.026628
C59   C     C_R   0.474785 0.539160 0.374358 0.037000
C60   C     C_R   0.530522 0.052497 0.627882 0.026598
C61   C     C_R   0.935602 0.460837 0.874360 0.036925
C62   C     C_R   0.522009 0.469444 0.627873 0.026823
C63   C     C_R   0.525221 0.064385 0.874359 0.036997
C64   C     C_R   0.947412 0.477971 0.627869 0.026671
C65   C     C_R   0.545077 0.103602 0.677651 0.599917
C66   C     C_R   0.539158 0.474789 0.874358 0.036947
C67   C     C_R   0.031579 0.592222 0.944445 -0.030384
C68   C     C_R   0.619226 0.070378 0.546860 -0.032750
C69   C     C_R   0.407776 0.439378 0.944441 -0.030384
C70   C     C_R   0.929452 0.548700 0.546840 -0.032631
C71   C     C_R   0.560634 0.968419 0.944443 -0.030373
C72   C     C_R   0.451259 0.380746 0.546844 -0.032646
C73   C     C_R   0.592205 0.031558 0.444450 -0.030394
C74   C     C_R   0.070444 0.619247 0.046852 -0.032731
C75   C     C_R   0.439394 0.407780 0.444438 -0.030366
C76   C     C_R   0.455214 0.561581 0.323016 0.606058
C77   C     C_R   0.548798 0.929550 0.046850 -0.032740
C78   C     C_R   0.968380 0.560591 0.444437 -0.030374
C79   C     C_R   0.380748 0.451241 0.046846 -0.032684
C80   C     C_R   0.900722 0.358865 0.904766 0.351072
C81   C     C_R   0.414055 0.983772 0.608078 0.404401
C82   C     C_R   0.641120 0.541924 0.904762 0.351102
C83   C     C_R   0.016239 0.430348 0.608073 0.404313
C84   C     C_R   0.458102 0.099229 0.904764 0.351104
C85   C     C_R   0.569646 0.585894 0.608075 0.404481
C86   C     C_R   0.358867 0.900759 0.404764 0.351092
C87   C     C_R   0.441471 0.896390 0.177649 0.599911
C88   C     C_R   0.983782 0.414085 0.108070 0.404513
C89   C     C_R   0.541893 0.641122 0.404765 0.351101
C90   C     C_R   0.430308 0.016219 0.108073 0.404456
C91   C     C_R   0.099258 0.458133 0.404765 0.351080
C92   C     C_R   0.585901 0.569677 0.108072 0.404444
C93   C     C_R   0.933797 0.371898 0.954266 0.015849
C94   C     C_R   0.397363 0.966519 0.556870 0.030524
C95   C     C_R   0.628088 0.561943 0.954265 0.015873
C96   C     C_R   0.033464 0.430867 0.556866 0.030448
C97   C     C_R   0.438079 0.066175 0.954267 0.015865
C98   C     C_R   0.106377 0.544790 0.323018 0.606054
C99   C     C_R   0.569126 0.602596 0.556868 0.030577
C100  C     C_R   0.371891 0.933801 0.454268 0.015892
C101  C     C_R   0.966549 0.397388 0.056863 0.030521
C102  C     C_R   0.561906 0.628090 0.454268 0.015900
C103  C     C_R   0.430838 0.033445 0.056866 0.030481
C104  C     C_R   0.066205 0.438109 0.454268 0.015874
C105  C     C_R   0.602599 0.569164 0.056865 0.030477
C106  C     C_R   0.917340 0.281136 0.034869 0.240822
C107  C     C_R   0.270647 0.909435 0.483473 0.231298
C108  C     C_R   0.718851 0.636206 0.034874 0.240797
Cr1   Cr    Cr6+3 0.487630 0.241180 0.750000 1.250660
Cr2   Cr    Cr6+3 0.753550 0.512370 0.750000 1.250626
Cr3   Cr    Cr6+3 0.758820 0.246450 0.750000 1.250655
Cr4   Cr    Cr6+3 0.241180 0.487630 0.250000 1.250636
Cr5   Cr    Cr6+3 0.512370 0.753550 0.250000 1.250644
Cr6   Cr    Cr6+3 0.246450 0.758820 0.250000 1.250655
F1    F     F_    0.156657 0.746101 0.116982 -0.523409
F2    F     F_    0.636294 0.961397 0.863962 -0.488257
F3    F     F_    0.843001 0.589087 0.616947 -0.523716
F4    F     F_    0.325098 0.363694 0.863963 -0.488261
F5    F     F_    0.171899 0.835089 0.034655 -0.524168
F6    F     F_    0.809462 0.144302 0.437061 -0.492103
F7    F     F_    0.164916 0.336873 0.034645 -0.524216
F8    F     F_    0.855591 0.665045 0.437036 -0.492141
F9    F     F_    0.663189 0.828107 0.034648 -0.524180
F10   F     F_    0.334910 0.190527 0.437038 -0.492117
F11   F     F_    0.835068 0.171863 0.534660 -0.524107
F12   F     F_    0.674895 0.038590 0.363972 -0.488247
F13   F     F_    0.144327 0.809480 0.937056 -0.492146
F14   F     F_    0.336958 0.164914 0.534633 -0.524225
F15   F     F_    0.665155 0.855688 0.937050 -0.492135
F16   F     F_    0.827906 0.662981 0.534630 -0.524285
F17   F     F_    0.190521 0.334819 0.937050 -0.492117
F18   F     F_    0.937289 0.318749 0.139583 -0.531379
F19   F     F_    0.246386 0.822043 0.387264 -0.577847
F20   F     F_    0.681238 0.618483 0.139592 -0.531372
F21   F     F_    0.177987 0.424386 0.387270 -0.577879
F22   F     F_    0.381453 0.062712 0.139592 -0.531309
F23   F     F_    0.253918 0.410686 0.116968 -0.523550
F24   F     F_    0.575664 0.753606 0.387270 -0.577835
F25   F     F_    0.318673 0.937446 0.639598 -0.531138
F26   F     F_    0.821930 0.246376 0.887278 -0.577925
F27   F     F_    0.618462 0.681230 0.639597 -0.531415
F28   F     F_    0.424335 0.177947 0.887269 -0.577820
F29   F     F_    0.062724 0.381490 0.639597 -0.531309
F30   F     F_    0.753607 0.575708 0.887267 -0.577798
F31   F     F_    0.961347 0.636234 0.363955 -0.488268
F32   F     F_    0.589435 0.843322 0.116979 -0.523424
F33   F     F_    0.363747 0.325101 0.363956 -0.488272
F34   F     F_    0.746087 0.156469 0.616999 -0.523248
F35   F     F_    0.038614 0.674913 0.863965 -0.488254
F36   F     F_    0.410755 0.253904 0.616962 -0.523523
O1    O     O_R   0.460870 0.120930 0.805240 -0.426424
O2    O     O_R   0.120930 0.460870 0.194760 -0.393926
O3    O     O_R   0.539130 0.660060 0.305240 -0.426395
O4    O     O_R   0.339940 0.879070 0.194760 -0.393919
O5    O     O_R   0.498910 0.350470 0.801870 -0.433590
O6    O     O_R   0.851560 0.501090 0.698130 -0.456769
O7    O     O_R   0.649530 0.148440 0.801870 -0.433555
O8    O     O_R   0.498910 0.350470 0.698130 -0.456789
O9    O     O_R   0.851560 0.501090 0.801870 -0.433608
O10   O     O_R   0.649530 0.148440 0.698130 -0.456798
O11   O     O_R   0.350470 0.498910 0.301870 -0.433586
O12   O     O_R   0.660060 0.539130 0.694760 -0.393890
O13   O     O_R   0.501090 0.851560 0.198130 -0.456790
O14   O     O_R   0.148440 0.649530 0.301870 -0.433583
O15   O     O_R   0.350470 0.498910 0.198130 -0.456774
O16   O     O_R   0.501090 0.851560 0.301870 -0.433589
O17   O     O_R   0.148440 0.649530 0.198130 -0.456782
O18   O     O_3   0.666667 0.333333 0.750000 -0.379555
O19   O     O_3   0.333333 0.666667 0.250000 -0.379568
O20   O     O_R   0.879070 0.339940 0.805240 -0.426415
O21   O     O_R   0.460870 0.120930 0.694760 -0.393831
O22   O     O_R   0.660060 0.539130 0.805240 -0.426406
O23   O     O_R   0.879070 0.339940 0.694760 -0.393949
O24   O     O_R   0.120930 0.460870 0.305240 -0.426410
O25   O     O_R   0.539130 0.660060 0.194760 -0.393950
O26   O     O_R   0.339940 0.879070 0.305240 -0.426385

loop_
_geom_bond_atom_site_label_1
_geom_bond_atom_site_label_2
_ccdc_geom_bond_type
C24   C77   A    
C59   C76   S    
C4    C9    A    
C44   C64   A    
C31   C71   A    
Cr5   O25   S    
C30   C70   A    
C45   F2    S    
C6    C94   A    
C91   F21   S    
C25   C104  A    
C22   C101  A    
Cr2   O18   S    
Br11  C7    S    
C25   C78   A    
Br5   C107  S    
C52   C56   A    
C66   C82   A    
C29   F17   S    
Cr3   O20   S    
Cr6   O19   S    
C49   F33   S    
C64   C83   A    
C34   F6    S    
C85   C99   A    
C1    O5    A    
C20   C73   A    
C16   C95   A    
Cr1   O1    S    
C50   C77   A    
C89   F24   S    
C5    C8    A    
C50   C58   A    
C23   C102  A    
C22   C74   A    
C18   C71   A    
C32   O7    A    
C90   C103  A    
C49   C75   A    
C55   C86   A    
C90   F22   S    
C26   C105  A    
C23   C75   A    
C38   C78   A    
C3    C10   A    
C84   F28   S    
C51   C57   A    
C7    C106  A    
C30   F16   S    
C28   C68   A    
C17   C96   A    
C58   C90   A    
C32   O1    A    
C85   F27   S    
C62   C85   A    
C40   C67   A    
C41   C60   A    
C43   O8    A    
C44   F3    S    
C12   C55   S    
C40   F35   S    
Cr1   O21   S    
C87   O4    A    
C47   C55   A    
C49   C59   A    
Cr2   O22   S    
Cr1   O8    S    
C54   O20   A    
C29   C69   A    
Br8   C4    S    
C88   F18   S    
C39   C79   A    
C89   C102  A    
C43   C62   S    
C42   F4    S    
C14   C93   A    
Br6   C108  S    
C14   C22   A    
C5    C102  A    
Cr1   O18   S    
C57   C91   A    
Cr1   O5    S    
C27   F13   S    
C82   C95   A    
Cr2   O6    S    
C18   C97   A    
Cr5   O19   S    
C35   C74   A    
C92   F20   S    
C54   O9    A    
C41   C68   A    
C13   C53   S    
C53   C88   A    
Br7   C3    S    
C40   C61   A    
C38   F8    S    
C105  C108  A    
C11   C108  A    
Br4   C11   S    
C48   C74   A    
C31   C37   A    
Cr4   O11   S    
C47   F12   S    
Cr2   O12   S    
C54   C61   S    
C26   C79   A    
C33   F14   S    
C76   O11   A    
C37   F9    S    
C35   F5    S    
C27   C67   A    
Cr3   O23   S    
C32   C63   S    
Cr5   O3    S    
C47   C73   A    
C43   O12   A    
C80   F26   S    
C60   C65   S    
C46   C72   A    
C81   C94   A    
C8    C99   A    
C57   C98   S    
C21   C64   S    
C16   C26   A    
C1    O22   A    
C11   C95   A    
C28   F11   S    
Br12  C8    S    
Br2   C9    S    
C50   F32   S    
C36   C75   A    
Cr6   O17   S    
C45   C71   A    
C63   C84   A    
Cr4   O15   S    
Cr3   O7    S    
C30   C38   A    
C60   C81   A    
C7    C93   A    
Br9   C5    S    
C48   C53   A    
C15   C68   A    
C12   O16   A    
C19   C23   A    
C31   F15   S    
C21   O6    A    
C51   F31   S    
C46   F36   S    
C4    C103  A    
Cr6   O14   S    
C58   C87   S    
C46   C62   A    
C27   C35   A    
C92   C105  A    
C33   C36   A    
C1    C66   S    
C98   O24   A    
C41   F34   S    
C19   C99   A    
C20   C100  A    
C15   C20   A    
C36   F10   S    
C48   F1    S    
C88   C101  A    
Cr3   O10   S    
C61   C80   A    
C37   C77   A    
Cr3   O18   S    
Cr6   O4    S    
C100  C107  A    
C9    C97   A    
C13   O17   A    
C44   C70   A    
C86   F19   S    
C98   O14   A    
C84   C97   A    
C14   C67   A    
C15   C94   A    
C18   C24   A    
C52   F23   S    
C12   O26   A    
C34   C73   A    
C86   C100  A    
C56   C92   A    
C91   C104  A    
C16   C69   A    
Cr4   O19   S    
C76   O3    A    
Cr4   O24   S    
C2    O25   A    
C39   F7    S    
C45   C63   A    
Br10  C6    S    
C65   O10   A    
C10   C96   A    
C28   C34   A    
C51   C78   A    
Cr6   O26   S    
C65   O21   A    
C83   F29   S    
Br1   C106  S    
C59   C89   A    
C2    O15   A    
C81   F25   S    
C83   C96   A    
C19   C72   A    
C101  C106  A    
C33   C72   A    
C80   C93   A    
C17   C70   A    
C87   O13   A    
C82   F30   S    
Cr2   O9    S    
C17   C25   A    
Cr5   O16   S    
C2    C56   S    
C3    C104  A    
Br3   C10   S    
C21   O23   A    
C13   O2    A    
C52   C79   A    
C42   C66   A    
C24   C103  A    
C6    C107  A    
C29   C39   A    
C42   C69   A    
Cr4   O2    S    
Cr5   O13   S    
