data_mof_unit_10574.cif
_audit_creation_date              2012-12-11T15:08:37-0500
_audit_creation_method            fapswitch 2.2
_symmetry_space_group_name_H-M    P1
_symmetry_Int_Tables_number       1
_space_group_crystal_system       triclinic
_cell_length_a                    26.806924
_cell_length_b                    7.091359
_cell_length_c                    11.944589
_cell_angle_alpha                 90.000449
_cell_angle_beta                  103.112773
_cell_angle_gamma                 89.994464
_cell_volume                      2211.43084663

loop_
_atom_site_label
_atom_site_type_symbol
_atom_type_description
_atom_site_fract_x
_atom_site_fract_y
_atom_site_fract_z
_atom_type_partial_charge
O1    O     O_R   0.437360 0.505910 0.042120 -0.525534
O2    O     O_R   0.562640 0.005910 0.957880 -0.525473
O3    O     O_R   0.542480 0.176660 0.157100 -0.531290
O4    O     O_R   0.457520 0.676660 0.842900 -0.531235
C1    C     C_R   0.557140 0.344266 0.197499 0.765688
C2    C     C_R   0.442857 0.844279 0.802505 0.765614
O5    O     O_R   0.436520 0.176250 0.054800 -0.543406
O6    O     O_R   0.563480 0.676250 0.945200 -0.543426
O7    O     O_R   0.455920 0.005040 0.854840 -0.539492
O8    O     O_R   0.544080 0.505040 0.145160 -0.539516
C3    C     C_R   0.417721 0.344188 0.064683 0.836555
C4    C     C_R   0.582283 0.844168 0.935329 0.836495
O9    O     O_3   0.506490 0.338900 0.934520 -0.378699
O10   O     O_3   0.493510 0.838900 0.065480 -0.378724
V1    V     V_3+5 0.498800 0.064400 0.012150 1.629398
V2    V     V_3+5 0.501200 0.564400 0.987850 1.629353
C5    C     C_R   0.682834 0.818275 0.760969 -0.189128
C6    C     C_R   0.317184 0.319079 0.239103 -0.189153
H1    H     H_    0.776058 0.828225 0.724572 0.132288
H2    H     H_    0.223956 0.329231 0.275496 0.132359
H3    H     H_    0.684583 0.806661 0.671393 0.171459
H4    H     H_    0.315438 0.307894 0.328692 0.171459
C7    C     C_R   0.632045 0.846860 0.903142 -0.247956
C8    C     C_R   0.367961 0.346957 0.096874 -0.247925
C9    C     C_R   0.868625 0.855126 0.213788 -0.191750
C10   C     C_R   0.131384 0.354530 0.786257 -0.191699
C11   C     C_R   0.823617 0.825490 0.250058 -0.148665
C12   C     C_R   0.176391 0.324567 0.750037 -0.148609
C13   C     C_R   0.777056 0.804316 0.170470 0.772742
C14   C     C_R   0.222948 0.303526 0.829658 0.772741
C15   C     C_R   0.773652 0.831827 0.050864 0.009403
C16   C     C_R   0.226353 0.331553 0.949214 0.009380
C17   C     C_R   0.820783 0.847909 0.014340 -0.006356
C18   C     C_R   0.179224 0.347955 0.985714 -0.006412
C19   C     C_R   0.726139 0.836073 0.965424 -0.012239
C20   C     C_R   0.273868 0.336004 0.034634 -0.012202
C21   C     C_R   0.727950 0.827823 0.847186 -0.024170
C22   C     C_R   0.272062 0.328268 0.152881 -0.024200
C23   C     C_R   0.774701 0.832098 0.814612 -0.097116
C24   C     C_R   0.225311 0.332752 0.185454 -0.097088
C25   C     C_R   0.820214 0.847605 0.896373 -0.045607
C26   C     C_R   0.179794 0.348070 0.103678 -0.045621
C27   C     C_R   0.676879 0.856284 0.990540 0.621975
C28   C     C_R   0.323124 0.355983 0.009473 0.622066
C29   C     C_R   0.635196 0.822616 0.788557 0.234210
C30   C     C_R   0.364821 0.323321 0.211503 0.234022
C31   C     C_R   0.867990 0.859474 0.096743 -0.031697
C32   C     C_R   0.132016 0.359361 0.903293 -0.031646
H5    H     H_    0.904516 0.864722 0.277292 0.127513
H6    H     H_    0.095492 0.363965 0.722737 0.127512
H7    H     H_    0.825256 0.807956 0.340893 0.145954
H8    H     H_    0.174752 0.306637 0.659232 0.145917
H9    H     H_    0.855228 0.856242 0.865910 0.124932
H10   H     H_    0.144780 0.356909 0.134128 0.124962
C33   C     C_R   0.090704 0.864351 0.312286 -0.123574
C34   C     C_R   0.909289 0.364393 0.687709 -0.123571
C35   C     C_R   0.408017 0.849047 0.688276 -0.165299
C36   C     C_R   0.591967 0.348954 0.311745 -0.165106
C37   C     C_R   0.103870 0.917433 0.515929 -0.103344
C38   C     C_R   0.896098 0.417879 0.484100 -0.103332
C39   C     C_R   0.071689 0.915761 0.407014 -0.288562
C40   C     C_R   0.928284 0.416080 0.593007 -0.288574
C41   C     C_R   0.142959 0.826722 0.325350 0.549726
C42   C     C_R   0.857044 0.326559 0.674628 0.549794
C43   C     C_R   0.177816 0.852769 0.433851 -0.073727
C44   C     C_R   0.822172 0.352725 0.566149 -0.073743
C45   C     C_R   0.156735 0.880779 0.531464 -0.050942
C46   C     C_R   0.843240 0.381086 0.468550 -0.050839
C47   C     C_R   0.232286 0.849625 0.448807 0.020393
C48   C     C_R   0.767701 0.349361 0.551197 0.020425
C49   C     C_R   0.264949 0.849145 0.562143 -0.016549
C50   C     C_R   0.735032 0.349195 0.437860 -0.016541
C51   C     C_R   0.241251 0.837107 0.657964 0.299332
C52   C     C_R   0.758725 0.337575 0.342012 0.299197
C53   C     C_R   0.188037 0.863118 0.642574 0.213461
C54   C     C_R   0.811938 0.363639 0.357424 0.213457
C55   C     C_R   0.255139 0.853577 0.353217 -0.124303
C56   C     C_R   0.744847 0.352736 0.646798 -0.124457
C57   C     C_R   0.307159 0.826977 0.365360 -0.157137
C58   C     C_R   0.692837 0.325865 0.634622 -0.157146
C59   C     C_R   0.339647 0.820397 0.473903 -0.021697
C60   C     C_R   0.660349 0.319653 0.526072 -0.021570
C61   C     C_R   0.319689 0.850612 0.573024 0.048042
C62   C     C_R   0.680294 0.350482 0.426993 0.048062
C63   C     C_R   0.392415 0.791874 0.484221 0.687871
C64   C     C_R   0.607591 0.290836 0.515713 0.687808
C65   C     C_R   0.425775 0.795888 0.591881 -0.177701
C66   C     C_R   0.574232 0.295157 0.408059 -0.177641
C67   C     C_R   0.355854 0.888474 0.676960 -0.110722
C68   C     C_R   0.644116 0.388679 0.323121 -0.110855
H11   H     H_    0.344757 0.951954 0.749409 0.209534
H12   H     H_    0.655200 0.452548 0.250764 0.209391
H13   H     H_    0.465745 0.763113 0.599458 0.201613
H14   H     H_    0.534277 0.262056 0.400424 0.201525
H15   H     H_    0.322201 0.819423 0.288533 0.195980
H16   H     H_    0.677800 0.317814 0.711442 0.195984
H17   H     H_    0.086737 0.950545 0.587172 0.174208
H18   H     H_    0.913218 0.451233 0.412876 0.174214
H19   H     H_    0.031457 0.949079 0.397005 0.133477
H20   H     H_    0.968507 0.449540 0.603028 0.133531
H21   H     H_    0.233976 0.880627 0.266921 0.211968
H22   H     H_    0.765996 0.379491 0.733137 0.212107
O11   O     O_R   0.955980 0.206520 0.854760 -0.527240
O12   O     O_R   0.044020 0.706520 0.145240 -0.527330
O13   O     O_R   0.063490 0.536770 0.945200 -0.521665
O14   O     O_R   0.936510 0.036770 0.054800 -0.521691
C69   C     C_R   0.082660 0.368465 0.937124 0.693642
C70   C     C_R   0.917343 0.868484 0.062892 0.693696
O15   O     O_R   0.957530 0.536190 0.842880 -0.554893
O16   O     O_R   0.042470 0.036190 0.157120 -0.554875
O17   O     O_R   0.937350 0.707210 0.042130 -0.538484
O18   O     O_R   0.062650 0.207210 0.957870 -0.538496
C71   C     C_R   0.943276 0.368199 0.802502 0.766592
C72   C     C_R   0.056721 0.868191 0.197497 0.766623
O19   O     O_3   0.993540 0.373870 0.065440 -0.375688
O20   O     O_3   0.006460 0.873870 0.934560 -0.375662
V3    V     V_3+5 0.001200 0.648440 0.987860 1.521181
V4    V     V_3+5 0.998800 0.148440 0.012140 1.521232
Br1   Br    Br    0.575469 0.798316 0.666358 -0.474412
Br2   Br    Br    0.424565 0.299791 0.333726 -0.474432
F1    F     F_    0.157773 0.754127 0.232872 -0.720640
F2    F     F_    0.842264 0.253680 0.767068 -0.720670
Br3   Br    Br    0.276460 0.750756 0.808843 -0.423255
Br4   Br    Br    0.723514 0.251719 0.191017 -0.423212
F3    F     F_    0.411601 0.756691 0.390370 -0.642549
F4    F     F_    0.588419 0.255047 0.609513 -0.642591
F5    F     F_    0.670583 0.897251 0.097096 -0.610898
F6    F     F_    0.329414 0.396430 0.902848 -0.610966
F7    F     F_    0.737988 0.733840 0.212118 -0.631532
F8    F     F_    0.262007 0.232638 0.788135 -0.631617
Br5   Br    Br    0.157064 0.851880 0.774751 -0.551095
Br6   Br    Br    0.842915 0.352716 0.225241 -0.551202

loop_
_geom_bond_atom_site_label_1
_geom_bond_atom_site_label_2
_ccdc_geom_bond_type
C52   Br4   S    
C41   C43   A    
C7    C29   A    
C11   C13   A    
C50   C52   A    
C12   H8    S    
C69   O18   A    
C44   C46   A    
O1    C3    A    
O2    C4    A    
O16   V4    S    
C2    O7    A    
C45   C53   A    
O15   V3    S    
C23   C25   A    
O5    C3    A    
O13   C69   A    
C4    C7    S    
C35   C67   A    
C1    C36   S    
C16   C20   A    
C48   C56   A    
O11   C71   A    
C5    C29   A    
C38   H18   S    
C10   H6    S    
H2    C24   S    
C64   C66   A    
C32   C69   S    
C64   F4    S    
C17   C31   A    
C33   C39   A    
C3    C8    S    
C7    C27   A    
O20   V3    S    
C38   C40   A    
C47   C49   A    
C37   C45   A    
C55   H21   S    
C13   F7    S    
C53   Br5   S    
C18   C26   A    
C43   C45   A    
C33   C41   A    
C34   C71   S    
C34   C42   A    
C58   H16   S    
C19   C27   A    
C9    C31   A    
O15   C71   A    
C34   C40   A    
C29   Br1   S    
C24   C26   A    
O6    V2    S    
C22   C24   A    
O14   V4    S    
C51   C53   A    
C2    C35   S    
O13   V3    S    
C39   H19   S    
C62   C68   A    
C6    C30   A    
C41   F1    S    
C11   H7    S    
C49   C61   A    
C63   C65   A    
C61   C67   A    
C66   H14   S    
C37   C39   A    
C58   C60   A    
C27   F5    S    
C49   C51   A    
O19   V3    S    
C14   F8    S    
C5    H3    S    
C35   C65   A    
C42   C44   A    
O4    V2    S    
C57   H15   S    
O18   V4    S    
C68   H12   S    
O6    C4    A    
O19   V4    S    
C15   C17   A    
C55   C57   A    
C30   Br2   S    
O1    V2    S    
C5    C21   A    
O2    V1    S    
C36   C68   A    
C25   H9    S    
C50   C62   A    
C52   C54   A    
C40   H20   S    
O4    C2    A    
C8    C28   A    
C60   C62   A    
C9    C11   A    
C37   H17   S    
O12   C72   A    
C20   C28   A    
O11   V4    S    
C67   H11   S    
C20   C22   A    
O3    V1    S    
C57   C59   A    
O12   V3    S    
C43   C47   A    
O16   C72   A    
C28   F6    S    
C19   C21   A    
C63   F3    S    
C6    H4    S    
O3    C1    A    
C36   C66   A    
C59   C61   A    
C48   C50   A    
C33   C72   S    
C10   C32   A    
C46   C54   A    
C10   C12   A    
C70   O17   A    
O17   V3    S    
C8    C30   A    
C12   C14   A    
C6    C22   A    
C17   C25   A    
C1    O8    A    
C13   C15   A    
C60   C64   A    
C26   H10   S    
C14   C16   A    
C54   Br6   S    
C47   C55   A    
C44   C48   A    
O14   C70   A    
C42   F2    S    
C65   H13   S    
C15   C19   A    
O5    V1    S    
O20   V4    S    
C56   C58   A    
O7    V1    S    
C9    H5    S    
C21   C23   A    
C18   C32   A    
C38   C46   A    
H1    C23   S    
C31   C70   S    
O9    V2    S    
O10   V1    S    
O8    V2    S    
C56   H22   S    
C59   C63   A    
C16   C18   A    
C51   Br3   S    
