data_mof_unit_20452.cif
_audit_creation_date              2012-12-11T14:50:53-0500
_audit_creation_method            fapswitch 2.2
_symmetry_space_group_name_H-M    P1
_symmetry_Int_Tables_number       1
_space_group_crystal_system       triclinic
_cell_length_a                    10.861056
_cell_length_b                    10.863893
_cell_length_c                    18.803662
_cell_angle_alpha                 90.823668
_cell_angle_beta                  90.513077
_cell_angle_gamma                 60.786089
_cell_volume                      1936.29065648

loop_
_atom_site_label
_atom_site_type_symbol
_atom_type_description
_atom_site_fract_x
_atom_site_fract_y
_atom_site_fract_z
_atom_type_partial_charge
C1    C     C_R   0.234532 0.646987 0.608944 0.533181
C2    C     C_R   0.582042 0.131922 0.781247 -0.156794
C3    C     C_R   0.577294 0.139052 0.708910 -0.152850
C4    C     C_R   0.653789 0.621627 0.601236 0.542733
C5    C     C_R   0.670306 0.169814 0.673248 0.025793
C6    C     C_R   0.232534 0.542445 0.723729 -0.162400
C7    C     C_R   0.215930 0.553203 0.797509 0.092365
C8    C     C_R   0.154227 0.686901 0.829659 0.009453
C9    C     C_R   0.106117 0.807953 0.787874 -0.138128
C10   C     C_R   0.119195 0.798684 0.714655 0.116197
C11   C     C_R   0.184887 0.664255 0.681997 -0.006167
C12   C     C_3   0.741368 0.534830 0.796237 -0.230257
C13   C     C_R   0.780164 0.566056 0.285187 -0.121394
C14   C     C_R   0.782156 0.560092 0.212490 0.180810
C15   C     C_R   0.670628 0.669426 0.172829 0.048406
C16   C     C_R   0.629351 0.227048 0.602368 0.534363
C17   C     C_R   0.550265 0.772386 0.209325 0.092131
C18   C     C_R   0.545147 0.767024 0.283649 -0.115111
C19   C     C_R   0.659709 0.662300 0.321328 -0.040903
C20   C     C_R   0.493587 0.235213 0.273720 0.231065
C21   C     C_R   0.499360 0.225346 0.200125 0.261951
C22   C     C_R   0.622395 0.205996 0.165314 -0.010311
C23   C     C_3   0.718230 0.685891 0.808557 0.053938
C24   C     C_R   0.710949 0.246489 0.200090 -0.173811
C25   C     C_R   0.693467 0.278964 0.272351 -0.157288
C26   C     C_R   0.591380 0.264247 0.310877 -0.009999
C27   C     C_R   0.046323 0.820074 0.317685 0.170028
C28   C     C_R   0.215557 0.650810 0.403257 0.535868
C29   C     C_R   0.027433 0.844386 0.244610 0.152614
C30   C     C_R   0.051144 0.730121 0.197336 -0.023239
C31   C     C_R   0.100597 0.595484 0.225711 -0.132680
C32   C     C_R   0.140894 0.570572 0.296430 -0.167898
C33   C     C_R   0.125135 0.681163 0.340889 -0.011821
C34   C     C_3   0.675465 0.651024 0.675359 0.058185
C35   C     C_R   0.702685 0.099088 0.894998 0.536871
C36   C     C_R   0.748845 0.705803 0.883019 0.538067
C37   C     C_R   0.113948 0.709130 0.904227 0.571794
C38   C     C_R   0.669624 0.117632 0.100820 0.563151
C39   C     C_R   0.698382 0.689954 0.098767 0.560760
C40   C     C_R   0.643288 0.624922 0.393234 0.540630
C41   C     C_R   0.026899 0.747903 0.119700 0.553751
C42   C     C_R   0.579726 0.292585 0.387652 0.576195
C43   C     C_3   0.563359 0.791132 0.787200 -0.230426
C44   C     C_3   0.538549 0.771294 0.708624 -0.238777
C45   C     C_3   0.793834 0.690398 0.681342 -0.240907
C46   C     C_3   0.819758 0.709895 0.760311 -0.244302
C47   C     C_3   0.202904 0.344461 0.828963 -0.288690
C48   C     C_3   0.137445 0.004976 0.681836 -0.299639
C49   C     C_3   0.352305 0.827238 0.132012 -0.254532
C50   C     C_3   0.899498 0.933694 0.421084 -0.266425
C51   C     C_3   0.078152 0.042004 0.241585 -0.255776
C52   C     C_3   0.718149 0.514220 0.718092 -0.225423
C53   C     C_R   0.777951 0.178865 0.711112 -0.119832
C54   C     C_R   0.789667 0.160638 0.784768 -0.142721
C55   C     C_R   0.689620 0.138985 0.820406 0.016996
Cl1   Cl    Cl    0.928651 0.406406 0.177171 -0.636400
Cl2   Cl    Cl    0.374210 0.190453 0.315129 -0.598954
Cl3   Cl    Cl    0.350727 0.236826 0.153673 -0.531522
Cr1   Cr    Cr6+3 0.392930 0.397900 0.502230 1.039397
Cr2   Cr    Cr6+3 0.398240 0.708600 0.501260 1.005830
Cr3   Cr    Cr6+3 0.708800 0.393470 0.496460 0.996825
Cr4   Cr    Cr6+3 0.937620 0.938540 0.007640 1.002547
Cr5   Cr    Cr6+3 0.625150 0.937450 0.994520 1.057100
Cr6   Cr    Cr6+3 0.937990 0.625080 0.001190 1.087786
H1    H     H_    0.540514 0.900868 0.796297 0.128468
H2    H     H_    0.052169 0.912075 0.811929 0.154717
H3    H     H_    0.488490 0.774467 0.820436 0.132055
H4    H     H_    0.869495 0.484039 0.313358 0.182637
H5    H     H_    0.449487 0.840154 0.311354 0.163053
H6    H     H_    0.797910 0.245135 0.172148 0.198461
H7    H     H_    0.765019 0.307412 0.298821 0.172249
H8    H     H_    0.452100 0.744340 0.704575 0.140898
H9    H     H_    0.119706 0.506639 0.192088 0.254016
H10   H     H_    0.192332 0.463930 0.315204 0.218951
H11   H     H_    0.504975 0.871576 0.679786 0.113388
H12   H     H_    0.818593 0.426693 0.696982 0.130737
H13   H     H_    0.804955 0.817824 0.769221 0.126444
H14   H     H_    0.763397 0.789667 0.652159 0.118334
H15   H     H_    0.850341 0.453773 0.811063 0.126359
H16   H     H_    0.667138 0.517382 0.829561 0.132820
H17   H     H_    0.635127 0.482537 0.712986 0.126746
H18   H     H_    0.378046 0.373138 0.839205 0.257212
H19   H     H_    0.245589 0.257349 0.867911 0.151969
H20   H     H_    0.087503 0.408621 0.837441 0.170722
H21   H     H_    0.223932 0.298027 0.774450 0.104270
H22   H     H_    0.028743 0.921017 0.624042 0.262377
H23   H     H_    0.930747 0.633586 0.774039 0.126693
H24   H     H_    0.083922 0.102344 0.649822 0.123728
H25   H     H_    0.246596 0.942202 0.661706 0.167642
H26   H     H_    0.139937 0.035685 0.738193 0.128302
H27   H     H_    0.370398 0.967217 0.201885 0.302417
H28   H     H_    0.267538 0.915309 0.101818 0.179314
H29   H     H_    0.304349 0.783505 0.168842 0.153028
H30   H     H_    0.419871 0.743823 0.093272 0.159227
H31   H     H_    0.063185 0.965698 0.384813 0.268392
H32   H     H_    0.955882 0.839193 0.454918 0.122983
H33   H     H_    0.806022 0.934238 0.396237 0.177279
H34   H     H_    0.892997 0.606118 0.657144 0.128419
H35   H     H_    0.863198 0.027793 0.456166 0.171289
H36   H     H_    0.949861 0.008462 0.170936 0.293404
H37   H     H_    0.018943 0.133529 0.277773 0.197455
H38   H     H_    0.108618 0.080005 0.193926 0.192311
H39   H     H_    0.176046 0.963821 0.268819 0.143404
H40   H     H_    0.848972 0.205116 0.684072 0.133224
H41   H     H_    0.874045 0.165552 0.813476 0.113276
H42   H     H_    0.499678 0.119470 0.806217 0.131983
H43   H     H_    0.492417 0.132014 0.681776 0.125913
H44   H     H_    0.288772 0.438362 0.699591 0.148709
N1    N     N_2   0.269646 0.430393 0.839891 -0.490184
N2    N     N_2   0.062385 0.925758 0.674947 -0.508647
N3    N     N_2   0.433072 0.878591 0.171794 -0.469289
N4    N     N_2   0.991329 0.936550 0.366514 -0.488192
N5    N     N_2   0.988758 0.982545 0.220901 -0.513087
O1    O     O_R   0.507430 0.255570 0.581420 -0.524875
O2    O     O_R   0.837200 0.593290 0.915250 -0.529102
O3    O     O_R   0.065330 0.635370 0.931590 -0.471695
O4    O     O_R   0.280190 0.527390 0.578910 -0.512837
O5    O     O_R   0.068300 0.828790 0.091860 -0.541452
O6    O     O_R   0.798730 0.057480 0.079370 -0.546630
O7    O     O_R   0.584680 0.080480 0.076790 -0.429110
O8    O     O_R   0.626790 0.809640 0.067050 -0.467921
O9    O     O_R   0.816010 0.596460 0.076500 -0.453204
O10   O     O_R   0.045680 0.638310 0.081070 -0.457347
O11   O     O_3   0.833590 0.833690 0.001120 -0.301038
O12   O     O_R   0.524460 0.695920 0.424060 -0.494934
O13   O     O_R   0.260310 0.739740 0.584580 -0.521399
O14   O     O_R   0.532250 0.695150 0.573830 -0.506974
O15   O     O_R   0.744930 0.503430 0.576380 -0.528073
O16   O     O_R   0.699250 0.276390 0.571950 -0.514104
O17   O     O_R   0.499020 0.256400 0.419850 -0.447204
O18   O     O_R   0.272400 0.528160 0.429140 -0.507410
O19   O     O_R   0.251910 0.740570 0.423020 -0.524307
O20   O     O_R   0.736530 0.504260 0.414810 -0.533629
O21   O     O_R   0.691460 0.277160 0.422180 -0.517173
O22   O     O_3   0.499990 0.499990 0.499980 -0.267366
O23   O     O_R   0.089490 0.825610 0.930610 -0.537555
O24   O     O_R   0.818370 0.054540 0.929880 -0.506818
O25   O     O_R   0.605870 0.077310 0.915530 -0.531025
O26   O     O_R   0.646440 0.806700 0.917570 -0.514104

loop_
_geom_bond_atom_site_label_1
_geom_bond_atom_site_label_2
_ccdc_geom_bond_type
C14   Cl1   S    
Cr1   O17   S    
Cr6   O3    S    
C27   C29   A    
C48   N2    S    
C1    C11   S    
Cr2   O19   S    
Cr4   O11   S    
Cr5   O11   S    
C24   H6    S    
C7    C8    A    
C37   O3    A    
C53   C54   A    
C27   C33   A    
C51   H38   S    
C12   C23   S    
Cr1   O18   S    
C50   H35   S    
C51   N5    S    
C39   O9    A    
C47   H21   S    
C5    C53   A    
Cr2   O12   S    
H22   N2    S    
H31   N4    S    
C35   O25   A    
C32   H10   S    
C30   C31   A    
C31   H9    S    
C53   H40   S    
Cr4   O23   S    
C22   C38   S    
C12   H15   S    
C23   C43   S    
C18   C19   A    
H27   N3    S    
C9    H2    S    
C5    C16   S    
C12   C52   S    
C8    C9    A    
C48   H24   S    
C30   C41   S    
C44   H8    S    
C45   H14   S    
C25   H7    S    
C47   H19   S    
C49   H30   S    
C9    C10   A    
C54   H41   S    
Cr3   O16   S    
C49   N3    S    
C38   O7    A    
C18   H5    S    
Cr1   O4    S    
Cr6   O2    S    
C48   H26   S    
C13   C14   A    
C52   H17   S    
C17   N3    S    
Cr5   O8    S    
Cr3   O21   S    
C4    C34   S    
C4    O15   A    
Cr3   O20   S    
H18   N1    S    
C34   C44   S    
C1    O13   A    
C10   C11   A    
C6    C11   A    
C13   C19   A    
C3    H43   S    
C25   C26   A    
Cr6   O11   S    
C35   C55   S    
C2    H42   S    
C7    N1    S    
C28   O19   A    
C44   H11   S    
C43   C44   S    
C29   C30   A    
C31   C32   A    
C43   H1    S    
C50   N4    S    
C17   C18   A    
C37   O23   A    
C42   O17   A    
C34   C45   S    
C1    O4    A    
C47   H20   S    
C24   C25   A    
C16   O16   A    
Cr2   O22   S    
C15   C39   S    
Cr4   O6    S    
C38   O6    A    
C28   C33   S    
C48   H25   S    
C41   O5    A    
Cr5   O25   S    
C22   C24   A    
C8    C37   S    
C49   H28   S    
C3    C5    A    
Cr3   O22   S    
C46   H23   S    
C15   C17   A    
C29   N5    S    
C54   C55   A    
C50   H33   S    
C4    O14   A    
Cr5   O26   S    
Cr2   O14   S    
H36   N5    S    
C52   H12   S    
C16   O1    A    
C27   N4    S    
C46   H13   S    
C6    C7    A    
C51   H37   S    
Cr6   O10   S    
C40   O20   A    
C34   C52   S    
C39   O8    A    
C42   O21   A    
C45   H34   S    
C28   O18   A    
C32   C33   A    
C41   O10   A    
Cr2   O13   S    
C2    C3    A    
C21   Cl3   S    
C47   N1    S    
C35   O24   A    
Cr5   O7    S    
C50   H32   S    
C20   C26   A    
Cr1   O1    S    
Cr6   O9    S    
C40   O12   A    
C12   H16   S    
Cr1   O22   S    
C2    C55   A    
C10   N2    S    
Cr3   O15   S    
C26   C42   S    
Cr4   O24   S    
C36   O26   A    
Cr4   O5    S    
C19   C40   S    
C45   C46   S    
C20   C21   A    
C43   H3    S    
C23   C36   S    
C23   C46   S    
C6    H44   S    
C14   C15   A    
C49   H29   S    
C20   Cl2   S    
C21   C22   A    
C36   O2    A    
C51   H39   S    
C13   H4    S    
