data_mof_unit_35986.cif
_audit_creation_date              2013-03-05T16:47:43-0500
_audit_creation_method            fapswitch 2.2
_symmetry_space_group_name_H-M    P1
_symmetry_Int_Tables_number       1
_space_group_crystal_system       triclinic
_cell_length_a                    10.911375
_cell_length_b                    12.998543
_cell_length_c                    11.720126
_cell_angle_alpha                 99.915633
_cell_angle_beta                  94.677112
_cell_angle_gamma                 90.528886
_cell_volume                      1631.54679107

loop_
_atom_site_label
_atom_site_type_symbol
_atom_site_description
_atom_site_fract_x
_atom_site_fract_y
_atom_site_fract_z
_atom_type_partial_charge
O1    O     O_R   0.506570 0.354460 0.582000 -0.595755
O2    O     O_R   0.493430 0.645540 0.418000 -0.595760
O3    O     O_R   0.490940 0.341410 0.386200 -0.601889
O4    O     O_R   0.509060 0.658590 0.613800 -0.601891
C1    C     C_R   0.498276 0.299117 0.478592 0.811379
C2    C     C_R   0.501723 0.700883 0.521408 0.811370
O5    O     O_R   0.327460 0.506540 0.597900 -0.577871
O6    O     O_R   0.672540 0.493460 0.402100 -0.577870
O7    O     O_R   0.311830 0.493480 0.402100 -0.577416
O8    O     O_R   0.688170 0.506520 0.597900 -0.577413
C3    C     C_R   0.262111 0.501896 0.499163 0.804055
C4    C     C_R   0.737889 0.498109 0.500837 0.804057
Cu1   Cu    Cu3+1 0.509250 0.507730 0.615930 0.954729
Cu2   Cu    Cu3+1 0.490750 0.492270 0.384070 0.954726
C5    C     C_R   0.176443 0.596808 0.140857 -0.191126
C6    C     C_R   0.823586 0.403189 0.859138 -0.191139
H1    H     H_    0.211878 0.670205 0.123654 0.194557
H2    H     H_    0.788182 0.329785 0.876342 0.194582
C7    C     C_R   0.141520 0.593511 0.251914 -0.084489
C8    C     C_R   0.858508 0.406495 0.748084 -0.084504
H3    H     H_    0.149553 0.663684 0.317306 0.137761
H4    H     H_    0.850500 0.336323 0.682693 0.137774
C9    C     C_R   0.095466 0.500500 0.278226 0.111582
C10   C     C_R   0.904532 0.499513 0.721774 0.111568
C11   C     C_R   0.084577 0.410774 0.192718 -0.191671
C12   C     C_R   0.915397 0.589239 0.807281 -0.191658
H5    H     H_    0.048079 0.338950 0.213219 0.169463
H6    H     H_    0.951875 0.661069 0.786781 0.169464
C13   C     C_R   0.118951 0.412884 0.080760 0.146243
C14   C     C_R   0.881027 0.587120 0.919238 0.146250
C15   C     C_R   0.164319 0.507666 0.053056 0.002974
C16   C     C_R   0.835681 0.492331 0.946939 0.002967
C17   C     C_R   0.924297 0.493833 0.397879 -0.200358
C18   C     C_R   0.075703 0.506189 0.602125 -0.200343
H7    H     H_    0.866378 0.489499 0.318232 0.206584
H8    H     H_    0.133620 0.510522 0.681773 0.206562
C19   C     C_R   0.871984 0.496600 0.503017 -0.109726
C20   C     C_R   0.128016 0.503416 0.496984 -0.109725
C21   C     C_R   0.949323 0.501530 0.606792 0.015396
C22   C     C_R   0.050676 0.498492 0.393211 0.015398
C23   C     C_R   0.502880 0.814365 0.533754 -0.055302
C24   C     C_R   0.497120 0.185635 0.466246 -0.055305
C25   C     C_R   0.484192 0.014720 0.344596 -0.189039
C26   C     C_R   0.515808 0.985280 0.655404 -0.189039
C27   C     C_R   0.485672 0.122891 0.355549 -0.179922
C28   C     C_R   0.514328 0.877108 0.644451 -0.179922
C29   C     C_R   0.507292 0.139505 0.566032 -0.249757
C30   C     C_R   0.492708 0.860495 0.433968 -0.249760
C31   C     C_R   0.505833 0.031434 0.555794 0.169415
C32   C     C_R   0.494167 0.968566 0.444206 0.169415
H9    H     H_    0.483642 0.812567 0.348155 0.148210
H10   H     H_    0.516358 0.187433 0.651845 0.148213
H11   H     H_    0.522271 0.842744 0.722527 0.157392
H12   H     H_    0.477729 0.157256 0.277473 0.157392
H13   H     H_    0.475239 0.967302 0.258565 0.144385
H14   H     H_    0.524761 0.032698 0.741435 0.144386
N1    N     N_R   0.523180 0.519350 0.790130 -0.194065
N2    N     N_R   0.476820 0.480650 0.209870 -0.194062
C33   C     C_R   0.439839 0.371972 0.020094 -0.270123
C34   C     C_R   0.560160 0.628028 0.979906 -0.270145
C35   C     C_R   0.437328 0.388141 0.141895 0.075796
C36   C     C_R   0.562670 0.611859 0.858105 0.075797
C37   C     C_R   0.516272 0.560447 0.157630 0.064546
C38   C     C_R   0.483729 0.439553 0.842370 0.064558
C39   C     C_R   0.518648 0.547980 0.034759 0.061653
C40   C     C_R   0.481353 0.452020 0.965241 0.061666
H15   H     H_    0.450623 0.366868 0.788884 0.140166
H16   H     H_    0.549379 0.633131 0.211116 0.140164
H17   H     H_    0.595271 0.674840 0.818409 0.139729
H18   H     H_    0.404726 0.325161 0.181591 0.139728
H19   H     H_    0.409035 0.297289 0.969219 0.166585
H20   H     H_    0.590963 0.702711 0.030781 0.166587
C41   C     C_2   0.199628 0.517838 0.935620 0.834067
O9    O     O_2   0.198759 0.441807 0.858276 -0.596499
O10   O     O_R   0.236616 0.615494 0.913721 -0.775099
H21   H     H_    0.263317 0.612531 0.832445 0.334539
C42   C     C_2   0.800368 0.482150 0.064371 0.834092
O11   O     O_2   0.801249 0.558172 0.141723 -0.596512
O12   O     O_R   0.763364 0.384497 0.086257 -0.775102
H22   H     H_    0.736673 0.387454 0.167537 0.334542
I1    I     I_    0.096600 0.267955 0.963947 -0.351108
I2    I     I_    0.903364 0.732046 0.036060 -0.351096

loop_
_geom_bond_atom_site_label_1
_geom_bond_atom_site_label_2
_geom_bond_distance
_ccdc_geom_bond_type
C26   C31   1.398712 A    
C35   H18   1.079811 S    
C14   C16   1.421636 A    
C1    C24   1.457013 S    
C37   C39   1.423551 A    
C41   O9    1.220014 D    
O7    Cu2   1.980638 S    
N1    C36   1.367791 A    
C29   C31   1.388975 A    
C42   O11   1.219975 D    
O5    C3    1.300689 A    
O1    C1    1.294286 A    
C7    H3    1.083458 S    
C10   C12   1.397916 A    
C33   C40   1.403685 A    
C15   C41   1.486107 S    
Cu1   N1    2.014201 S    
C34   H20   1.082974 S    
C9    C22   1.474772 S    
O4    Cu1   1.965432 S    
C10   C21   1.474759 S    
C34   C36   1.409211 A    
C4    C19   1.461670 S    
C16   C42   1.486104 S    
C5    C7    1.393192 A    
C30   H9    1.084561 S    
C8    C10   1.397017 A    
C2    C23   1.457013 S    
C23   C28   1.404014 A    
C6    C8    1.393185 A    
N2    C35   1.367792 A    
C30   C32   1.388976 A    
Cu1   Cu2   2.680908 S    
C41   O10   1.399901 S    
O2    C2    1.294285 A    
C26   C28   1.389554 A    
C42   O12   1.399869 S    
C11   C13   1.398440 A    
Cu2   N2    2.014200 S    
C33   C35   1.409212 A    
C17   C22   1.385690 A    
C18   C21   1.385688 A    
C38   H15   1.081145 S    
O4    C2    1.293397 A    
C17   C19   1.394758 A    
C36   H17   1.079810 S    
C24   C27   1.404014 A    
C38   C40   1.423551 A    
C14   I2    2.128763 S    
C3    C20   1.461676 S    
C7    C9    1.397053 A    
O10   H21   1.013204 S    
C13   I1    2.128754 S    
C25   C27   1.389554 A    
C26   H14   1.083928 S    
O6    C4    1.300686 A    
C6    H2    1.082792 S    
O7    C3    1.288128 A    
O3    Cu2   1.965431 S    
O8    C4    1.288126 A    
C25   H13   1.083928 S    
C8    H4    1.083438 S    
C34   C39   1.403682 A    
C12   C14   1.398438 A    
C11   H5    1.083490 S    
C39   C40   1.404223 A    
N1    C38   1.374592 A    
N2    C37   1.374592 A    
C5    H1    1.082824 S    
C37   H16   1.081146 S    
O6    Cu2   1.977228 S    
C18   C20   1.394770 A    
O3    C1    1.293396 A    
O8    Cu1   1.980638 S    
C27   H12   1.083014 S    
C25   C32   1.398711 A    
C5    C15   1.408326 A    
C29   H10   1.084562 S    
C6    C16   1.408305 A    
C12   H6    1.083474 S    
C19   C21   1.414311 A    
C20   C22   1.414314 A    
C28   H11   1.083014 S    
C17   H7    1.076546 S    
C23   C30   1.400418 A    
C18   H8    1.076555 S    
C24   C29   1.400419 A    
C9    C11   1.397932 A    
O2    Cu2   1.962747 S    
O12   H22   1.013210 S    
O5    Cu1   1.977228 S    
O1    Cu1   1.962745 S    
C13   C15   1.421653 A    
C31   C32   1.413241 A    
C33   H19   1.082977 S    
