data_mof_unit_6960.cif
_audit_creation_date              2012-12-10T16:49:27-0500
_audit_creation_method            fapswitch 2.2
_symmetry_space_group_name_H-M    P1
_symmetry_Int_Tables_number       1
_space_group_crystal_system       triclinic
_cell_length_a                    7.791831
_cell_length_b                    8.682147
_cell_length_c                    12.827741
_cell_angle_alpha                 90.221504
_cell_angle_beta                  86.288295
_cell_angle_gamma                 92.770377
_cell_volume                      864.961788831

loop_
_atom_site_label
_atom_site_type_symbol
_atom_type_description
_atom_site_fract_x
_atom_site_fract_y
_atom_site_fract_z
_atom_type_partial_charge
C1    C     C_R   0.456042 0.206331 0.497568 0.911778
C2    C     C_R   0.678229 0.394772 0.138245 -0.037039
C3    C     C_R   0.535059 0.408848 0.870228 -0.067439
C4    C     C_R   0.464960 0.591194 0.129772 -0.067435
C5    C     C_R   0.550490 0.442449 0.975712 0.102584
C6    C     C_R   0.449528 0.557603 0.024286 0.102588
C7    C     C_2   0.431710 0.045313 0.508522 -0.250132
C8    C     C_2   0.568300 0.954687 0.491505 -0.250154
C9    C     C_1   0.380567 0.721927 0.178361 0.173580
C10   C     C_1   0.619469 0.278114 0.821641 0.173583
C11   C     C_1   0.802062 0.312650 0.192723 0.207052
C12   C     C_R   0.543959 0.793668 0.502440 0.911769
C13   C     C_1   0.197896 0.687351 0.807283 0.207048
C14   C     C_1   0.991278 0.629909 0.394533 0.440870
C15   C     C_1   0.008716 0.370108 0.605478 0.440879
C16   C     C_1   0.260063 0.992178 0.549245 0.269512
C17   C     C_1   0.739971 0.007822 0.450819 0.269572
C18   C     C_R   0.462468 0.500615 0.699743 0.881825
C19   C     C_R   0.537534 0.499394 0.300258 0.881844
C20   C     C_R   0.566900 0.499238 0.188039 -0.135426
C21   C     C_R   0.433108 0.500793 0.811961 -0.135421
C22   C     C_R   0.330907 0.632897 0.967382 -0.232423
C23   C     C_R   0.669102 0.367151 0.032618 -0.232425
C24   C     C_R   0.321773 0.605266 0.861755 -0.037037
H1    H     H_    0.245999 0.715200 0.004347 0.161485
H2    H     H_    0.753997 0.284839 0.995656 0.161487
N1    N     N_2   0.054030 0.541640 0.471970 -0.159651
N2    N     N_1   0.876778 0.049018 0.419069 -0.164285
N3    N     N_2   0.945970 0.458360 0.528030 -0.159651
N4    N     N_1   0.314156 0.826094 0.217005 -0.186552
N5    N     N_1   0.685898 0.173951 0.783000 -0.186550
N6    N     N_1   0.902980 0.247639 0.235377 -0.173459
N7    N     N_1   0.096934 0.752316 0.764631 -0.173448
N8    N     N_1   0.941513 0.704505 0.329327 -0.227708
N9    N     N_1   0.058472 0.295526 0.670696 -0.227704
N10   N     N_1   0.123277 0.950980 0.581029 -0.164275
O1    O     O_R   0.609680 0.261530 0.506880 -0.617845
O2    O     O_R   0.390320 0.738470 0.493120 -0.617838
O3    O     O_R   0.323330 0.288220 0.488910 -0.628357
O4    O     O_R   0.676670 0.711780 0.511090 -0.628372
O5    O     O_R   0.619510 0.488830 0.661140 -0.616439
O6    O     O_R   0.380490 0.511170 0.338860 -0.616436
O7    O     O_R   0.333160 0.515520 0.643180 -0.631825
O8    O     O_R   0.666840 0.484480 0.356820 -0.631822
Zn1   Zn    Zn3+2 0.691200 0.482180 0.511990 0.979846
Zn2   Zn    Zn3+2 0.308800 0.517820 0.488010 0.979848

loop_
_geom_bond_atom_site_label_1
_geom_bond_atom_site_label_2
_ccdc_geom_bond_type
C14   N8    T    
C13   N7    T    
C14   N1    S    
N1    N3    D    
C18   C21   S    
C8    C17   S    
C5    C23   A    
C19   O6    A    
C1    O1    A    
C8    C12   S    
C19   C20   S    
C7    C8    D    
C3    C10   S    
C18   O7    A    
C16   N10   T    
C5    C6    A    
C9    N4    T    
O3    Zn2   S    
C2    C11   S    
N1    Zn2   S    
C15   N9    T    
C7    C16   S    
C11   N6    T    
C15   N3    S    
C12   O2    A    
O4    Zn1   S    
O7    Zn2   S    
C22   C24   A    
C3    C21   A    
O2    Zn2   S    
C1    O3    A    
O1    Zn1   S    
C4    C20   A    
C19   O8    A    
C4    C6    A    
O6    Zn2   S    
C21   C24   A    
C2    C23   A    
C23   H2    S    
O5    Zn1   S    
C12   O4    A    
C4    C9    S    
C1    C7    S    
C17   N2    T    
C2    C20   A    
C10   N5    T    
O8    Zn1   S    
C18   O5    A    
C13   C24   S    
N3    Zn1   S    
C3    C5    A    
C22   H1    S    
C6    C22   A    
