data_mof_unit_8719.cif
_audit_creation_date              2012-12-11T16:37:20-0500
_audit_creation_method            fapswitch 2.2
_symmetry_space_group_name_H-M    P1
_symmetry_Int_Tables_number       1
_space_group_crystal_system       triclinic
_cell_length_a                    19.50232
_cell_length_b                    6.922089
_cell_length_c                    17.746139
_cell_angle_alpha                 90.059822
_cell_angle_beta                  108.977459
_cell_angle_gamma                 90.064951
_cell_volume                      2265.45495399

loop_
_atom_site_label
_atom_site_type_symbol
_atom_type_description
_atom_site_fract_x
_atom_site_fract_y
_atom_site_fract_z
_atom_type_partial_charge
O1    O     O_R   0.561710 0.369960 0.440200 -0.516517
O2    O     O_R   0.061710 0.630040 0.940200 -0.521912
O3    O     O_R   0.412630 0.033330 0.406330 -0.501583
O4    O     O_R   0.912630 0.966670 0.906330 -0.513155
O5    O     O_R   0.438290 0.869790 0.559800 -0.519465
O6    O     O_R   0.938290 0.130210 0.059800 -0.550184
C1    C     C_R   0.384803 0.203200 0.382980 0.793846
C2    C     C_R   0.885135 0.796479 0.882533 0.755951
O7    O     O_R   0.559570 0.039810 0.430640 -0.515703
O8    O     O_R   0.059570 0.960190 0.930640 -0.544147
O9    O     O_R   0.586280 0.876320 0.584290 -0.551785
O10   O     O_R   0.086280 0.123680 0.084290 -0.541291
C3    C     C_R   0.581691 0.209069 0.415940 0.760464
C4    C     C_R   0.080443 0.790940 0.915315 0.748556
O11   O     O_R   0.413720 0.363440 0.415710 -0.559515
O12   O     O_R   0.913720 0.636560 0.915710 -0.553603
O13   O     O_3   0.508590 0.205630 0.550380 -0.379664
O14   O     O_3   0.008590 0.794370 0.050380 -0.380348
V1    V     V_3+5 0.498410 0.928130 0.490650 1.593469
V2    V     V_3+5 0.998410 0.071870 0.990650 1.496903
O15   O     O_R   0.587370 0.546990 0.593670 -0.548967
O16   O     O_R   0.087370 0.453010 0.093670 -0.543853
C5    C     C_R   0.615799 0.716711 0.616048 0.722226
C6    C     C_R   0.115676 0.283566 0.116308 0.728470
O17   O     O_R   0.440430 0.540520 0.569360 -0.519655
O18   O     O_R   0.940430 0.459480 0.069360 -0.535112
C7    C     C_R   0.418310 0.709408 0.584160 0.772591
C8    C     C_R   0.917924 0.290600 0.082978 0.683303
V3    V     V_3+5 0.501590 0.428960 0.509350 1.544550
V4    V     V_3+5 0.001590 0.571040 0.009350 1.485254
O19   O     O_3   0.491410 0.701330 0.449620 -0.357865
O20   O     O_3   0.991410 0.298670 0.949620 -0.364862
C9    C     C_R   0.277941 0.903611 0.674816 0.261884
C10   C     C_R   0.748637 0.200619 0.142424 0.376323
C11   C     C_R   0.322613 0.885844 0.625599 0.224462
C12   C     C_R   0.796578 0.203227 0.097023 0.253895
C13   C     C_R   0.367799 0.721751 0.632300 -0.130237
C14   C     C_R   0.868335 0.278185 0.131115 -0.248375
C15   C     C_R   0.363455 0.569857 0.683818 0.306776
C16   C     C_R   0.891342 0.343073 0.211512 0.341301
C17   C     C_R   0.314804 0.583476 0.727507 -0.310840
C18   C     C_R   0.843686 0.332829 0.255664 -0.211802
C19   C     C_R   0.271966 0.748269 0.723642 0.035046
C20   C     C_R   0.773069 0.260266 0.222731 -0.059891
C21   C     C_R   0.245212 0.696104 0.852038 -0.241375
C22   C     C_R   0.719313 0.400293 0.321789 -0.256552
H1    H     H_    0.299978 0.642705 0.878548 0.130033
H2    H     H_    0.750041 0.531087 0.322315 0.123050
C23   C     C_R   0.198668 0.705190 0.898452 0.324069
C24   C     C_R   0.673972 0.388998 0.369461 0.305176
C25   C     C_R   0.127952 0.779776 0.865078 -0.170623
C26   C     C_R   0.631656 0.220506 0.367194 -0.120007
C27   C     C_R   0.103896 0.840917 0.784244 0.272134
C28   C     C_R   0.637907 0.063406 0.318507 0.276052
C29   C     C_R   0.151081 0.828569 0.739335 -0.041684
C30   C     C_R   0.685326 0.076889 0.273326 -0.174208
C31   C     C_R   0.222149 0.758437 0.772446 0.047971
C32   C     C_R   0.725039 0.245848 0.273193 0.105823
C33   C     C_R   0.779408 0.603990 0.796631 -0.117217
C34   C     C_R   0.278582 0.395236 0.298584 -0.105260
C35   C     C_R   0.818947 0.778075 0.811140 -0.164816
C36   C     C_R   0.318114 0.221227 0.312250 -0.172655
C37   C     C_R   0.795993 0.924442 0.752576 0.435617
C38   C     C_R   0.294854 0.074875 0.253556 0.428762
C39   C     C_R   0.730257 0.900456 0.687927 -0.188568
C40   C     C_R   0.229508 0.099720 0.188667 -0.192453
C41   C     C_R   0.686981 0.732546 0.680089 -0.162069
C42   C     C_R   0.186645 0.268061 0.180781 -0.165687
C43   C     C_R   0.715152 0.582124 0.733235 -0.049984
C44   C     C_R   0.214585 0.417871 0.234736 -0.039897
C45   C     C_3   0.679606 0.463255 0.780417 0.199579
C46   C     C_3   0.178351 0.533232 0.282293 0.193115
C47   C     C_3   0.750309 0.483940 0.850031 0.690546
C48   C     C_3   0.248326 0.510198 0.352616 0.671203
O21   O     O_3   0.241801 0.073126 0.678596 -0.649673
H3    H     H_    0.266852 0.182473 0.662781 0.307161
O22   O     O_3   0.677031 0.142851 0.109735 -0.636699
H4    H     H_    0.665915 0.109173 0.052835 0.347285
H5    H     H_    0.712168 0.015648 0.644747 0.132091
H6    H     H_    0.211334 0.984605 0.145293 0.147970
O23   O     O_3   0.667127 0.273463 0.751482 -0.610330
H7    H     H_    0.618775 0.273973 0.709756 0.302192
O24   O     O_3   0.166368 0.724329 0.255119 -0.607769
H8    H     H_    0.118862 0.724444 0.211953 0.302093
H9    H     H_    0.631484 0.533335 0.789600 0.050987
H10   H     H_    0.129804 0.461794 0.289946 0.059142
O25   O     O_3   0.787343 0.308623 0.871479 -0.580298
H11   H     H_    0.835457 0.340666 0.910145 0.307420
O26   O     O_3   0.284911 0.685664 0.377162 -0.579041
H12   H     H_    0.331196 0.653591 0.419050 0.304882
O27   O     O_3   0.743079 0.583509 0.916368 -0.644525
H13   H     H_    0.718385 0.708315 0.897553 0.271432
O28   O     O_3   0.239893 0.404765 0.416996 -0.654537
H14   H     H_    0.215443 0.280598 0.396132 0.269954
O29   O     O_3   0.321372 0.024028 0.569002 -0.618319
H15   H     H_    0.272728 0.084426 0.550382 0.318191
O30   O     O_3   0.770292 0.135891 0.019459 -0.624779
H16   H     H_    0.810587 0.103521 0.999719 0.317532
O31   O     O_3   0.407338 0.409563 0.691126 -0.623200
H17   H     H_    0.397949 0.317823 0.729544 0.296021
O32   O     O_3   0.960225 0.413081 0.250596 -0.629199
H18   H     H_    0.992401 0.388573 0.218612 0.275262
H19   H     H_    0.310567 0.464258 0.765249 0.152443
H20   H     H_    0.862895 0.378528 0.317444 0.171358
O33   O     O_3   0.221549 0.645397 0.976997 -0.646537
H21   H     H_    0.272029 0.597204 0.991280 0.292421
O34   O     O_3   0.671333 0.540098 0.419447 -0.625371
H22   H     H_    0.704795 0.644086 0.414923 0.296792
O35   O     O_3   0.034787 0.909487 0.745810 -0.624258
H23   H     H_    0.004086 0.892945 0.780038 0.291853
O36   O     O_3   0.596516 0.899172 0.314622 -0.616590
H24   H     H_    0.607032 0.804536 0.277843 0.302088
H25   H     H_    0.131304 0.871498 0.677313 0.179659
H26   H     H_    0.691135 0.954413 0.237846 0.147703
O37   O     O_3   0.837526 0.089298 0.759439 -0.616135
H27   H     H_    0.813520 0.177256 0.714561 0.304878
O38   O     O_3   0.335644 0.908815 0.260657 -0.613576
H28   H     H_    0.311430 0.820826 0.215717 0.307003

loop_
_geom_bond_atom_site_label_1
_geom_bond_atom_site_label_2
_ccdc_geom_bond_type
C40   C42   A    
O25   H11   S    
C37   C39   A    
O28   H14   S    
C39   H5    S    
O29   H15   S    
O13   V3    S    
O36   H24   S    
O4    C2    A    
V1    O19   S    
O30   H16   S    
C15   C17   A    
O22   H4    S    
C34   C48   S    
C21   C31   A    
O32   H18   S    
C48   O26   S    
C11   C13   A    
O7    V1    S    
O3    C1    A    
C10   O22   S    
O12   V4    S    
O37   H27   S    
C34   C36   A    
C21   H1    S    
C5    C41   S    
C43   C45   S    
O7    C3    A    
C47   O25   S    
C36   C38   A    
C9    C11   A    
C16   O32   S    
O5    C7    A    
C9    O21   S    
O6    C8    A    
C4    C25   S    
O8    V2    S    
C39   C41   A    
C24   C26   A    
O34   H22   S    
O3    V1    S    
C12   O30   S    
O14   V4    S    
C8    C14   S    
C33   C47   S    
C10   C12   A    
C2    C35   S    
C37   O37   S    
C16   C18   A    
C2    O12   A    
C14   C16   A    
C45   H9    S    
C22   C32   A    
C17   C19   A    
C48   O28   S    
C18   C20   A    
C26   C28   A    
O11   V3    S    
C22   H2    S    
C27   C29   A    
O17   V3    S    
C28   C30   A    
C33   C35   A    
C9    C19   A    
C10   C20   A    
C47   O27   S    
C46   C48   S    
O8    C4    A    
C20   C32   S    
O27   H13   S    
C45   C47   S    
C6    C42   S    
C23   O33   S    
C1    O11   A    
C29   H25   S    
C23   C25   A    
O15   V3    S    
O23   H7    S    
C38   O38   S    
C17   H19   S    
C25   C27   A    
C38   C40   A    
O21   H3    S    
C1    C36   S    
C3    C26   S    
C15   O31   S    
O24   H8    S    
C34   C44   A    
O9    V1    S    
O10   V2    S    
O1    V3    S    
C21   C23   A    
C33   C43   A    
C42   C44   A    
O18   V4    S    
C29   C31   A    
C24   O34   S    
O16   C6    A    
O1    C3    A    
C12   C14   A    
C40   H6    S    
V2    O20   S    
C27   O35   S    
O10   C6    A    
O16   V4    S    
C35   C37   A    
C18   H20   S    
C46   H10   S    
O5    V1    S    
C11   O29   S    
O17   C7    A    
O6    V2    S    
O33   H21   S    
C22   C24   A    
O18   C8    A    
O31   H17   S    
O2    V4    S    
O15   C5    A    
C13   C15   A    
O35   H23   S    
V4    O20   S    
C7    C13   S    
O9    C5    A    
O13   V1    S    
C30   C32   A    
C28   O36   S    
O14   V2    S    
O2    C4    A    
C46   O24   S    
C19   C31   S    
O4    V2    S    
V3    O19   S    
C30   H26   S    
C44   C46   S    
C41   C43   A    
O26   H12   S    
O38   H28   S    
C45   O23   S    
