data_mof_unit_44659.cif
_audit_creation_date              2012-12-11T16:58:16-0500
_audit_creation_method            fapswitch 2.2
_symmetry_space_group_name_H-M    P1
_symmetry_Int_Tables_number       1
_space_group_crystal_system       triclinic
_cell_length_a                    16.951502
_cell_length_b                    7.282593
_cell_length_c                    16.757203
_cell_angle_alpha                 89.958324
_cell_angle_beta                  100.243029
_cell_angle_gamma                 90.000871
_cell_volume                      2035.72096548

loop_
_atom_site_label
_atom_site_type_symbol
_atom_type_description
_atom_site_fract_x
_atom_site_fract_y
_atom_site_fract_z
_atom_type_partial_charge
O1    O     O_R   0.413450 0.494370 0.415710 -0.531263
O2    O     O_R   0.586550 0.994370 0.584290 -0.519852
O3    O     O_R   0.578420 0.819350 0.429360 -0.540653
O4    O     O_R   0.421580 0.319350 0.570640 -0.542940
C1    C     C_R   0.604928 0.656945 0.414024 0.740951
C2    C     C_R   0.395230 0.156816 0.586148 0.752892
O5    O     O_R   0.413570 0.823780 0.406240 -0.526341
O6    O     O_R   0.586430 0.323780 0.593760 -0.542009
O7    O     O_R   0.420530 0.998740 0.561000 -0.529109
O8    O     O_R   0.579470 0.498740 0.439000 -0.535741
C3    C     C_R   0.385930 0.655418 0.383960 0.704344
C4    C     C_R   0.614100 0.155269 0.616001 0.709256
O9    O     O_3   0.502480 0.662320 0.550800 -0.378323
O10   O     O_3   0.497520 0.162320 0.449200 -0.375845
V1    V     V_3+5 0.499540 0.935370 0.490580 1.492627
V2    V     V_3+5 0.500460 0.435370 0.509420 1.469828
C5    C     C_R   0.697052 0.988752 0.734333 0.038866
C6    C     C_R   0.265574 0.490973 0.305441 0.089286
C7    C     C_R   0.681832 0.145956 0.685781 -0.072837
C8    C     C_R   0.314886 0.646899 0.317673 -0.111568
C9    C     C_R   0.732712 0.297239 0.707541 -0.128247
C10   C     C_R   0.292277 0.797860 0.265933 -0.097041
H1    H     H_    0.723425 0.421548 0.672526 0.179431
H2    H     H_    0.327601 0.922240 0.272717 0.169224
C11   C     C_R   0.799296 0.285230 0.771189 -0.095401
C12   C     C_R   0.226149 0.786749 0.201834 -0.143279
H3    H     H_    0.839442 0.401482 0.782561 0.156011
H4    H     H_    0.211925 0.903622 0.162461 0.177797
C13   C     C_R   0.815765 0.122682 0.817078 -0.114632
C14   C     C_R   0.181957 0.622899 0.185450 -0.072173
C15   C     C_R   0.760166 0.979672 0.799878 0.097615
C16   C     C_R   0.202944 0.477423 0.239563 0.039630
C17   C     C_3   0.772777 0.780204 0.788126 0.036498
C18   C     C_3   0.221911 0.281503 0.224837 0.028942
C19   C     C_3   0.707195 0.792065 0.712973 0.031964
C20   C     C_3   0.287036 0.293636 0.300201 0.038242
H5    H     H_    0.833539 0.747367 0.775869 0.147612
H6    H     H_    0.171645 0.187411 0.230642 0.150282
H7    H     H_    0.653136 0.707869 0.716030 0.153547
H8    H     H_    0.349137 0.271811 0.289228 0.150879
C21   C     C_R   0.331714 0.160608 0.636954 -0.053392
C22   C     C_R   0.668318 0.661177 0.363045 -0.059403
C23   C     C_R   0.167963 0.109010 0.863515 -0.047748
C24   C     C_R   0.832112 0.608532 0.136604 -0.052463
C25   C     C_R   0.276255 0.936748 0.819058 -0.175543
C26   C     C_R   0.724927 0.434383 0.182296 -0.179511
C27   C     C_R   0.222546 0.961159 0.872508 -0.120791
C28   C     C_R   0.778370 0.459044 0.128588 -0.113699
C29   C     C_R   0.169573 0.235539 0.800529 -0.225861
C30   C     C_R   0.829782 0.736562 0.198774 -0.231742
C31   C     C_R   0.223103 0.210478 0.745736 0.150772
C32   C     C_R   0.776464 0.711378 0.253776 0.151755
C33   C     C_R   0.276594 0.059134 0.754722 0.152567
C34   C     C_R   0.723933 0.558296 0.245863 0.153083
C35   C     C_R   0.330070 0.033969 0.699881 -0.234271
C36   C     C_R   0.670708 0.532960 0.300958 -0.234014
C37   C     C_R   0.277301 0.308760 0.628089 -0.112360
C38   C     C_R   0.721772 0.811149 0.370804 -0.112691
C39   C     C_R   0.223529 0.333058 0.681477 -0.181008
C40   C     C_R   0.775310 0.835603 0.317193 -0.181783
H9    H     H_    0.372335 0.920900 0.708110 0.122335
H10   H     H_    0.629192 0.418433 0.293542 0.124100
H11   H     H_    0.277259 0.408563 0.580097 0.149412
H12   H     H_    0.721216 0.912368 0.418050 0.158633
H13   H     H_    0.316832 0.820593 0.827509 0.131888
H14   H     H_    0.685067 0.316898 0.174640 0.131454
H15   H     H_    0.183006 0.449337 0.673071 0.129974
H16   H     H_    0.815051 0.953307 0.324742 0.130345
H17   H     H_    0.222749 0.861571 0.920607 0.141325
H18   H     H_    0.778635 0.358332 0.081080 0.147560
H19   H     H_    0.127271 0.348532 0.792235 0.122356
H20   H     H_    0.871374 0.850941 0.206292 0.123880
O11   O     O_R   0.920630 0.775410 0.061150 -0.527535
O12   O     O_R   0.079370 0.275410 0.938850 -0.525659
O13   O     O_R   0.086500 0.441450 0.093690 -0.521720
O14   O     O_R   0.913500 0.941450 0.906310 -0.530071
C41   C     C_R   0.114251 0.610073 0.115802 0.712926
C42   C     C_R   0.886100 0.110186 0.883892 0.700786
O15   O     O_R   0.921670 0.445960 0.070740 -0.544779
O16   O     O_R   0.078330 0.945960 0.929260 -0.547250
O17   O     O_R   0.913380 0.271130 0.915780 -0.530842
O18   O     O_R   0.086620 0.771130 0.084220 -0.545773
C43   C     C_R   0.895612 0.612774 0.085716 0.728153
C44   C     C_R   0.104386 0.112872 0.914298 0.714198
O19   O     O_3   0.997500 0.603030 0.949220 -0.376294
O20   O     O_3   0.002500 0.103030 0.050780 -0.379327
V3    V     V_3+5 0.000470 0.329940 0.009420 1.481288
V4    V     V_3+5 0.999530 0.829940 0.990580 1.465688
Br1   Br    Br    0.740869 0.643370 0.876828 -0.580720
Br2   Br    Br    0.266934 0.252695 0.126117 -0.601048
Br3   Br    Br    0.750511 0.767763 0.612985 -0.611788
Br4   Br    Br    0.260281 0.160531 0.392310 -0.583860

loop_
_geom_bond_atom_site_label_1
_geom_bond_atom_site_label_2
_ccdc_geom_bond_type
C14   C16   A    
C1    C22   S    
O1    C3    A    
O16   C44   A    
C24   C43   S    
O2    C4    A    
C22   C38   A    
C2    O7    A    
O15   V3    S    
O5    C3    A    
C10   H2    S    
C7    C9    A    
O14   C42   A    
C26   H14   S    
C17   C19   S    
C37   C39   A    
C38   C40   A    
C25   C27   A    
C30   H20   S    
C21   C35   A    
C32   C40   A    
C22   C36   A    
C14   C41   S    
C27   H17   S    
C13   C42   S    
C29   C31   A    
C2    C21   S    
C30   C32   A    
C15   C17   S    
O12   V3    S    
O14   V4    S    
C18   C20   S    
C39   H15   S    
C20   Br4   S    
O5    V1    S    
C25   C33   A    
O6    V2    S    
C38   H12   S    
C23   C44   S    
C32   C34   A    
C37   H11   S    
C26   C28   A    
C33   C35   A    
C11   C13   A    
C34   C36   A    
C3    C8    S    
C20   H8    S    
O4    C2    A    
O12   C44   A    
O20   V3    S    
C23   C29   A    
C17   H5    S    
C31   C33   A    
C16   C18   S    
O4    V2    S    
C19   H7    S    
C18   Br2   S    
O11   V4    S    
C17   Br1   S    
O6    C4    A    
C26   C34   A    
O1    V2    S    
O2    V1    S    
O13   C41   A    
O17   V3    S    
O13   V3    S    
C8    C10   A    
C12   C14   A    
C9    H1    S    
C25   H13   S    
C5    C15   A    
C36   H10   S    
C6    C16   A    
O3    V1    S    
O19   V4    S    
C24   C30   A    
C9    C11   A    
C18   H6    S    
C28   H18   S    
O3    C1    A    
C11   H3    S    
C12   H4    S    
O7    V1    S    
C21   C37   A    
C1    O8    A    
C13   C15   A    
O8    V2    S    
O15   C43   A    
C42   O17   A    
C23   C27   A    
C41   O18   A    
O18   V4    S    
C35   H9    S    
C4    C7    S    
C5    C7    A    
C6    C8    A    
C10   C12   A    
C31   C39   A    
C40   H16   S    
O16   V4    S    
C29   H19   S    
O9    V2    S    
O10   V1    S    
C5    C19   S    
C6    C20   S    
O11   C43   A    
C24   C28   A    
C19   Br3   S    
