data_mof_unit_39868.cif
_audit_creation_date              2013-03-05T15:54:00-0500
_audit_creation_method            fapswitch 2.2
_symmetry_space_group_name_H-M    P1
_symmetry_Int_Tables_number       1
_space_group_crystal_system       triclinic
_cell_length_a                    15.756891
_cell_length_b                    10.564987
_cell_length_c                    9.984035
_cell_angle_alpha                 87.573352
_cell_angle_beta                  90.04279
_cell_angle_gamma                 94.153264
_cell_volume                      1656.19999342

loop_
_atom_site_label
_atom_site_type_symbol
_atom_site_description
_atom_site_fract_x
_atom_site_fract_y
_atom_site_fract_z
_atom_type_partial_charge
O1    O     O_R   0.500000 0.316780 0.614690 -0.638719
O2    O     O_R   0.499990 0.316750 0.385360 -0.533145
C1    C     C_R   0.512490 0.262557 0.503767 0.951698
O3    O     O_R   0.377150 0.500020 0.614720 -0.620764
O4    O     O_R   0.377140 0.499990 0.385380 -0.578166
C2    C     C_R   0.338567 0.499851 0.500050 0.949583
Zn1   Zn    Zn3+2 0.500010 0.500020 0.653130 1.065565
Zn2   Zn    Zn3+2 0.499990 0.499980 0.346870 1.124669
O5    O     O_R   0.500010 0.683250 0.614640 -0.585530
O6    O     O_R   0.500000 0.683220 0.385310 -0.592272
O7    O     O_R   0.622860 0.500010 0.614620 -0.575647
O8    O     O_R   0.622850 0.499980 0.385280 -0.556662
C3    C     C_R   0.494978 0.740046 0.497282 0.929322
C4    C     C_R   0.661357 0.502010 0.499859 0.892006
C5    C     C_3   0.046760 0.486619 0.632287 0.208416
C6    C     C_3   0.045355 0.403374 0.391251 0.500581
C7    C     C_3   0.943256 0.389627 0.400717 0.326494
H1    H     H_    0.916971 0.410015 0.686573 0.290830
C8    C     C_1   0.750086 0.505406 0.498642 0.029369
C9    C     C_3   0.083351 0.511563 0.486467 -0.263671
C10   C     C_3   0.949449 0.492558 0.630374 -0.455034
C11   C     C_3   0.916634 0.506453 0.483432 -0.227838
C12   C     C_3   0.955692 0.639351 0.425435 -0.041890
C13   C     C_3   0.056352 0.649477 0.436025 0.377347
C14   C     C_1   0.825242 0.507289 0.493084 0.158343
C15   C     C_1   0.174993 0.509045 0.494911 0.236021
C16   C     C_1   0.249967 0.504354 0.499091 0.074134
H2    H     H_    0.932378 0.710460 0.493440 0.205056
H3    H     H_    0.073148 0.561345 0.698497 0.218298
H4    H     H_    0.932872 0.576075 0.687056 0.228747
C17   C     C_R   0.512880 0.090962 0.763711 0.323101
C18   C     C_R   0.466109 0.020684 0.866443 0.127656
C19   C     C_R   0.406342 0.922058 0.831455 0.275321
C20   C     C_R   0.405025 0.879993 0.700175 0.348639
C21   C     C_R   0.463874 0.936606 0.604945 -0.078980
C22   C     C_R   0.502300 0.055887 0.628795 -0.130834
C23   C     C_R   0.531832 0.130771 0.515273 -0.131113
C24   C     C_R   0.558830 0.072310 0.401190 0.429108
H5    H     H_    0.569370 0.895277 0.311325 0.240512
C25   C     C_R   0.541851 0.943136 0.392819 -0.126782
C26   C     C_R   0.492379 0.875564 0.492070 -0.084671
C27   C     C_R   0.363736 0.343047 0.130264 0.335489
C28   C     C_R   0.299630 0.285580 0.047575 0.347782
C29   C     C_R   0.313164 0.278840 0.911103 0.126833
C30   C     C_R   0.383516 0.345360 0.855884 -0.232969
H6    H     H_    0.393261 0.331903 0.753458 0.248510
C31   C     C_R   0.439823 0.424303 0.928229 0.050550
C32   C     C_R   0.436111 0.423608 0.072663 0.018381
N1    N     N_R   0.499210 0.498800 0.142780 -0.140522
C33   C     C_R   0.557279 0.574300 0.068164 0.388877
C34   C     C_R   0.557191 0.574504 0.925347 0.298769
N2    N     N_R   0.499180 0.498720 0.857170 -0.160193
N3    N     N_R   0.921959 0.673755 0.291990 0.276392
O9    O     O_R   0.863932 0.755262 0.281985 -0.231960
O10   O     O_R   0.952185 0.631533 0.182512 -0.218703
Cl1   Cl    Cl    0.622511 0.155386 0.276494 -0.353393
Cl2   Cl    Cl    0.600452 0.196279 0.806511 -0.398966
N4    N     N_R   0.480475 0.046282 0.005097 0.285221
O11   O     O_R   0.494220 0.162030 0.042952 -0.329019
O12   O     O_R   0.483527 0.953098 0.093916 -0.298324
Cl3   Cl    Cl    0.334892 0.848216 0.952216 -0.325194
Cl4   Cl    Cl    0.322394 0.770527 0.650981 -0.461831
Cl5   Cl    Cl    0.631469 0.676913 0.149471 -0.390964
Cl6   Cl    Cl    0.079240 0.347511 0.721940 -0.314314
Cl7   Cl    Cl    0.350154 0.270929 0.291023 -0.438786
Cl8   Cl    Cl    0.202203 0.214597 0.115179 -0.217853
N5    N     N_R   0.258424 0.200610 0.826932 0.266693
O13   O     O_R   0.223372 0.092120 0.872755 -0.179941
O14   O     O_R   0.255281 0.226591 0.698455 -0.312217
N6    N     N_R   0.618731 0.655481 0.851896 0.250842
O15   O     O_R   0.696148 0.621684 0.841982 -0.280561
O16   O     O_R   0.603710 0.773365 0.825520 -0.339572
Cl9   Cl    Cl    0.082593 0.440743 0.222300 -0.347009
Cl10  Cl    Cl    0.091934 0.253919 0.424195 -0.241342
N7    N     N_R   0.909177 0.269011 0.470611 0.236263
O17   O     O_R   0.836271 0.215551 0.433657 -0.255771
O18   O     O_R   0.944032 0.220909 0.577303 -0.231486
N8    N     N_R   0.905817 0.387211 0.263850 0.262722
O19   O     O_R   0.835497 0.440299 0.236156 -0.267884
O20   O     O_R   0.925748 0.297776 0.186163 -0.172336
Cl11  Cl    Cl    0.087563 0.766966 0.557429 -0.391852
N9    N     N_R   0.098341 0.702506 0.310883 0.297573
O21   O     O_R   0.175607 0.676503 0.282435 -0.284961
O22   O     O_R   0.073297 0.808372 0.258059 -0.162070

loop_
_geom_bond_atom_site_label_1
_geom_bond_atom_site_label_2
_geom_bond_distance
_ccdc_geom_bond_type
H1    C10   1.109755 S    
C21   C22   1.387841 A    
C18   N4    1.436350 S    
C13   Cl11  1.813810 S    
C3    C26   1.434038 S    
N3    O9    1.301575 A    
Zn1   O7    1.973839 S    
C15   C16   1.186608 T    
C6    Cl10  1.806536 S    
C22   C23   1.413710 A    
Zn1   N2    2.036654 S    
C17   C22   1.418641 A    
O4    C2    1.296498 A    
O7    C4    1.295510 A    
N8    O20   1.303244 A    
N4    O12   1.300297 A    
C20   Cl4   1.761526 S    
C20   C21   1.412236 A    
O5    C3    1.298640 A    
C13   N9    1.483559 S    
C17   C18   1.415557 A    
C6    C7    1.607280 S    
C11   C14   1.444033 S    
C27   Cl7   1.753790 S    
C5    Cl6   1.794411 S    
C5    H3    1.108778 S    
N6    O15   1.300620 A    
C34   N6    1.427489 S    
C6    C9    1.600217 S    
C30   C31   1.395473 A    
C10   C11   1.559757 S    
C33   Cl5   1.757947 S    
O3    Zn1   1.973230 S    
C8    C14   1.184263 T    
C12   N3    1.475002 S    
N3    O10   1.301302 A    
C5    C9    1.571056 S    
C6    Cl9   1.804725 S    
C31   C32   1.442947 A    
C9    C13   1.607774 S    
O3    C2    1.295878 A    
H5    C25   1.082970 S    
N8    O19   1.301992 A    
N4    O11   1.298404 A    
C30   H6    1.051315 S    
C34   N2    1.370810 A    
N5    O14   1.302010 A    
N7    O17   1.303005 A    
C23   C24   1.399339 A    
C2    C16   1.400324 S    
Zn2   O8    1.973228 S    
C33   C34   1.425803 A    
C27   C32   1.474662 A    
C12   H2    1.115298 S    
N7    O18   1.299347 A    
C19   Cl3   1.767750 S    
N5    O13   1.300919 A    
O8    C4    1.294765 A    
N1    C33   1.368730 A    
N9    O22   1.303274 A    
C28   C29   1.384884 A    
C27   C28   1.422278 A    
C29   C30   1.371852 A    
Zn1   O5    1.957571 S    
C25   C26   1.399959 A    
O1    Zn1   1.989468 S    
C4    C8    1.395996 S    
O2    Zn2   1.957573 S    
O6    C3    1.296272 A    
O4    Zn2   1.973839 S    
C31   N2    1.357736 A    
C10   H4    1.114862 S    
C7    C11   1.594733 S    
C18   C19   1.408122 A    
C17   Cl2   1.772458 S    
O2    C1    1.312568 A    
C24   C25   1.377587 A    
C9    C15   1.448481 S    
C28   Cl8   1.779488 S    
C32   N1    1.428742 A    
C7    N8    1.488452 S    
C19   C20   1.401367 A    
C21   C26   1.411342 A    
C12   C13   1.585696 S    
C5    C10   1.539214 S    
C24   Cl1   1.763217 S    
C1    C23   1.446541 S    
Zn2   O6    1.989468 S    
N9    O21   1.301527 A    
C7    N7    1.491746 S    
C11   C12   1.578595 S    
C29   N5    1.444903 S    
N6    O16   1.300509 A    
O1    C1    1.289864 A    
Zn2   N1    2.038230 S    
