data_mof_unit_12762.cif
_audit_creation_date              2013-03-05T16:34:04-0500
_audit_creation_method            fapswitch 2.2
_symmetry_space_group_name_H-M    P1
_symmetry_Int_Tables_number       1
_space_group_crystal_system       triclinic
_cell_length_a                    9.544263
_cell_length_b                    10.820077
_cell_length_c                    17.12302
_cell_angle_alpha                 89.205876
_cell_angle_beta                  93.999564
_cell_angle_gamma                 90.117806
_cell_volume                      1763.81145878

loop_
_atom_site_label
_atom_site_type_symbol
_atom_site_description
_atom_site_fract_x
_atom_site_fract_y
_atom_site_fract_z
_atom_type_partial_charge
O1    O     O_R   0.618810 0.319640 0.500000 -0.585733
O2    O     O_R   0.381230 0.319680 0.499990 -0.588527
C1    C     C_R   0.500079 0.262301 0.501813 0.800328
O3    O     O_R   0.631790 0.498830 0.613930 -0.586940
O4    O     O_R   0.394210 0.498870 0.613920 -0.589311
C2    C     C_R   0.517535 0.498086 0.650874 0.786407
Cu1   Cu    Cu3+1 0.640670 0.499980 0.500000 0.947044
Cu2   Cu    Cu3+1 0.359330 0.500020 0.500000 0.966746
O5    O     O_R   0.618770 0.680320 0.500010 -0.580771
O6    O     O_R   0.381190 0.680360 0.500000 -0.561501
O7    O     O_R   0.605790 0.501130 0.386080 -0.586752
O8    O     O_R   0.368210 0.501170 0.386070 -0.578160
C3    C     C_R   0.500232 0.737699 0.501617 0.829920
C4    C     C_R   0.482563 0.500153 0.349049 0.824928
C5    C     C_R   0.527251 0.496004 0.736753 -0.025775
C6    C     C_R   0.404284 0.496887 0.777075 -0.237307
C7    C     C_R   0.412157 0.494633 0.858383 -0.156518
C8    C     C_R   0.544048 0.491445 0.901091 0.387316
C9    C     C_R   0.666427 0.490178 0.860752 -0.194314
C10   C     C_R   0.658531 0.492540 0.779167 -0.218986
C11   C     C_R   0.588606 0.478066 0.141936 -0.147441
C12   C     C_R   0.595480 0.479286 0.223272 -0.236080
C13   C     C_R   0.458520 0.494060 0.098663 0.380264
N1    N     N_2   0.558440 0.489621 0.984101 -0.263319
N2    N     N_2   0.444878 0.495287 0.015703 -0.263615
C14   C     C_R   0.473514 0.496989 0.263041 -0.031690
H1    H     H_    0.696431 0.465322 0.254805 0.154290
H2    H     H_    0.684985 0.464412 0.113365 0.154340
H3    H     H_    0.768343 0.487598 0.892796 0.140789
H4    H     H_    0.755029 0.491546 0.749445 0.160456
C15   C     C_R   0.343930 0.510626 0.219825 -0.164355
C16   C     C_R   0.336826 0.509237 0.138343 -0.185836
H5    H     H_    0.248070 0.522858 0.248568 0.161752
H6    H     H_    0.314940 0.495367 0.887383 0.152903
H7    H     H_    0.236065 0.520743 0.105840 0.142857
H8    H     H_    0.301581 0.499337 0.745897 0.162493
C17   C     C_R   0.626825 0.063840 0.509959 0.099583
C18   C     C_R   0.500960 0.129117 0.510324 -0.096438
C19   C     C_R   0.376651 0.063758 0.522519 -0.195728
H9    H     H_    0.278349 0.111574 0.528204 0.164274
C20   C     C_R   0.376950 0.934808 0.522685 -0.143589
H10   H     H_    0.279085 0.886151 0.529037 0.194621
C21   C     C_R   0.501213 0.870639 0.510047 -0.097758
C22   C     C_R   0.626838 0.936701 0.509558 0.091881
C23   C     C_3   0.740458 0.932253 0.453980 -0.412637
C24   C     C_3   0.741104 0.072523 0.454796 -0.423106
H11   H     H_    0.838488 0.890608 0.481555 0.223012
H12   H     H_    0.703355 0.894025 0.396212 0.201401
H13   H     H_    0.839407 0.111854 0.483104 0.197969
H14   H     H_    0.705433 0.115507 0.397445 0.203734
C25   C     C_R   0.069739 0.595147 0.465487 0.206325
N3    N     N_R   0.147870 0.500930 0.499500 -0.212197
C26   C     C_R   0.079314 0.413038 0.540749 -0.080073
H15   H     H_    0.138898 0.341265 0.572542 0.137568
C27   C     C_R   0.930454 0.413099 0.540821 -0.076171
H16   H     H_    0.878517 0.341395 0.572688 0.137148
N4    N     N_R   0.851960 0.500890 0.499500 -0.180028
C28   C     C_R   0.921981 0.594706 0.465042 0.209097
C29   C     C_3   0.905194 0.631964 0.380709 -0.550359
C30   C     C_3   0.064281 0.632027 0.381105 0.126586
H17   H     H_    0.856737 0.558196 0.343521 0.184230
H18   H     H_    0.855801 0.724162 0.371472 0.220440
H19   H     H_    0.105487 0.559980 0.343506 0.106035
N5    N     N_R   0.124340 0.754763 0.368915 0.155970
O9    O     O_R   0.085667 0.849286 0.408416 -0.401488
O10   O     O_R   0.219719 0.769548 0.318917 -0.360204

loop_
_geom_bond_atom_site_label_1
_geom_bond_atom_site_label_2
_geom_bond_distance
_ccdc_geom_bond_type
O4    Cu2   1.955707 S    
C29   C30   1.517908 S    
C21   C22   1.395105 A    
C15   H5    1.077931 S    
C17   C18   1.395223 A    
C20   H10   1.082592 S    
C24   H14   1.112623 S    
C15   C16   1.392409 A    
C9    C10   1.393638 A    
Cu2   O8    1.958429 S    
C30   N5    1.463438 S    
C13   C16   1.397000 A    
C4    C14   1.470083 S    
C17   C22   1.375759 A    
C27   N4    1.369135 A    
C7    C8    1.411248 A    
C2    C5    1.466817 S    
C14   C15   1.403236 A    
C19   C20   1.395225 A    
C25   C28   1.409731 A    
C10   H4    1.083030 S    
C26   H15   1.081554 S    
C6    H8    1.083177 S    
Cu1   O7    1.955707 S    
C20   C21   1.406715 A    
C24   H13   1.112197 S    
N4    C28   1.364110 A    
C18   C19   1.406548 A    
O1    Cu1   1.961988 S    
C30   H19   1.107850 S    
C8    N1    1.418304 S    
N5    O9    1.302026 A    
C11   C12   1.389917 A    
C11   H2    1.082888 S    
O8    C4    1.299970 A    
O2    C1    1.292497 A    
C12   H1    1.080965 S    
C26   C27   1.420850 A    
C11   C13   1.410497 A    
O4    C2    1.296881 A    
O7    C4    1.296727 A    
C28   C29   1.491729 S    
C27   H16   1.081583 S    
C29   H17   1.108133 S    
Cu1   Cu2   2.685184 S    
C7    H6    1.082591 S    
C5    C6    1.402668 A    
C9    H3    1.083168 S    
C16   H7    1.083515 S    
C3    C21   1.447579 S    
C13   N2    1.417288 S    
N1    N2    1.246738 D    
O3    C2    1.298246 A    
C8    C9    1.398003 A    
C12   C14   1.403781 A    
C23   H11   1.111567 S    
C19   H9    1.083297 S    
Cu1   O5    1.962886 S    
Cu2   N3    2.017694 S    
C6    C7    1.388891 A    
C29   H18   1.108875 S    
O5    C3    1.293790 A    
C25   C30   1.491054 S    
C23   H12   1.112125 S    
O3    Cu1   1.958428 S    
C17   C24   1.493823 S    
C23   C24   1.517978 S    
Cu1   N4    2.017226 S    
Cu2   O6    1.961989 S    
O2    Cu2   1.962887 S    
C22   C23   1.493106 S    
C25   N3    1.364038 A    
C1    C18   1.446382 S    
N3    C26   1.369196 A    
C5    C10   1.404026 A    
O1    C1    1.292865 A    
O6    C3    1.292182 A    
N5    O10   1.300595 A    
