data_mof_unit_44347.cif
_audit_creation_date              2012-12-10T19:45:43-0500
_audit_creation_method            fapswitch 2.2
_symmetry_space_group_name_H-M    P1
_symmetry_Int_Tables_number       1
_space_group_crystal_system       triclinic
_cell_length_a                    10.89078
_cell_length_b                    14.667369
_cell_length_c                    14.737028
_cell_angle_alpha                 65.336646
_cell_angle_beta                  101.9085
_cell_angle_gamma                 101.765869
_cell_volume                      2074.83553529

loop_
_atom_site_label
_atom_site_type_symbol
_atom_type_description
_atom_site_fract_x
_atom_site_fract_y
_atom_site_fract_z
_atom_type_partial_charge
C1    C     C_R   0.478513 0.119629 0.312701 0.833321
C2    C     C_R   0.521483 0.880370 0.687299 0.833310
C3    C     C_R   0.870120 0.997126 0.497943 -0.065495
C4    C     C_R   0.129885 0.002868 0.502076 -0.065502
C5    C     C_R   0.912012 0.935949 0.460652 0.101242
C6    C     C_R   0.087993 0.064050 0.539364 0.101281
C7    C     C_R   0.475044 0.186973 0.205855 -0.049879
C8    C     C_R   0.524941 0.813018 0.794142 -0.049891
C9    C     C_R   0.513541 0.220278 0.038557 -0.133786
C10   C     C_R   0.486470 0.779716 0.961448 -0.133708
C11   C     C_R   0.489838 0.151685 0.134497 -0.120551
C12   C     C_R   0.510193 0.848309 0.865511 -0.120581
C13   C     C_R   0.469639 0.289899 0.177215 -0.228856
C14   C     C_R   0.530282 0.710085 0.822769 -0.228874
C15   C     C_R   0.487374 0.360328 0.079204 0.089640
C16   C     C_R   0.512557 0.639658 0.920781 0.089605
C17   C     C_R   0.517396 0.324356 0.011922 0.152406
C18   C     C_R   0.482568 0.675635 0.988071 0.152430
C19   C     C_R   0.482575 0.465651 0.047930 0.064805
C20   C     C_R   0.517349 0.534335 0.952054 0.064811
C21   C     C_R   0.557666 0.495670 0.891371 -0.164260
C22   C     C_R   0.442285 0.504321 0.108621 -0.164309
C23   C     C_R   0.263046 0.001076 0.501114 0.841742
C24   C     C_R   0.736955 0.998921 0.498892 0.841757
C25   C     C_R   0.555444 0.392579 0.920293 -0.126377
C26   C     C_R   0.444521 0.607414 0.079701 -0.126359
C27   C     C_R   0.696310 0.277329 0.676583 -0.265227
C28   C     C_R   0.303691 0.722673 0.323415 -0.265189
C29   C     C_R   0.670396 0.198680 0.643355 0.093232
C30   C     C_R   0.329610 0.801323 0.356641 0.093206
C31   C     C_R   0.523041 0.287095 0.507246 0.029417
C32   C     C_R   0.476949 0.712900 0.492760 0.029401
C33   C     C_R   0.547233 0.370927 0.535674 -0.003067
C34   C     C_R   0.452748 0.629065 0.464336 -0.003065
C35   C     C_R   0.634010 0.363094 0.623797 0.192299
C36   C     C_R   0.365977 0.636902 0.376209 0.192321
C37   C     C_R   0.487289 0.460508 0.481441 0.123198
C38   C     C_R   0.512682 0.539479 0.518573 0.123255
C39   C     C_R   0.596607 0.526020 0.608804 -0.142546
C40   C     C_R   0.403355 0.473964 0.391215 -0.142619
C41   C     C_R   0.656941 0.440117 0.659428 -0.099292
C42   C     C_R   0.343033 0.559873 0.340584 -0.099206
C43   C     C_R   0.303913 0.161212 0.725977 -0.302641
C44   C     C_R   0.696074 0.838911 0.273962 -0.302622
C45   C     C_R   0.243914 0.095200 0.678965 0.387430
C46   C     C_R   0.756105 0.904886 0.321006 0.387408
C47   C     C_R   0.171432 0.132976 0.583277 -0.012836
C48   C     C_R   0.828567 0.867062 0.416697 -0.012828
C49   C     C_R   0.157502 0.236372 0.537689 -0.367903
C50   C     C_R   0.842454 0.763659 0.462253 -0.367878
C51   C     C_R   0.211033 0.300680 0.587557 0.388001
C52   C     C_R   0.788888 0.699386 0.412353 0.388017
C53   C     C_R   0.285918 0.263296 0.681405 0.335342
C54   C     C_R   0.714019 0.736816 0.318503 0.335358
C55   C     C_R   0.958970 0.059696 0.536966 -0.212221
C56   C     C_R   0.041034 0.940293 0.463060 -0.212231
Cu1   Cu    Cu3+1 0.466270 0.918260 0.475690 0.977243
Cu2   Cu    Cu3+1 0.533730 0.081740 0.524310 0.977271
H1    H     H_    0.532670 0.192239 0.986155 0.148800
H2    H     H_    0.467376 0.807759 0.013858 0.148847
H3    H     H_    0.593507 0.543179 0.821340 0.133697
H4    H     H_    0.406476 0.456820 0.178666 0.133715
H5    H     H_    0.722171 0.433863 0.727503 0.131842
H6    H     H_    0.277799 0.566124 0.272512 0.131855
H7    H     H_    0.546789 0.716260 0.554935 0.118387
H8    H     H_    0.453203 0.283734 0.445070 0.118386
H9    H     H_    0.283476 0.868502 0.315016 0.129222
H10   H     H_    0.716539 0.131505 0.684976 0.129211
H11   H     H_    0.763385 0.270597 0.743833 0.150791
H12   H     H_    0.236621 0.729407 0.256162 0.150792
H13   H     H_    0.618536 0.580916 0.642467 0.109383
H14   H     H_    0.381403 0.419058 0.357563 0.109391
H15   H     H_    0.359043 0.132050 0.799762 0.196670
H16   H     H_    0.640956 0.868109 0.200176 0.196652
H17   H     H_    0.097424 0.265432 0.466180 0.210223
H18   H     H_    0.902518 0.734565 0.533764 0.210206
H19   H     H_    0.928301 0.105569 0.567665 0.176590
H20   H     H_    0.071699 0.894419 0.432361 0.176597
H21   H     H_    0.586193 0.366045 0.871245 0.164014
H22   H     H_    0.413799 0.633952 0.128757 0.164079
H23   H     H_    0.541720 0.686381 0.765345 0.144903
H24   H     H_    0.458144 0.313590 0.234632 0.144853
H25   H     H_    0.508757 0.928076 0.845322 0.180300
H26   H     H_    0.491324 0.071924 0.154698 0.180292
N1    N     N_R   0.584450 0.204570 0.560790 -0.185113
N2    N     N_R   0.415550 0.795430 0.439210 -0.185119
O1    O     O_R   0.455540 0.022090 0.338120 -0.586369
O2    O     O_R   0.544460 0.977910 0.661880 -0.586343
O3    O     O_R   0.512510 0.160150 0.379180 -0.585905
O4    O     O_R   0.487490 0.839850 0.620820 -0.585931
O5    O     O_R   0.291160 0.930970 0.479480 -0.586726
O6    O     O_R   0.708840 0.069030 0.520520 -0.586719
O7    O     O_R   0.348130 0.069020 0.520540 -0.579588
O8    O     O_R   0.651870 0.930980 0.479460 -0.579600
Cl1   Cl    Cl    0.350257 0.341383 0.747383 -0.613643
Cl2   Cl    Cl    0.649640 0.658775 0.252484 -0.613726
Cl3   Cl    Cl    0.249941 0.964634 0.746056 -0.657006
Cl4   Cl    Cl    0.750140 0.035467 0.253957 -0.657011
Cl5   Cl    Cl    0.172357 0.424784 0.535563 -0.514925
Cl6   Cl    Cl    0.827493 0.575262 0.464310 -0.514922

loop_
_geom_bond_atom_site_label_1
_geom_bond_atom_site_label_2
_ccdc_geom_bond_type
C43   H15   S    
C31   H8    S    
C1    O1    A    
C31   N1    A    
C23   O5    A    
C27   C29   A    
C5    C56   A    
C36   C42   A    
C19   C20   A    
C18   C26   A    
C6    C55   A    
C39   C41   A    
C15   C19   A    
Cu2   O7    S    
C37   C40   A    
C24   O8    A    
C38   C39   A    
C55   H19   S    
C53   Cl1   S    
C56   H20   S    
Cu1   N2    S    
C2    O4    A    
C1    C7    S    
C3    C55   A    
C43   C53   A    
C44   C46   A    
C49   C51   A    
C50   C52   A    
C49   H17   S    
Cu1   O1    S    
C2    O2    A    
C30   N2    A    
Cu1   O5    S    
C21   H3    S    
C30   H9    S    
C27   H11   S    
C16   C20   A    
C40   C42   A    
C46   Cl4   S    
C25   H21   S    
C4    C56   A    
C3    C24   S    
C24   O6    A    
C52   C54   A    
C45   C47   A    
C51   Cl5   S    
C5    C48   S    
C46   C48   A    
Cu1   O4    S    
C19   C22   A    
C4    C6    A    
C6    C47   S    
C4    C23   S    
C8    C14   A    
C27   C35   A    
C13   H24   S    
C52   Cl6   S    
C33   C37   A    
C23   O7    A    
C12   H25   S    
C51   C53   A    
C32   C34   A    
C7    C11   A    
C37   C38   A    
C50   H18   S    
C22   H4    S    
C29   H10   S    
C9    C11   A    
C8    C12   A    
C32   N2    A    
C31   C33   A    
C44   H16   S    
C43   C45   A    
C10   C12   A    
C9    C17   A    
Cu1   O8    S    
C13   C15   A    
C14   C16   A    
C41   H5    S    
Cu2   N1    S    
C42   H6    S    
C15   C17   A    
C21   C25   A    
C10   H2    S    
C1    O3    A    
C40   H14   S    
C34   C38   A    
C29   N1    A    
C2    C8    S    
C3    C5    A    
Cu2   O2    S    
C11   H26   S    
C47   C49   A    
C17   C25   A    
C28   C30   A    
C45   Cl3   S    
Cu1   Cu2   S    
C10   C18   A    
C48   C50   A    
C33   C35   A    
C34   C36   A    
C35   C41   A    
Cu2   O3    S    
C26   H22   S    
C28   H12   S    
C44   C54   A    
C7    C13   A    
C20   C21   A    
C28   C36   A    
C16   C18   A    
C22   C26   A    
C39   H13   S    
C14   H23   S    
C9    H1    S    
Cu2   O6    S    
C54   Cl2   S    
C32   H7    S    
