data_mof_unit_53357.cif
_audit_creation_date              2012-10-26T19:03:00-0400
_audit_creation_method            fapswitch 2.2
_symmetry_space_group_name_H-M    P1
_symmetry_Int_Tables_number       1
_space_group_crystal_system       triclinic
_cell_length_a                    15.01499
_cell_length_b                    11.076374
_cell_length_c                    9.993269
_cell_angle_alpha                 112.181822
_cell_angle_beta                  97.77254
_cell_angle_gamma                 93.289099
_cell_volume                      1514.16720125

loop_
_atom_site_label
_atom_site_type_symbol
_atom_type_description
_atom_site_fract_x
_atom_site_fract_y
_atom_site_fract_z
_atom_type_partial_charge
C1    C     C_R   0.491357 0.253573 0.438439 0.584421
C2    C     C_2   0.483833 0.505818 0.926017 0.211752
C3    C     C_R   0.329554 0.501005 0.501728 0.607734
C4    C     C_R   0.670416 0.500356 0.498744 0.617473
C5    C     C_R   0.823415 0.619339 0.573489 0.210206
C6    C     C_R   0.175485 0.386217 0.430561 0.192693
C7    C     C_R   0.766649 0.502102 0.495565 0.048043
C8    C     C_R   0.233328 0.502411 0.506010 0.031556
C9    C     C_R   0.800605 0.387090 0.413921 0.238893
C10   C     C_R   0.200029 0.619125 0.585407 0.244223
C11   C     C_R   0.892937 0.391717 0.400834 0.034284
C12   C     C_R   0.505672 0.746507 0.561215 0.572396
C13   C     C_R   0.107271 0.616661 0.597755 0.035923
C14   C     C_R   0.952803 0.504357 0.497982 -0.055416
C15   C     C_R   0.046997 0.504338 0.501181 -0.056355
C16   C     C_R   0.918229 0.617183 0.591017 -0.022237
C17   C     C_R   0.081298 0.390699 0.409730 -0.019889
C18   C     C_R   0.927106 0.289296 0.293154 0.258424
C19   C     C_R   0.073091 0.720084 0.704397 0.260080
C20   C     C_2   0.054260 0.183589 0.178924 0.719100
C21   C     C_2   0.946803 0.825407 0.820942 0.716907
C22   C     C_2   0.555185 0.978116 0.750397 0.652303
C23   C     C_R   0.020958 0.286849 0.299675 0.075010
C24   C     C_2   0.420807 0.032967 0.250392 0.657974
C25   C     C_2   0.389896 0.455006 0.851634 0.640081
C26   C     C_2   0.568680 0.633685 0.185444 0.646030
C27   C     C_R   0.979111 0.721805 0.699483 0.071731
C28   C     C_2   0.475437 0.111388 0.397941 0.077694
C29   C     C_2   0.512153 0.888961 0.598782 0.076643
C30   C     C_2   0.514038 0.059004 0.490868 0.186757
C31   C     C_2   0.475118 0.933981 0.497682 0.203545
C32   C     C_2   0.504963 0.518613 0.084384 0.205602
Cl1   Cl    Cl    0.772241 0.767478 0.629437 -0.434344
Cl2   Cl    Cl    0.410137 0.288570 0.023724 -0.320419
Cl3   Cl    Cl    0.222981 0.235982 0.386095 -0.473351
Cl4   Cl    Cl    0.727803 0.237180 0.347879 -0.423933
Cl5   Cl    Cl    0.274536 0.767226 0.650759 -0.411826
Cl6   Cl    Cl    0.855205 0.179085 0.130884 -0.393865
Cl7   Cl    Cl    0.145345 0.833257 0.864375 -0.400767
Cl8   Cl    Cl    0.370576 0.847808 0.385865 -0.400137
Cl9   Cl    Cl    0.623446 0.134601 0.592490 -0.419991
Cl10  Cl    Cl    0.654970 0.581203 0.929552 -0.316601
Cu1   Cu    Cu3+1 0.515770 0.521810 0.644910 1.260538
Cu2   Cu    Cu3+1 0.484230 0.478190 0.355090 1.253493
H1    H     H_    0.128822 0.140546 0.016985 0.401682
H2    H     H_    0.877639 0.869324 0.989597 0.405884
H3    H     H_    0.648676 0.008041 0.928482 0.399064
H4    H     H_    0.316913 0.022239 0.093891 0.406598
H5    H     H_    0.303931 0.305952 0.697656 0.376465
H6    H     H_    0.597297 0.830252 0.273973 0.371195
N1    N     N_2   0.460520 0.445420 0.137370 -0.097861
N2    N     N_2   0.539480 0.554580 0.862630 -0.095847
O1    O     O_R   0.508410 0.332340 0.577400 -0.446082
O2    O     O_R   0.109672 0.219359 0.094954 -0.595400
O3    O     O_2   0.963843 0.940838 0.841020 -0.375991
O4    O     O_R   0.896617 0.790377 0.911573 -0.585271
O5    O     O_2   0.526959 0.083365 0.810524 -0.387511
O6    O     O_R   0.625839 0.939728 0.826066 -0.573378
O7    O     O_2   0.443992 0.929786 0.171548 -0.390860
O8    O     O_R   0.346935 0.082534 0.196780 -0.560706
O9    O     O_2   0.328201 0.517685 0.896973 -0.432216
O10   O     O_R   0.371192 0.332222 0.735314 -0.608144
O11   O     O_2   0.643900 0.619245 0.236694 -0.425681
O12   O     O_R   0.491590 0.667660 0.422600 -0.496198
O13   O     O_R   0.546755 0.759489 0.208511 -0.611530
O14   O     O_R   0.481780 0.295500 0.332650 -0.448952
O15   O     O_R   0.518220 0.704500 0.667350 -0.452400
O16   O     O_R   0.383570 0.518390 0.622380 -0.503086
O17   O     O_R   0.616430 0.481610 0.377620 -0.471053
O18   O     O_R   0.356940 0.481550 0.377630 -0.439030
O19   O     O_R   0.643060 0.518450 0.622370 -0.426228
O20   O     O_2   0.033890 0.067786 0.154180 -0.379837

loop_
_geom_bond_atom_site_label_1
_geom_bond_atom_site_label_2
_ccdc_geom_bond_type
C22   O6    S    
C21   O4    S    
Cu1   O19   S    
Cu1   Cu2   S    
C30   Cl9   S    
C26   C32   S    
C22   C29   S    
C12   C29   S    
C1    C28   S    
C19   C27   A    
H6    O13   S    
Cu2   O14   S    
C3    O16   A    
C20   C23   S    
C24   O8    S    
C22   O5    D    
C28   C30   D    
C1    O14   A    
C18   Cl6   S    
C21   O3    D    
Cu2   O17   S    
C11   C18   A    
C25   O9    D    
C31   Cl8   S    
H3    O6    S    
Cu2   O18   S    
C9    C11   A    
Cl2   N1    S    
C17   C23   A    
C2    N2    D    
C16   C27   A    
C24   O7    D    
C19   Cl7   S    
C2    C32   S    
C20   O2    S    
C4    O17   A    
C11   C14   A    
H1    O2    S    
H4    O8    S    
C2    C25   S    
C5    C7    A    
C25   O10   S    
C10   Cl5   S    
C13   C15   A    
C21   C27   S    
C30   C31   S    
C12   O12   A    
C12   O15   A    
C14   C16   A    
Cu1   N2    S    
C13   C19   A    
C18   C23   A    
C9    Cl4   S    
C7    C9    A    
C3    O18   A    
C6    Cl3   S    
Cu2   N1    S    
C26   O11   D    
C3    C8    S    
C32   N1    D    
H2    O4    S    
C15   C17   A    
C6    C17   A    
C1    O1    A    
C14   C15   A    
C20   O20   D    
Cu1   O15   S    
C6    C8    A    
H5    O10   S    
C4    O19   A    
C4    C7    S    
C29   C31   D    
C26   O13   S    
Cu1   O1    S    
C8    C10   A    
Cu2   O12   S    
C24   C28   S    
Cl10  N2    S    
Cu1   O16   S    
C5    C16   A    
C10   C13   A    
C5    Cl1   S    
