data_mof_unit_12676.cif
_audit_creation_date              2012-12-10T16:37:27-0500
_audit_creation_method            fapswitch 2.2
_symmetry_space_group_name_H-M    P1
_symmetry_Int_Tables_number       1
_space_group_crystal_system       triclinic
_cell_length_a                    16.856396
_cell_length_b                    16.709743
_cell_length_c                    16.792789
_cell_angle_alpha                 66.689818
_cell_angle_beta                  65.551302
_cell_angle_gamma                 65.143747
_cell_volume                      3763.5569887

loop_
_atom_site_label
_atom_site_type_symbol
_atom_type_description
_atom_site_fract_x
_atom_site_fract_y
_atom_site_fract_z
_atom_type_partial_charge
C1    C     C_R   0.393635 0.108808 0.636859 0.384303
C2    C     C_R   0.445721 0.694184 0.928136 0.384577
C3    C     C_R   0.062633 0.542505 0.306556 0.385159
C4    C     C_R   0.945917 0.455542 0.690352 0.404696
C5    C     C_R   0.963172 0.179600 0.437987 0.974880
C6    C     C_R   0.038641 0.820303 0.561510 0.919111
C7    C     C_R   0.179515 0.432038 0.970781 1.024569
C8    C     C_R   0.820561 0.568413 0.027867 0.982047
C9    C     C_R   0.438143 0.963396 0.179267 0.907416
C10   C     C_R   0.561886 0.038505 0.820442 0.920387
C11   C     C_R   0.575998 0.839559 0.990075 0.933952
C12   C     C_R   0.599171 0.933608 0.353286 0.378959
C13   C     C_R   0.424063 0.161159 0.009103 0.926690
C14   C     C_R   0.022630 0.569139 0.822873 0.959492
C15   C     C_R   0.976319 0.431416 0.177535 0.949468
C16   C     C_R   0.820187 0.040282 0.561787 0.931545
C17   C     C_R   0.177599 0.976414 0.431172 0.943995
C18   C     C_R   0.439427 0.107643 0.691719 0.368717
C19   C     C_R   0.556642 0.916029 0.307596 0.381268
C20   C     C_R   0.109539 0.677366 0.448650 0.347271
C21   C     C_R   0.898119 0.322063 0.549538 0.357202
C22   C     C_R   0.667119 0.480232 0.102714 0.340505
C23   C     C_R   0.115059 0.616641 0.406705 0.393545
C24   C     C_R   0.332611 0.521319 0.891312 0.331767
C25   C     C_R   0.261686 0.054261 0.497705 0.344876
C26   C     C_R   0.705212 0.074455 0.442248 0.339230
C27   C     C_R   0.503257 0.257369 0.073426 0.335668
C28   C     C_R   0.497936 0.745159 0.921235 0.334783
C29   C     C_R   0.063750 0.485252 0.264194 0.351200
C30   C     C_R   0.941861 0.513989 0.732758 0.336932
C31   C     C_R   0.537301 0.042090 0.536405 -0.046941
C32   C     C_R   0.450906 0.006573 0.446351 -0.044283
C33   C     C_R   0.013102 0.548684 0.544127 -0.044186
C34   C     C_R   0.893275 0.382966 0.590667 0.387326
C35   C     C_R   0.996834 0.449050 0.453199 -0.032362
C36   C     C_R   0.547393 0.554658 0.996846 -0.040884
C37   C     C_R   0.453883 0.447709 0.995683 -0.042094
C38   C     C_R   0.586464 0.020575 0.452069 -0.031849
C39   C     C_R   0.397885 0.040077 0.524811 -0.016496
C40   C     C_R   0.970168 0.479220 0.594620 -0.023494
C41   C     C_R   0.039661 0.518593 0.402404 -0.023101
C42   C     C_R   0.476963 0.597040 0.954335 -0.017039
C43   C     C_R   0.524489 0.405532 0.037783 -0.025627
C44   C     C_R   0.546520 0.989055 0.414880 -0.007005
C45   C     C_R   0.612921 0.430708 0.110166 0.402876
C46   C     C_R   0.441495 0.058940 0.570018 -0.016005
C47   C     C_R   0.435524 0.541515 0.946987 -0.003683
C48   C     C_R   0.565480 0.460895 0.045421 -0.016225
C49   C     C_R   0.956040 0.434032 0.548186 -0.021304
C50   C     C_R   0.053680 0.564070 0.449026 -0.029607
C51   C     C_R   0.536256 0.071933 0.668989 -0.038582
C52   C     C_R   0.460314 0.949970 0.326101 -0.039487
C53   C     C_R   0.061678 0.669259 0.541182 -0.065355
C54   C     C_R   0.947908 0.328424 0.457614 -0.037284
C55   C     C_R   0.666424 0.565452 0.038227 -0.039806
C56   C     C_R   0.387008 0.571316 0.883058 0.392541
C57   C     C_R   0.334358 0.435826 0.956009 -0.053875
C58   C     C_R   0.312394 0.007806 0.429115 -0.084735
C59   C     C_R   0.672482 0.062592 0.538095 -0.092297
C60   C     C_R   0.429183 0.298899 0.036374 -0.061365
C61   C     C_R   0.571696 0.703220 0.958888 -0.072334
C62   C     C_R   0.012882 0.423061 0.312410 -0.079267
C63   C     C_R   0.993038 0.575944 0.685426 -0.095219
C64   C     C_R   0.588031 0.069070 0.720062 -0.108431
C65   C     C_R   0.412500 0.940174 0.278685 -0.092081
C66   C     C_R   0.063554 0.720435 0.590162 -0.104710
C67   C     C_R   0.303516 0.050236 0.555796 0.385407
C68   C     C_R   0.945044 0.278229 0.408787 -0.089595
C69   C     C_R   0.728432 0.614180 0.017831 -0.085900
C70   C     C_R   0.272318 0.386553 0.978061 -0.061758
C71   C     C_R   0.272759 0.973354 0.393120 -0.134244
C72   C     C_R   0.719839 0.067902 0.589268 -0.096332
C73   C     C_R   0.379811 0.249148 0.032334 -0.144704
C74   C     C_R   0.620706 0.752338 0.965002 -0.097040
C75   C     C_R   0.976042 0.391184 0.271377 -0.141002
C76   C     C_R   0.025516 0.609370 0.728506 -0.132729
C77   C     C_R   0.672448 0.084224 0.674484 0.069979
C78   C     C_R   0.665182 0.049280 0.400547 0.389818
C79   C     C_R   0.327472 0.929698 0.324259 0.058877
C80   C     C_R   0.067605 0.678063 0.677837 0.095752
C81   C     C_R   0.933070 0.323352 0.325154 0.070594
C82   C     C_R   0.708289 0.706977 0.970657 0.115535
C83   C     C_R   0.292449 0.294026 0.026194 0.122432
C84   C     C_R   0.582805 0.056754 0.582000 -0.039429
C85   C     C_R   0.408210 0.987068 0.401256 -0.032870
C86   C     C_R   0.022793 0.597620 0.590152 -0.030503
C87   C     C_R   0.986330 0.400218 0.407807 -0.025722
C88   C     C_R   0.595908 0.607541 0.996517 -0.024244
C89   C     C_R   0.556081 0.308529 0.064288 0.384429
C90   C     C_R   0.405245 0.394413 0.997156 -0.018669
C91   C     C_3   0.648491 0.203560 0.738686 -0.487785
C92   C     C_3   0.362242 0.792424 0.280016 -0.498054
C93   C     C_3   0.198109 0.722063 0.658376 -0.498111
C94   C     C_3   0.772235 0.341369 0.369669 -0.503024
C95   C     C_3   0.802933 0.801361 0.942091 -0.591229
C96   C     C_3   0.197483 0.201218 0.051339 -0.571997
Cl1   Cl    Cl    0.290112 0.199151 0.629367 -0.405184
Cl2   Cl    Cl    0.330812 0.755056 0.927018 -0.406000
Cl3   Cl    Cl    0.061091 0.655191 0.238057 -0.424295
Cl4   Cl    Cl    0.947787 0.342762 0.758904 -0.397441
Cl5   Cl    Cl    0.377993 0.176585 0.768899 -0.497487
Cl6   Cl    Cl    0.622949 0.835721 0.242275 -0.496504
Cl7   Cl    Cl    0.178946 0.748757 0.389908 -0.577798
Cl8   Cl    Cl    0.823600 0.255500 0.606856 -0.593779
Cl9   Cl    Cl    0.714993 0.448201 0.189575 -0.610753
Cl10  Cl    Cl    0.281438 0.554159 0.806069 -0.574613
Cl11  Cl    Cl    0.160876 0.146511 0.490473 -0.525400
Cl12  Cl    Cl    0.715156 0.869402 0.347934 -0.443471
Cl13  Cl    Cl    0.775141 0.145678 0.369382 -0.499242
Cl14  Cl    Cl    0.522136 0.146102 0.147054 -0.513641
Cl15  Cl    Cl    0.478788 0.857188 0.849413 -0.516160
Cl16  Cl    Cl    0.152269 0.473513 0.162673 -0.538825
Cl17  Cl    Cl    0.850925 0.526184 0.832973 -0.560308
Cl18  Cl    Cl    0.217771 0.584939 0.319773 -0.430962
Cl19  Cl    Cl    0.790271 0.416912 0.676527 -0.445372
Cl20  Cl    Cl    0.584339 0.347993 0.214506 -0.402123
Cl21  Cl    Cl    0.414748 0.653755 0.778412 -0.447928
Cl22  Cl    Cl    0.241373 0.027230 0.672457 -0.413150
Cl23  Cl    Cl    0.697901 0.079388 0.279939 -0.330914
Cl24  Cl    Cl    0.671568 0.248276 0.063471 -0.373610
H1    H     H_    0.743677 0.071211 0.757504 0.263184
H2    H     H_    0.246292 0.661440 0.632814 0.269337
H3    H     H_    0.227949 0.734650 0.698456 0.282700
H4    H     H_    0.190518 0.782969 0.599625 0.195642
H5    H     H_    0.863645 0.328144 0.242059 0.311058
H6    H     H_    0.720834 0.329703 0.354140 0.309744
H7    H     H_    0.752469 0.415436 0.363685 0.242369
H8    H     H_    0.770179 0.301382 0.440928 0.232118
H9    H     H_    0.832963 0.709363 0.870148 0.234849
H10   H     H_    0.878685 0.783452 0.921812 0.214224
H11   H     H_    0.777018 0.787210 0.017294 0.277999
H12   H     H_    0.583924 0.195021 0.791732 0.211209
H13   H     H_    0.775332 0.875472 0.910515 0.228486
H14   H     H_    0.226888 0.219228 0.150736 0.229920
H15   H     H_    0.227285 0.126436 0.078808 0.213427
H16   H     H_    0.220845 0.219168 0.975881 0.279742
H17   H     H_    0.121867 0.217468 0.074653 0.235114
H18   H     H_    0.631272 0.258839 0.678602 0.259169
H19   H     H_    0.683187 0.225017 0.766805 0.274666
H20   H     H_    0.260128 0.917884 0.251759 0.270856
H21   H     H_    0.333487 0.761698 0.254763 0.278885
H22   H     H_    0.378594 0.744093 0.343313 0.255324
H23   H     H_    0.426618 0.801159 0.226705 0.204939
H24   H     H_    0.066949 0.753995 0.751282 0.254344
N1    N     N_2   0.708524 0.119515 0.712367 -0.268027
N2    N     N_2   0.296599 0.878836 0.297976 -0.267815
N3    N     N_2   0.110834 0.706194 0.715401 -0.269798
N4    N     N_2   0.862899 0.311966 0.307773 -0.271772
N5    N     N_2   0.778047 0.749038 0.909876 -0.320025
N6    N     N_2   0.222218 0.251977 0.085540 -0.315534
O1    O     O_R   0.982940 0.138950 0.510160 -0.549626
O2    O     O_R   0.982940 0.510160 0.138950 -0.579753
O3    O     O_R   0.861050 0.017060 0.489840 -0.589912
O4    O     O_R   0.138950 0.982940 0.510160 -0.601598
O5    O     O_R   0.867700 0.025880 0.612340 -0.611888
O6    O     O_R   0.132300 0.974120 0.387660 -0.609238
O7    O     O_R   0.025880 0.612340 0.867700 -0.635749
O8    O     O_R   0.974120 0.387660 0.132300 -0.641184
O9    O     O_R   0.612340 0.867700 0.025880 -0.600030
O10   O     O_R   0.387660 0.132300 0.974120 -0.594906
O11   O     O_R   0.387660 0.974120 0.132300 -0.669929
O12   O     O_R   0.017060 0.861050 0.489840 -0.571953
O13   O     O_R   0.612340 0.025880 0.867700 -0.674668
O14   O     O_R   0.132300 0.387660 0.974120 -0.625623
O15   O     O_R   0.867700 0.612340 0.025880 -0.640293
O16   O     O_R   0.974120 0.132300 0.387660 -0.597896
O17   O     O_R   0.025880 0.867700 0.612340 -0.650646
O18   O     O_R   0.138950 0.510160 0.982940 -0.552599
O19   O     O_R   0.861050 0.489840 0.017060 -0.551137
O20   O     O_R   0.510160 0.982940 0.138950 -0.548073
O21   O     O_R   0.489840 0.017060 0.861050 -0.543875
O22   O     O_R   0.489840 0.861050 0.017060 -0.598099
O23   O     O_R   0.510160 0.138950 0.982940 -0.599202
O24   O     O_R   0.017060 0.489840 0.861050 -0.579023
Zn1   Zn    Zn3+2 0.004880 0.004880 0.583590 1.107377
Zn2   Zn    Zn3+2 0.995120 0.995120 0.416410 1.132241
Zn3   Zn    Zn3+2 0.004880 0.583590 0.004880 1.103612
Zn4   Zn    Zn3+2 0.995120 0.416410 0.995120 1.120010
Zn5   Zn    Zn3+2 0.583590 0.004880 0.004880 1.080967
Zn6   Zn    Zn3+2 0.416410 0.995120 0.995120 1.083493

loop_
_geom_bond_atom_site_label_1
_geom_bond_atom_site_label_2
_ccdc_geom_bond_type
C15   C75   S    
C7    O18   A    
C10   O13   A    
C65   C79   A    
O15   Zn3   S    
C64   C77   A    
C41   C50   A    
C29   Cl16  S    
C36   C42   A    
C16   C72   S    
C93   H4    S    
C36   C48   A    
C7    C70   S    
C71   C79   A    
C11   O9    A    
C96   H16   S    
C20   Cl7   S    
C94   H7    S    
C36   C88   A    
C13   O23   A    
O3    Zn2   S    
C1    C18   A    
C26   C78   A    
O4    Zn1   S    
C68   C81   A    
C52   C85   A    
C34   Cl19  S    
C27   C60   A    
C5    C68   S    
C54   C87   A    
C19   Cl6   S    
C58   C71   A    
O12   Zn2   S    
C63   C76   A    
O23   Zn5   S    
O18   Zn3   S    
H14   N6    S    
C60   C73   A    
C95   H13   S    
C21   C54   A    
C56   Cl21  S    
C32   C39   A    
O2    Zn3   S    
C3    C29   A    
C92   H23   S    
O10   Zn6   S    
C69   C82   A    
C29   C62   A    
C21   Cl8   S    
C35   C87   A    
C19   C52   A    
C80   N3    S    
C3    C41   A    
C4    C40   A    
C27   Cl14  S    
C24   C57   A    
C55   C88   A    
C31   C46   A    
C25   C67   A    
C35   C49   A    
C95   H10   S    
C76   C80   A    
C89   Cl24  S    
C27   C89   A    
C53   C86   A    
C95   N5    S    
C57   C70   A    
C37   C47   A    
C92   H22   S    
C43   C48   A    
O24   Zn4   S    
C13   O10   A    
C59   C72   A    
C83   N6    S    
C28   C61   A    
O22   Zn6   S    
C11   O22   A    
C30   C63   A    
C95   H11   S    
C9    O20   A    
C74   C82   A    
H24   N3    S    
C35   C41   A    
C17   O4    A    
C15   O2    A    
C18   C51   A    
C96   H15   S    
C94   H6    S    
C28   Cl15  S    
C94   N4    S    
C33   C40   A    
O1    Zn1   S    
C57   C90   A    
C14   O7    A    
C92   N2    S    
C6    O12   A    
C79   N2    S    
C59   C84   A    
C15   O8    A    
C1    Cl1   S    
C96   H17   S    
C12   Cl12  S    
C75   C81   A    
C23   C50   A    
C91   H12   S    
C38   C78   A    
C33   C50   A    
C11   C74   S    
C31   C84   A    
C18   Cl5   S    
C14   C76   S    
C37   C43   A    
C33   C86   A    
C38   C44   A    
C72   C77   A    
C53   C66   A    
C61   C88   A    
C91   H18   S    
C20   C23   A    
C81   N4    S    
C96   N6    S    
C16   O5    A    
C8    C69   S    
O7    Zn3   S    
C5    O16   A    
C93   H2    S    
O11   Zn6   S    
C9    O11   A    
C92   H21   S    
C26   Cl13  S    
C2    Cl2   S    
C55   C69   A    
C39   C46   A    
C91   H19   S    
C37   C90   A    
C13   C73   S    
C17   C71   S    
C60   C90   A    
C4    Cl4   S    
C63   C86   A    
O13   Zn5   S    
H1    N1    S    
O21   Zn6   S    
C24   Cl10  S    
C25   C58   A    
C62   C75   A    
H20   N2    S    
C58   C85   A    
C77   N1    S    
O19   Zn4   S    
C91   N1    S    
O14   Zn4   S    
C8    O19   A    
C25   Cl11  S    
O17   Zn1   S    
C26   C59   A    
C45   C48   A    
O5    Zn1   S    
C6    O17   A    
O6    Zn2   S    
C34   C49   A    
C39   C67   A    
C10   C64   S    
C51   C64   A    
C93   H3    S    
O9    Zn5   S    
C20   C53   A    
H5    N4    S    
C22   C55   A    
C21   C34   A    
C94   H8    S    
C61   C74   A    
C24   C56   A    
C22   Cl9   S    
C66   C80   A    
C62   C87   A    
O16   Zn2   S    
C5    O1    A    
C31   C38   A    
O20   Zn5   S    
C78   Cl23  S    
C10   O21   A    
C14   O24   A    
C23   Cl18  S    
C45   Cl20  S    
C70   C83   A    
C2    C42   A    
C32   C85   A    
C12   C19   A    
C93   N3    S    
C42   C47   A    
C43   C89   A    
O8    Zn4   S    
C1    C46   A    
C67   Cl22  S    
C9    C65   S    
C82   N5    S    
C8    O15   A    
C3    Cl3   S    
C6    C66   S    
C22   C45   A    
C54   C68   A    
C32   C44   A    
C12   C44   A    
C16   O3    A    
C2    C28   A    
C7    O14   A    
H9    N5    S    
C17   O6    A    
C51   C84   A    
C73   C83   A    
C4    C30   A    
C52   C65   A    
C40   C49   A    
C47   C56   A    
C30   Cl17  S    
