data_mof_unit_60183.cif
_audit_creation_date              2012-10-26T18:54:32-0400
_audit_creation_method            fapswitch 2.2
_symmetry_space_group_name_H-M    P1
_symmetry_Int_Tables_number       1
_space_group_crystal_system       monoclinic
_cell_length_a                    15.890227
_cell_length_b                    11.732227
_cell_length_c                    10.474926
_cell_angle_alpha                 90.0
_cell_angle_beta                  89.983282
_cell_angle_gamma                 90.0
_cell_volume                      1952.81680504

loop_
_atom_site_label
_atom_site_type_symbol
_atom_type_description
_atom_site_fract_x
_atom_site_fract_y
_atom_site_fract_z
_atom_type_partial_charge
Br1   Br    Br    0.931815 0.499999 0.205877 -0.422547
Br2   Br    Br    0.068185 0.500001 0.794123 -0.422547
C1    C     C_1   0.500000 0.161944 0.500000 -0.002120
C2    C     C_1   0.500000 0.940268 0.500000 -0.019839
C3    C     C_3   0.971809 0.406106 0.560572 -0.107551
C4    C     C_3   0.028191 0.593894 0.439428 -0.107551
C5    C     C_3   0.028190 0.406105 0.439429 -0.107551
C6    C     C_3   0.971809 0.593895 0.560571 -0.107551
C7    C     C_1   0.249717 0.500000 0.500016 0.013015
C8    C     C_1   0.750282 0.500000 0.499984 0.013015
C9    C     C_3   0.027578 0.500001 0.619858 0.191210
C10   C     C_3   0.972422 0.499999 0.380142 0.191210
C11   C     C_3   0.082746 0.500000 0.499954 0.017697
C12   C     C_1   0.500000 0.838056 0.500000 -0.002120
C13   C     C_3   0.917254 0.500000 0.500046 0.017697
C14   C     C_1   0.174279 0.500000 0.500000 0.004555
C15   C     C_1   0.825721 0.500000 0.500000 0.004555
C16   C     C_1   0.500005 0.500000 0.072080 0.129241
C17   C     C_1   0.499995 0.500000 0.927920 0.129241
C18   C     C_R   0.500000 0.283325 0.500000 0.548220
C19   C     C_R   0.500000 0.716675 0.500000 0.548220
C20   C     C_R   0.339304 0.500000 0.499993 0.549115
C21   C     C_R   0.660696 0.500000 0.500007 0.549115
C22   C     C_1   0.500000 0.059732 0.500000 -0.019839
Cu1   Cu    Cu3+1 0.500000 0.500000 0.625300 1.035039
Cu2   Cu    Cu3+1 0.500000 0.500000 0.374700 1.035039
H1    H     H_    0.052246 0.329526 0.388991 0.149884
H2    H     H_    0.947754 0.670473 0.611009 0.149884
H3    H     H_    0.947753 0.329528 0.611011 0.149884
H4    H     H_    0.052246 0.670472 0.388989 0.149884
N1    N     N_1   0.500010 0.500000 0.186410 -0.180549
N2    N     N_1   0.499990 0.500000 0.813590 -0.180549
O1    O     O_R   0.499990 0.337200 0.605810 -0.488361
O2    O     O_R   0.500010 0.662800 0.394190 -0.488361
O3    O     O_R   0.500010 0.337200 0.394190 -0.488361
O4    O     O_R   0.499990 0.662800 0.605810 -0.488361
O5    O     O_R   0.379070 0.500000 0.605790 -0.480068
O6    O     O_R   0.620930 0.500000 0.394210 -0.480068
O7    O     O_R   0.379080 0.500000 0.394170 -0.490913
O8    O     O_R   0.620920 0.500000 0.605830 -0.490914

loop_
_geom_bond_atom_site_label_1
_geom_bond_atom_site_label_2
_ccdc_geom_bond_type
C19   O2    A    
C8    C21   S    
C21   O6    A    
C10   C13   S    
C17   N2    T    
Cu1   N2    S    
C20   O5    A    
C1    C18   S    
C19   O4    A    
C4    C11   S    
C2    C12   T    
C9    C11   S    
C1    C22   T    
Br1   C10   S    
C6    C9    S    
C2    C22   S    
Br2   C9    S    
C12   C19   S    
C4    H4    S    
C7    C14   T    
C3    C9    S    
C6    C13   S    
C3    H3    S    
Cu1   O8    S    
C4    C10   S    
C5    C10   S    
C6    H2    S    
Cu2   O7    S    
C3    C13   S    
C18   O1    A    
Cu1   O4    S    
C21   O8    A    
Cu2   O3    S    
C5    C11   S    
C5    H1    S    
C3    C5    S    
C7    C20   S    
Cu2   N1    S    
C11   C14   S    
C13   C15   S    
C16   C17   S    
C4    C6    S    
C16   N1    T    
C8    C15   T    
Cu1   O5    S    
Cu1   Cu2   S    
C18   O3    A    
C20   O7    A    
Cu2   O2    S    
Cu2   O6    S    
Cu1   O1    S    
