data_mof_unit_52162.cif
_audit_creation_date              2012-12-11T16:13:51-0500
_audit_creation_method            fapswitch 2.2
_symmetry_space_group_name_H-M    P1
_symmetry_Int_Tables_number       1
_space_group_crystal_system       triclinic
_cell_length_a                    25.930503
_cell_length_b                    7.262597
_cell_length_c                    24.055133
_cell_angle_alpha                 89.787956
_cell_angle_beta                  101.250987
_cell_angle_gamma                 89.813161
_cell_volume                      4443.00237456

loop_
_atom_site_label
_atom_site_type_symbol
_atom_type_description
_atom_site_fract_x
_atom_site_fract_y
_atom_site_fract_z
_atom_type_partial_charge
O1    O     O_R   0.192370 0.384760 0.193350 -0.539905
O2    O     O_R   0.807630 0.615240 0.806650 -0.533290
O3    O     O_R   0.307630 0.884760 0.306650 -0.540937
O4    O     O_R   0.692370 0.115240 0.693350 -0.533378
O5    O     O_R   0.296630 0.711620 0.196480 -0.545583
O6    O     O_R   0.703370 0.288380 0.803520 -0.545569
O7    O     O_R   0.203370 0.211620 0.303520 -0.543833
O8    O     O_R   0.796630 0.788380 0.696480 -0.545769
C1    C     C_R   0.311927 0.545548 0.183646 0.708601
C2    C     C_R   0.687891 0.454667 0.816547 0.698895
C3    C     C_R   0.187910 0.045231 0.316317 0.701383
C4    C     C_R   0.812540 0.954854 0.684030 0.701829
O9    O     O_R   0.192080 0.714290 0.186600 -0.532456
O10   O     O_R   0.807920 0.285710 0.813400 -0.538535
O11   O     O_R   0.307920 0.214290 0.313400 -0.534031
O12   O     O_R   0.692080 0.785710 0.686600 -0.541570
O13   O     O_R   0.202340 0.887460 0.296690 -0.507478
O14   O     O_R   0.797660 0.112540 0.703310 -0.504765
O15   O     O_R   0.297660 0.387460 0.203310 -0.508735
O16   O     O_R   0.702340 0.612540 0.796690 -0.507009
C5    C     C_R   0.173964 0.546592 0.171165 0.706032
C6    C     C_R   0.826417 0.453297 0.828453 0.705641
C7    C     C_R   0.326229 0.045623 0.328381 0.699237
C8    C     C_R   0.673481 0.954442 0.671721 0.704309
O17   O     O_3   0.253490 0.552180 0.286130 -0.375157
O18   O     O_3   0.746510 0.447820 0.713870 -0.368258
O19   O     O_3   0.246510 0.052180 0.213870 -0.374828
O20   O     O_3   0.753490 0.947820 0.786130 -0.367404
V1    V     V_3+5 0.249350 0.825920 0.243300 1.447067
V2    V     V_3+5 0.750650 0.174080 0.756700 1.455960
V3    V     V_3+5 0.250650 0.325920 0.256700 1.451581
V4    V     V_3+5 0.749350 0.674080 0.743300 1.449758
C9    C     C_3   0.532417 0.873479 0.485506 0.241041
C10   C     C_3   0.467185 0.124094 0.512992 0.241978
C11   C     C_3   0.960806 0.448627 0.021215 0.224594
C12   C     C_3   0.041824 0.550234 0.976186 0.240760
C13   C     C_3   0.514914 0.051182 0.452111 0.451507
C14   C     C_3   0.484119 0.946321 0.546392 0.411658
C15   C     C_3   0.991138 0.630427 0.034029 0.444233
C16   C     C_3   0.011324 0.369862 0.963264 0.419936
H1    H     H_    0.544214 0.300457 0.514845 0.142514
H2    H     H_    0.455067 0.697567 0.483274 0.167754
H3    H     H_    0.982020 0.792041 0.945888 0.150918
H4    H     H_    0.022362 0.205658 0.050244 0.164458
C17   C     C_1   0.372009 0.036492 0.373678 -0.172449
C18   C     C_1   0.627241 0.963921 0.626546 -0.199244
C19   C     C_1   0.128779 0.540789 0.124797 -0.193245
C20   C     C_1   0.872557 0.458759 0.873802 -0.185466
C21   C     C_3   0.474798 0.833238 0.490598 -0.397600
C22   C     C_3   0.524522 0.164697 0.507909 -0.340836
C23   C     C_3   0.012933 0.338287 0.027343 -0.346838
C24   C     C_3   0.990054 0.660703 0.969801 -0.329941
C25   C     C_3   0.457562 0.014424 0.457302 -0.027394
C26   C     C_3   0.541949 0.983090 0.541737 -0.010700
C27   C     C_3   0.043747 0.522591 0.040044 -0.037216
C28   C     C_3   0.958911 0.476851 0.957095 -0.034612
C29   C     C_1   0.410606 0.028145 0.411318 0.038812
C30   C     C_1   0.588534 0.971923 0.588751 0.019283
C31   C     C_1   0.090653 0.535695 0.086350 0.023849
C32   C     C_1   0.911454 0.463632 0.911370 0.014695
C33   C     C_R   0.873702 0.136152 0.632978 0.439543
C34   C     C_R   0.141044 0.866895 0.383112 0.432079
C35   C     C_R   0.628805 0.634735 0.870700 0.444290
C36   C     C_R   0.351437 0.380173 0.109063 0.419738
C37   C     C_R   0.907364 0.142137 0.593568 -0.228434
C38   C     C_R   0.101958 0.859295 0.416274 -0.229131
C39   C     C_R   0.595023 0.639056 0.909975 -0.226835
C40   C     C_R   0.390023 0.368802 0.075398 -0.219620
H5    H     H_    0.922756 0.273571 0.583273 0.140214
H6    H     H_    0.093894 0.728259 0.434406 0.144450
H7    H     H_    0.579885 0.770594 0.920718 0.140830
H8    H     H_    0.391618 0.246715 0.050053 0.152751
C41   C     C_R   0.921811 0.981250 0.568242 -0.029957
C42   C     C_R   0.074155 0.017715 0.426545 -0.032246
C43   C     C_R   0.579358 0.476562 0.933607 -0.030961
C44   C     C_R   0.425258 0.514454 0.073443 -0.041702
C45   C     C_R   0.899718 0.813333 0.580623 -0.143094
C46   C     C_R   0.085584 0.185245 0.402243 -0.139780
C47   C     C_R   0.600597 0.308544 0.919790 -0.141724
C48   C     C_R   0.421055 0.672552 0.105877 -0.127075
H9    H     H_    0.909628 0.686607 0.561485 0.152941
H10   H     H_    0.065060 0.310420 0.409371 0.155893
H11   H     H_    0.589839 0.180609 0.937724 0.151871
H12   H     H_    0.447294 0.787861 0.105190 0.156353
C49   C     C_R   0.863874 0.806783 0.617238 -0.252629
C50   C     C_R   0.122774 0.193116 0.367242 -0.239037
C51   C     C_R   0.636566 0.303455 0.883195 -0.249435
C52   C     C_R   0.383819 0.682653 0.140773 -0.221442
H13   H     H_    0.846743 0.675308 0.624401 0.178414
H14   H     H_    0.129279 0.324021 0.348094 0.177716
H15   H     H_    0.652921 0.171626 0.874827 0.180570
H16   H     H_    0.382723 0.804789 0.166231 0.161035
C53   C     C_R   0.850272 0.966730 0.644144 -0.136229
C54   C     C_R   0.150326 0.034353 0.356119 -0.134664
C55   C     C_R   0.650999 0.465149 0.857534 -0.139165
C56   C     C_R   0.349322 0.535745 0.143900 -0.145977
N1    N     N_R   0.981716 0.833892 0.512719 -0.284864
N2    N     N_R   0.012151 0.163599 0.479559 -0.284576
N3    N     N_R   0.514428 0.330411 0.983239 -0.284553
N4    N     N_R   0.491947 0.656084 0.025958 -0.282868
N5    N     N_R   0.017547 0.842737 0.479853 -0.286219
N6    N     N_R   0.976476 0.154775 0.512557 -0.286837
N7    N     N_R   0.478045 0.339685 0.015504 -0.284205
N8    N     N_R   0.528063 0.646990 0.993499 -0.285507
C57   C     C_R   0.033652 0.007796 0.462621 0.534666
C58   C     C_R   0.960455 0.989852 0.529928 0.534202
C59   C     C_R   0.465935 0.502895 0.037525 0.534499
C60   C     C_R   0.540182 0.484105 0.971408 0.533269
O21   O     O_3   0.527347 0.108766 0.400213 -0.560434
C61   C     C_3   0.582023 0.136114 0.406229 0.093158
H17   H     H_    0.600977 0.003370 0.398848 0.161472
H18   H     H_    0.600681 0.189737 0.448766 0.101401
C62   C     C_3   0.591716 0.275631 0.361751 -0.291660
H19   H     H_    0.574376 0.223987 0.318734 0.210154
H20   H     H_    0.572236 0.408205 0.368343 0.210643
C63   C     C_3   0.650362 0.309057 0.365490 -0.833582
H21   H     H_    0.670513 0.178872 0.358016 0.235425
H22   H     H_    0.668349 0.363737 0.407888 0.228531
H23   H     H_    0.656018 0.411260 0.332786 0.240688
O22   O     O_3   0.469412 0.894915 0.597678 -0.578020
C64   C     C_3   0.415573 0.848818 0.587975 0.061187
H24   H     H_    0.407558 0.728826 0.559212 0.135538
H25   H     H_    0.390649 0.966074 0.569019 0.129658
C65   C     C_3   0.400356 0.800297 0.644495 -0.299628
H26   H     H_    0.424561 0.682237 0.664355 0.195863
H27   H     H_    0.408138 0.920395 0.673398 0.201307
C66   C     C_3   0.342426 0.748878 0.636845 -0.849472
H28   H     H_    0.317197 0.864957 0.617257 0.232846
H29   H     H_    0.332698 0.717525 0.678812 0.237307
H30   H     H_    0.334122 0.624947 0.609712 0.232603
O23   O     O_3   0.984886 0.777043 0.070898 -0.570438
C67   C     C_3   0.931457 0.827909 0.067449 0.064720
H31   H     H_    0.930556 0.928410 0.101830 0.150750
H32   H     H_    0.907228 0.712381 0.077172 0.124784
C68   C     C_3   0.906034 0.919384 0.010901 -0.327054
H33   H     H_    0.930990 0.034693 0.001362 0.237295
H34   H     H_    0.901594 0.818070 0.976057 0.184813
C69   C     C_3   0.850830 0.990310 0.012365 -0.776852
H35   H     H_    0.824505 0.873186 0.016969 0.219595
H36   H     H_    0.834745 0.064176 0.972176 0.236595
H37   H     H_    0.851378 0.086206 0.048188 0.244937
O24   O     O_3   0.021563 0.235111 0.924652 -0.581290
C70   C     C_3   0.070482 0.146913 0.944985 0.075190
H38   H     H_    0.062803 0.009341 0.961924 0.165502
H39   H     H_    0.096696 0.221997 0.979757 0.102692
C71   C     C_3   0.099731 0.122751 0.895967 -0.295386
H40   H     H_    0.076179 0.035576 0.862695 0.190733
H41   H     H_    0.104895 0.258063 0.876423 0.196750
C72   C     C_3   0.154100 0.037230 0.915741 -0.841245
H42   H     H_    0.181140 0.140259 0.939592 0.224962
H43   H     H_    0.170310 0.993911 0.878368 0.229464
H44   H     H_    0.152180 0.915264 0.943198 0.259218
N9    N     N_2   0.565298 0.733885 0.466750 -0.510127
H45   H     H_    0.548895 0.604354 0.462931 0.266801
C73   C     C_3   0.620588 0.734058 0.492070 -0.568629
H46   H     H_    0.626705 0.673785 0.535362 0.204102
H47   H     H_    0.636685 0.875856 0.493948 0.193042
H48   H     H_    0.642272 0.648680 0.466014 0.201686
N10   N     N_2   0.431288 0.262087 0.526645 -0.514266
H49   H     H_    0.392325 0.224195 0.516891 0.242478
C74   C     C_3   0.446859 0.345805 0.581765 -0.538765
H50   H     H_    0.414087 0.431024 0.590981 0.187128
H51   H     H_    0.481799 0.434454 0.582463 0.216131
H52   H     H_    0.455946 0.239660 0.615578 0.220430
N11   N     N_2   0.917235 0.383782 0.045325 -0.518208
H53   H     H_    0.882240 0.452156 0.031157 0.251239
C75   C     C_3   0.929504 0.345878 0.105634 -0.542965
H54   H     H_    0.893607 0.299365 0.120182 0.184835
H55   H     H_    0.944799 0.470411 0.129838 0.204099
H56   H     H_    0.959674 0.235652 0.115022 0.213790
N12   N     N_2   0.085563 0.606702 0.950955 -0.518111
H57   H     H_    0.118868 0.527390 0.963290 0.246647
C76   C     C_3   0.072174 0.639942 0.890506 -0.551816
H58   H     H_    0.107917 0.678857 0.874368 0.196937
H59   H     H_    0.042866 0.752790 0.881055 0.206496
H60   H     H_    0.055039 0.515390 0.867875 0.216830
O25   O     O_3   0.861482 0.297011 0.658703 -0.568082
C77   C     C_3   0.906751 0.373090 0.693627 0.066174
H61   H     H_    0.894748 0.505942 0.710120 0.142595
H62   H     H_    0.937784 0.407131 0.669286 0.112877
C78   C     C_3   0.928893 0.248998 0.744675 -0.339445
H63   H     H_    0.897479 0.217543 0.768673 0.206681
H64   H     H_    0.943358 0.117168 0.729961 0.179290
C79   C     C_3   0.974504 0.341786 0.783952 -0.823392
H65   H     H_    0.005988 0.378115 0.760517 0.224642
H66   H     H_    0.991085 0.245067 0.818565 0.271336
H67   H     H_    0.960811 0.468299 0.802571 0.233879
O26   O     O_3   0.167557 0.707024 0.374188 -0.568531
C80   C     C_3   0.203808 0.656968 0.424060 0.064488
H68   H     H_    0.209492 0.505357 0.423236 0.142128
H69   H     H_    0.189453 0.687092 0.463884 0.106315
C81   C     C_3   0.257041 0.749607 0.425243 -0.286143
H70   H     H_    0.272256 0.708750 0.387100 0.229846
H71   H     H_    0.252243 0.901701 0.424902 0.159680
C82   C     C_3   0.297237 0.694129 0.477691 -0.871504
H72   H     H_    0.283441 0.737773 0.516485 0.237342
H73   H     H_    0.335214 0.762822 0.476608 0.228863
H74   H     H_    0.303558 0.542686 0.478856 0.235987
O27   O     O_3   0.640759 0.797061 0.845572 -0.567836
C83   C     C_3   0.595820 0.865876 0.807877 0.072504
H75   H     H_    0.606657 0.000554 0.791453 0.139420
H76   H     H_    0.562726 0.894064 0.829958 0.112133
C84   C     C_3   0.578171 0.737854 0.757023 -0.379401
H77   H     H_    0.611364 0.712627 0.735141 0.213275
H78   H     H_    0.565114 0.603354 0.771431 0.179913
C85   C     C_3   0.532702 0.821006 0.715063 -0.768661
H79   H     H_    0.498556 0.844449 0.735772 0.222172
H80   H     H_    0.521357 0.722712 0.679651 0.260776
H81   H     H_    0.544426 0.953644 0.698142 0.245236
O28   O     O_3   0.316244 0.237066 0.108101 -0.551848
C86   C     C_3   0.271907 0.273133 0.064881 0.101483
H82   H     H_    0.282520 0.261073 0.022340 0.109724
H83   H     H_    0.255785 0.414033 0.069021 0.046911
C87   C     C_3   0.228121 0.136259 0.069163 -0.277563
H84   H     H_    0.217865 0.145866 0.111651 0.218550
H85   H     H_    0.192328 0.174233 0.037772 0.124972
C88   C     C_3   0.243763 0.938396 0.058568 -0.679553
H86   H     H_    0.253065 0.925919 0.015578 0.205368
H87   H     H_    0.210677 0.844523 0.061590 0.192549
H88   H     H_    0.278571 0.895404 0.090652 0.253526

loop_
_geom_bond_atom_site_label_1
_geom_bond_atom_site_label_2
_ccdc_geom_bond_type
O17   V3    S    
C70   C71   S    
N3    N7    A    
C84   H77   S    
C52   C56   A    
O1    C5    A    
N11   H53   S    
C7    C17   S    
C70   H39   S    
C16   O24   S    
O19   V1    S    
O13   V1    S    
C6    C20   S    
N4    N8    A    
C48   H12   S    
O15   V3    S    
C35   O27   S    
C47   C51   A    
C77   H61   S    
O4    V2    S    
C68   H33   S    
C75   H55   S    
C14   C21   S    
C76   H58   S    
C63   H21   S    
C88   H88   S    
O7    C3    A    
N3    C60   A    
C84   H78   S    
C17   C29   T    
C22   C26   S    
N2    C57   A    
C36   C40   A    
O9    V1    S    
C71   H40   S    
C65   H27   S    
C27   C31   S    
C72   H43   S    
N10   H49   S    
O16   V4    S    
O4    C8    A    
C33   C53   A    
H3    C24   S    
C76   H60   S    
C39   H7    S    
C73   H47   S    
C9    C21   S    
C70   H38   S    
C38   C42   A    
C35   C55   A    
O1    V3    S    
C37   C41   A    
C79   H65   S    
C64   H25   S    
O2    V4    S    
O3    V1    S    
C61   H17   S    
C64   C65   S    
C50   C54   A    
C49   C53   A    
C1    O15   A    
C15   C27   S    
C52   H16   S    
C2    O16   A    
C83   H75   S    
C16   C28   S    
C51   C55   A    
O2    C6    A    
N10   C74   S    
O14   V2    S    
N12   H57   S    
N9    C73   S    
O21   C61   S    
O5    V1    S    
C12   C24   S    
C40   H8    S    
C62   C63   S    
C14   O22   S    
C10   N10   S    
C46   C50   A    
O11   C7    A    
C15   C24   S    
C45   C49   A    
O27   C83   S    
O12   C8    A    
C10   C14   S    
C18   C30   T    
C73   H48   S    
C76   H59   S    
C36   O28   S    
C80   H68   S    
O10   V2    S    
C74   H51   S    
C20   C32   T    
C75   H56   S    
C71   H41   S    
C78   H64   S    
N5    C57   A    
C84   C85   S    
C35   C39   A    
C10   C22   S    
O7    V3    S    
C51   H15   S    
C34   C38   A    
C24   C28   S    
O8    V4    S    
C81   C82   S    
C67   C68   S    
C12   C16   S    
C36   C56   A    
C50   H14   S    
C72   H44   S    
C75   H54   S    
C49   H13   S    
C85   H79   S    
C67   H31   S    
C37   H5    S    
O3    C7    A    
N2    N6    A    
C69   H37   S    
C9    C13   S    
C28   C32   S    
C62   H20   S    
O26   C80   S    
C81   H71   S    
C78   H63   S    
C80   C81   S    
C11   C15   S    
C66   H29   S    
O5    C1    A    
C71   C72   S    
N12   C76   S    
C46   H10   S    
C86   H82   S    
C14   C26   S    
C45   H9    S    
C33   O25   S    
O8    C4    A    
O9    C5    A    
C61   C62   S    
C64   H24   S    
C68   C69   S    
C69   H36   S    
C63   H22   S    
C65   C66   S    
N1    C58   A    
H4    C23   S    
C67   H32   S    
C86   H83   S    
O28   C86   S    
C44   C59   S    
C34   C54   A    
C11   C23   S    
C4    C53   S    
C40   C44   A    
O23   C67   S    
H1    C22   S    
N8    C60   A    
C74   H52   S    
O22   C64   S    
C3    C54   S    
C34   O26   S    
C62   H19   S    
C26   C30   S    
C78   C79   S    
C9    C26   S    
C68   H34   S    
C1    C56   S    
N4    C59   A    
C25   C29   S    
O6    V2    S    
C11   C28   S    
C87   H84   S    
C13   O21   S    
C44   C48   A    
C87   C88   S    
C3    O13   A    
O6    C2    A    
C77   H62   S    
C79   H67   S    
O11   V3    S    
O18   V4    S    
O12   V4    S    
C16   C23   S    
C63   H23   S    
C8    C18   S    
C81   H70   S    
O10   C6    A    
O20   V2    S    
C88   H86   S    
C87   H85   S    
C13   C25   S    
C48   C52   A    
C12   C27   S    
C74   H50   S    
C72   H42   S    
C42   C57   S    
C47   H11   S    
C13   C22   S    
C12   N12   S    
C85   H81   S    
C41   C58   S    
C38   H6    S    
C15   O23   S    
C2    C55   S    
C83   C84   S    
C21   C25   S    
C11   N11   S    
C79   H66   S    
N6    C58   A    
C23   C27   S    
C88   H87   S    
C61   H18   S    
C66   H30   S    
C77   C78   S    
C69   H35   S    
H2    C21   S    
C19   C31   T    
C82   H72   S    
C82   H74   S    
C33   C37   A    
C43   C60   S    
C86   C87   S    
C39   C43   A    
C10   C25   S    
N11   C75   S    
O25   C77   S    
C42   C46   A    
C4    O14   A    
C73   H46   S    
C41   C45   A    
O24   C70   S    
C65   H26   S    
N7    C59   A    
C82   H73   S    
N9    H45   S    
C9    N9    S    
C85   H80   S    
C43   C47   A    
C83   H76   S    
N1    N5    A    
C66   H28   S    
C80   H69   S    
C5    C19   S    
