data_mof_unit_12702.cif
_audit_creation_date              2012-12-11T20:41:10-0500
_audit_creation_method            fapswitch 2.2
_symmetry_space_group_name_H-M    P1
_symmetry_Int_Tables_number       1
_space_group_crystal_system       triclinic
_cell_length_a                    8.263645
_cell_length_b                    18.832076
_cell_length_c                    26.98414
_cell_angle_alpha                 96.737898
_cell_angle_beta                  92.405914
_cell_angle_gamma                 86.526797
_cell_volume                      4160.07494241

loop_
_atom_site_label
_atom_site_type_symbol
_atom_type_description
_atom_site_fract_x
_atom_site_fract_y
_atom_site_fract_z
_atom_type_partial_charge
Ba1   Ba    Ba6+2 0.852670 0.466460 0.522850 1.696326
Ba2   Ba    Ba6+2 0.337150 0.533490 0.477140 1.669530
C1    C     C_3   0.612634 0.215085 0.655259 0.238183
C2    C     C_3   0.621624 0.287621 0.635962 0.456262
C3    C     C_3   0.521709 0.647009 0.630188 0.301598
C4    C     C_3   0.511709 0.674482 0.685368 -0.370317
C5    C     C_3   0.072180 0.687883 0.342035 0.336297
C6    C     C_3   0.089229 0.709167 0.289762 0.243432
C7    C     C_3   0.541383 0.726067 0.365908 0.446495
C8    C     C_3   0.532046 0.796342 0.342610 0.226679
C9    C     C_R   0.017974 0.449630 0.179052 0.599177
C10   C     C_R   0.911662 0.570740 0.178106 0.571775
C11   C     C_2   0.762412 0.546781 0.273113 -0.086389
C12   C     C_3   0.108966 0.294933 0.653219 0.223402
C13   C     C_3   0.746486 0.571815 0.327870 -0.035387
C14   C     C_1   0.982217 0.491191 0.343541 0.022351
C15   C     C_2   0.022730 0.487521 0.295725 -0.126334
C16   C     C_2   0.904904 0.514761 0.256797 0.190419
C17   C     C_R   0.024500 0.506945 0.102092 -0.079616
C18   C     C_R   0.059911 0.447013 0.128261 -0.036062
C19   C     C_R   0.135486 0.385429 0.102917 -0.057505
C20   C     C_R   0.949320 0.568935 0.127391 -0.029768
C21   C     C_2   0.853473 0.529381 0.361490 -0.286089
C22   C     C_2   0.349941 0.482607 0.641008 -0.270342
C23   C     C_3   0.062561 0.269993 0.702162 0.228936
C24   C     C_R   0.188092 0.441951 0.974872 0.019326
C25   C     C_R   0.057944 0.563058 0.973021 0.020822
C26   C     C_R   0.142824 0.501787 0.948553 0.052337
C27   C     C_R   0.277072 0.383376 0.949048 -0.098648
C28   C     C_R   0.317319 0.383080 0.899329 -0.042787
C29   C     C_R   0.270865 0.441051 0.872721 -0.043236
C30   C     C_R   0.183067 0.500458 0.897237 -0.079715
C31   C     C_R   0.136098 0.558744 0.870463 -0.031771
C32   C     C_R   0.177497 0.557082 0.819957 0.582258
C33   C     C_R   0.310753 0.440737 0.822099 0.605345
C34   C     C_3   0.247615 0.311712 0.379096 0.678183
C35   C     C_2   0.458396 0.485095 0.728917 -0.050542
C36   C     C_3   0.499495 0.489603 0.675020 -0.061856
C37   C     C_1   0.211698 0.513134 0.657241 0.038146
C38   C     C_2   0.173454 0.512928 0.704628 -0.106142
C39   C     C_2   0.302904 0.497470 0.743609 0.209472
C40   C     C_R   0.144144 0.442764 0.025796 0.019864
C41   C     C_R   0.064083 0.505037 0.050658 0.051022
C42   C     C_R   0.023267 0.565602 0.024670 0.019534
C43   C     C_R   0.176880 0.383260 0.053087 -0.096835
C44   C     C_R   0.914062 0.628772 0.101691 -0.049686
C45   C     C_3   0.309877 0.296531 0.326047 -0.304133
C46   C     C_R   0.009811 0.619882 0.944567 -0.098779
C47   C     C_R   0.048414 0.617730 0.894702 -0.058390
C48   C     C_R   0.950002 0.627296 0.051723 -0.101096
C49   C     C_2   0.397979 0.298188 0.515118 -0.167699
C50   C     C_3   0.320953 0.251565 0.548005 -0.048888
C51   C     C_2   0.355400 0.172550 0.532609 -0.060765
C52   C     C_2   0.486528 0.150083 0.505105 -0.047583
C53   C     C_2   0.580539 0.205190 0.484837 -0.100608
C54   C     C_1   0.526848 0.273384 0.489775 0.051765
C55   C     C_R   0.644537 0.931741 0.486762 0.458702
C56   C     C_3   0.011118 0.682697 0.582772 0.303728
C57   C     C_R   0.540220 0.072716 0.497015 0.470824
C58   C     C_R   0.611781 0.806553 0.505595 -0.133446
C59   C     C_R   0.663331 0.734381 0.503522 0.041646
C60   C     C_R   0.898796 0.756108 0.458779 0.015172
C61   C     C_R   0.848493 0.829088 0.460438 -0.139205
C62   C     C_R   0.701704 0.854835 0.483259 -0.076129
C63   C     C_R   0.801656 0.708987 0.478180 -0.265641
C64   C     C_3   0.994203 0.763476 0.596148 -0.373832
C65   C     C_3   0.671942 0.381278 0.372932 0.288338
C66   C     C_3   0.716821 0.359872 0.318785 -0.362597
H1    H     H_    0.720009 0.282788 0.608483 -0.004797
H2    H     H_    0.334049 0.347530 0.311613 0.060386
H3    H     H_    0.423341 0.261626 0.325905 0.125360
H4    H     H_    0.217914 0.268742 0.300727 0.142989
H5    H     H_    0.891230 0.662551 0.571099 0.005884
H6    H     H_    0.094933 0.670594 0.551480 0.072861
H7    H     H_    0.905505 0.777135 0.626088 0.137758
H8    H     H_    0.951493 0.790012 0.563112 0.063952
H9    H     H_    0.113543 0.784033 0.609403 0.127844
H10   H     H_    0.775922 0.406465 0.393612 0.035868
H11   H     H_    0.566403 0.420391 0.373860 0.058329
H12   H     H_    0.591787 0.173389 0.622695 -0.029232
H13   H     H_    0.835061 0.328683 0.317252 0.160236
H14   H     H_    0.725254 0.408063 0.299405 0.063428
H15   H     H_    0.623774 0.326674 0.298460 0.122733
H16   H     H_    0.503890 0.301677 0.617589 -0.103834
H17   H     H_    0.397841 0.634053 0.615771 0.028224
H18   H     H_    0.604162 0.598053 0.625966 0.033573
H19   H     H_    0.436475 0.725571 0.690025 0.140849
H20   H     H_    0.454978 0.635068 0.705633 0.072276
H21   H     H_    0.635271 0.683636 0.701803 0.126943
H22   H     H_    0.730608 0.200767 0.674620 0.031143
H23   H     H_    0.137856 0.634887 0.344057 0.023350
H24   H     H_    0.941304 0.683681 0.348273 -0.030195
H25   H     H_    0.216477 0.721829 0.283808 0.126119
H26   H     H_    0.060744 0.662877 0.262143 0.077785
H27   H     H_    0.672450 0.710728 0.371163 -0.202515
H28   H     H_    0.486411 0.734944 0.403166 0.050833
H29   H     H_    0.614397 0.834558 0.363876 0.004657
H30   H     H_    0.070592 0.352492 0.653723 0.055855
H31   H     H_    0.573958 0.786136 0.303751 0.128229
H32   H     H_    0.142841 0.466545 0.284822 0.127321
H33   H     H_    0.163619 0.338133 0.121693 0.125168
H34   H     H_    0.556117 0.477063 0.756232 0.098630
H35   H     H_    0.385770 0.336694 0.881678 0.134504
H36   H     H_    0.320079 0.336793 0.966370 0.073092
H37   H     H_    0.232860 0.333284 0.036869 0.073775
H38   H     H_    0.669143 0.564449 0.247025 0.121012
H39   H     H_    0.857905 0.677702 0.120270 0.137255
H40   H     H_    0.939507 0.666974 0.959401 0.072486
H41   H     H_    0.242778 0.288556 0.650921 0.068945
H42   H     H_    0.008539 0.663014 0.875023 0.124242
H43   H     H_    0.049146 0.524951 0.715647 0.127057
H44   H     H_    0.920723 0.676422 0.035728 0.074917
H45   H     H_    0.842710 0.543444 0.401432 0.081878
H46   H     H_    0.355661 0.452782 0.604066 0.065335
H47   H     H_    0.285560 0.134774 0.548957 0.094713
H48   H     H_    0.689434 0.188747 0.464340 0.127297
H49   H     H_    0.504102 0.824993 0.525926 0.112734
H50   H     H_    0.924503 0.865312 0.445082 0.112662
H51   H     H_    0.361338 0.354785 0.519058 0.056168
H52   H     H_    0.929569 0.277521 0.706449 0.064796
H53   H     H_    0.841112 0.653047 0.477426 0.053558
H54   H     H_    0.097494 0.212130 0.701882 0.105750
H55   H     H_    0.334661 0.341102 0.404794 -0.018398
N1    N     N_R   0.945219 0.511357 0.203930 -0.424147
N2    N     N_R   0.262991 0.498229 0.795990 -0.434565
N3    N     N_R   0.503073 0.954010 0.509145 -0.243568
N4    N     N_R   0.452190 0.022790 0.514216 -0.239167
N5    N     N_R   0.681130 0.050556 0.474093 -0.221175
N6    N     N_R   0.732258 0.981525 0.469046 -0.224815
O1    O     O_2   0.914730 0.537460 0.618690 -0.463718
O2    O     O_3   0.632359 0.320124 0.393654 -0.622154
O3    O     O_3   0.032310 0.254170 0.612842 -0.645785
O4    O     O_2   0.274960 0.462520 0.381280 -0.501488
O5    O     O_3   0.042980 0.462530 0.441480 -0.460562
O6    O     O_3   0.523340 0.590550 0.413420 -0.471554
O7    O     O_3   0.094468 0.348031 0.377850 -0.620531
O8    O     O_3   0.635780 0.584660 0.526290 -0.478397
O9    O     O_3   0.116060 0.626590 0.438450 -0.492474
O10   O     O_2   0.234457 0.753424 0.471125 -0.485889
O11   O     O_3   0.139829 0.739556 0.377289 -0.580581
O12   O     O_3   0.146720 0.537410 0.558510 -0.489482
O13   O     O_3   0.553920 0.415280 0.473710 -0.503377
O14   O     O_2   0.383540 0.672140 0.526840 -0.461395
O15   O     O_3   0.582714 0.700329 0.605266 -0.640050
O16   O     O_2   0.415202 0.535305 0.322976 -0.505887
O17   O     O_3   0.458168 0.673555 0.334810 -0.602136
O18   O     O_2   0.044286 0.396477 0.200781 -0.600056
O19   O     O_2   0.387050 0.388923 0.801189 -0.526356
O20   O     O_2   0.849700 0.625970 0.199367 -0.587410
O21   O     O_2   0.139466 0.608707 0.797524 -0.596751
O22   O     O_3   0.666360 0.409390 0.586570 -0.498378
O23   O     O_2   0.831710 0.446645 0.671457 -0.503825
O24   O     O_3   0.071200 0.651717 0.624918 -0.626933
O25   O     O_3   0.653035 0.340498 0.675854 -0.578108
O26   O     O_2   0.806150 0.327840 0.473120 -0.413432
O27   O     O_3   0.073640 0.373350 0.561550 -0.482777
O28   O     O_2   0.993442 0.245259 0.515378 -0.418244
P1    P     P_3+3 0.084800 0.558370 0.611580 0.998232
P2    P     P_3+3 0.628800 0.338360 0.458800 1.022111
P3    P     P_3+3 0.103825 0.280052 0.557973 1.001918
P4    P     P_3+3 0.104900 0.441570 0.388420 0.987371
P5    P     P_3+3 0.097955 0.719709 0.436882 0.958665
P6    P     P_3+3 0.662682 0.422836 0.652066 0.972731
P7    P     P_3+3 0.568969 0.674446 0.540878 0.950972
P8    P     P_3+3 0.534412 0.589365 0.348979 0.955101
O29   O     O_3   0.483962 0.217584 0.688321 -0.680476
H56   H     H_    0.493818 0.171012 0.702369 0.311389
O30   O     O_3   0.143442 0.307996 0.742567 -0.663766
H57   H     H_    0.087096 0.356223 0.747713 0.305368
O31   O     O_3   0.981020 0.767621 0.281689 -0.691529
H58   H     H_    0.031465 0.811256 0.298777 0.345726
O32   O     O_3   0.373060 0.826381 0.341852 -0.695734
H59   H     H_    0.352818 0.849324 0.376214 0.321619
Cl1   Cl    Cl    0.223093 0.228419 0.402761 -0.675844

loop_
_geom_bond_atom_site_label_1
_geom_bond_atom_site_label_2
_ccdc_geom_bond_type
C25   C46   A    
C50   P3    S    
C12   H41   S    
C2    O25   S    
C53   C54   D    
C34   Cl1   S    
N3    N4    A    
C17   C41   A    
C59   P7    S    
C9    N1    Am   
O13   P2    S    
N5    N6    A    
C32   O21   D    
C5    C6    S    
C12   O3    S    
C51   C52   D    
C50   C51   S    
C22   H46   S    
C56   H6    S    
Ba2   O5    S    
C11   C16   D    
C1    H22   S    
C66   H13   S    
Ba1   P2    S    
C55   N6    A    
Ba1   P1    S    
C35   C36   S    
Ba1   Ba2   S    
C54   P2    S    
C3    C4    S    
O31   H58   S    
C5    H24   S    
O11   P5    S    
C10   C20   A    
C7    O17   S    
C22   C37   D    
C4    H20   S    
C34   C45   S    
Ba1   O26   S    
C49   C54   D    
O24   P1    S    
C33   N2    Am   
Ba1   O13   S    
C25   C42   A    
C56   C64   S    
C17   C18   A    
C43   H37   S    
C14   C15   D    
C10   N1    Am   
C28   H35   S    
C22   C36   S    
C63   H53   S    
C7    C8    S    
C7    H27   S    
C57   N4    A    
C52   C57   S    
Ba1   O27   S    
C3    H17   S    
C13   C21   S    
C64   H8    S    
O15   P7    S    
Ba2   O14   S    
C66   H15   S    
C65   H10   S    
C1    H12   S    
C34   O7    S    
Ba2   P4    S    
C2    H1    S    
C6    O31   S    
C12   H30   S    
C38   H43   S    
C19   C43   A    
O7    P4    S    
C23   O30   S    
C9    C18   A    
Ba2   O4    S    
O26   P2    D    
C49   C50   S    
Ba2   O9    S    
C39   N2    S    
O25   P6    S    
O27   P3    S    
C34   H55   S    
C65   H11   S    
Ba1   O1    S    
C37   C38   D    
C61   H50   S    
C3    O15   S    
O16   P8    D    
C57   N5    A    
C60   P5    S    
C35   H34   S    
C65   C66   S    
C27   H36   S    
C58   C59   A    
C40   C43   A    
C8    H29   S    
C41   C42   A    
C45   H2    S    
C27   C28   A    
C56   O24   S    
C21   H45   S    
C49   H51   S    
C29   C30   A    
C2    H16   S    
C26   C30   A    
C28   C29   A    
C5    H23   S    
C44   H39   S    
C17   C20   A    
C60   C61   A    
C48   H44   S    
C15   C16   S    
O6    P8    S    
C6    H26   S    
C58   H49   S    
O9    P5    S    
O3    P3    S    
O2    P2    S    
C7    H28   S    
C45   H3    S    
C46   H40   S    
C3    H18   S    
C36   P6    S    
C20   C44   A    
O17   P8    S    
O28   P3    D    
O22   P6    S    
C11   C13   S    
C37   P1    S    
O29   H56   S    
Ba2   O13   S    
C29   C33   A    
C40   C41   A    
Ba1   O5    S    
C23   H52   S    
O14   P7    D    
C55   N3    A    
Ba1   O8    S    
O32   H59   S    
C24   C40   A    
C55   C62   S    
C23   H54   S    
C42   C48   A    
C64   H9    S    
C52   C53   S    
O30   H57   S    
C60   C63   A    
Ba2   O8    S    
C10   O20   D    
O10   P5    D    
C65   O2    S    
C6    H25   S    
C11   H38   S    
O4    P4    D    
O8    P7    S    
C51   H47   S    
C14   P4    S    
C14   C21   D    
C4    H21   S    
C44   C48   A    
C24   C26   A    
Ba2   O6    S    
O5    P4    S    
O1    P1    D    
C58   C62   A    
C66   H14   S    
C30   C31   A    
C19   H33   S    
C9    O18   D    
C5    O11   S    
C32   N2    Am   
C46   C47   A    
C64   H7    S    
C31   C32   A    
Ba1   O22   S    
C33   O19   D    
C12   C23   S    
C35   C39   D    
C8    H31   S    
C15   H32   S    
C45   H4    S    
O23   P6    D    
Ba1   O12   S    
C4    H19   S    
C61   C62   A    
C59   C63   A    
O12   P1    S    
C18   C19   A    
C1    O29   S    
C24   C27   A    
C53   H48   S    
C31   C47   A    
C25   C26   A    
Ba2   O12   S    
C13   P8    S    
C38   C39   S    
C8    O32   S    
C1    C2    S    
C56   H5    S    
C16   N1    S    
C47   H42   S    
