data_mof_unit_52596.cif
_audit_creation_date              2012-12-11T15:29:49-0500
_audit_creation_method            fapswitch 2.2
_symmetry_space_group_name_H-M    P1
_symmetry_Int_Tables_number       1
_space_group_crystal_system       triclinic
_cell_length_a                    13.485179
_cell_length_b                    13.489766
_cell_length_c                    27.577311
_cell_angle_alpha                 90.68252
_cell_angle_beta                  90.159089
_cell_angle_gamma                 60.11946
_cell_volume                      4349.42166601

loop_
_atom_site_label
_atom_site_type_symbol
_atom_type_description
_atom_site_fract_x
_atom_site_fract_y
_atom_site_fract_z
_atom_type_partial_charge
C1    C     C_R   0.620427 0.101266 0.569839 0.544215
C2    C     C_1   0.649679 0.705102 0.657904 -0.055613
C3    C     C_3   0.082106 0.145196 0.736592 -0.110651
C4    C     C_R   0.599740 0.779360 0.568482 0.545526
C5    C     C_3   0.169723 0.063727 0.774236 -0.106868
C6    C     C_1   0.097037 0.200144 0.900139 -0.015438
C7    C     C_1   0.229499 0.137811 0.617043 -0.014634
C8    C     C_3   0.058789 0.249369 0.768931 -0.103200
C9    C     C_3   0.146849 0.167751 0.805720 0.053263
C10   C     C_3   0.155468 0.258204 0.742797 -0.098246
C11   C     C_3   0.178418 0.154283 0.711226 0.052068
C12   C     C_1   0.631255 0.732167 0.615989 -0.013521
C13   C     C_3   0.243063 0.176846 0.780280 -0.100421
C14   C     C_3   0.266496 0.072608 0.747988 -0.101768
C15   C     C_1   0.124472 0.180987 0.858033 -0.060452
C16   C     C_R   0.277794 0.121653 0.569388 0.546388
C17   C     C_1   0.201312 0.146669 0.659010 -0.057270
C18   C     C_3   0.629753 0.277409 0.739107 -0.137395
C19   C     C_3   0.555065 0.259352 0.776893 -0.114867
C20   C     C_1   0.691424 0.206507 0.901450 -0.013113
C21   C     C_1   0.635818 0.133579 0.617710 -0.004241
C22   C     C_3   0.737841 0.204269 0.770124 -0.101398
C23   C     C_3   0.703186 0.560429 0.766860 -0.102273
C24   C     C_3   0.662864 0.185350 0.807028 0.011986
C25   C     C_3   0.755876 0.096127 0.743049 0.309267
C26   C     C_3   0.650277 0.168220 0.712181 0.070313
C27   C     C_3   0.683068 0.075802 0.780196 -0.102907
C28   C     C_R   0.622066 0.100138 0.431679 0.543224
C29   C     C_3   0.575390 0.149903 0.749123 -0.139612
C30   C     C_1   0.674384 0.195688 0.859356 -0.059390
C31   C     C_1   0.643945 0.152867 0.659836 -0.019753
C32   C     C_R   0.639599 0.722846 0.382844 0.025067
C33   C     C_R   0.722071 0.737332 0.357891 -0.126916
C34   C     C_3   0.679581 0.654939 0.804461 0.051454
C35   C     C_R   0.734597 0.719738 0.308293 -0.123493
C36   C     C_R   0.667840 0.683460 0.283117 0.038689
C37   C     C_R   0.593990 0.657420 0.308797 -0.121886
C38   C     C_R   0.579080 0.678085 0.358460 -0.131174
C39   C     C_R   0.575175 0.703837 0.202903 -0.120330
C40   C     C_R   0.601828 0.776909 0.430416 0.541055
C41   C     C_R   0.584004 0.681127 0.153392 -0.128396
C42   C     C_R   0.787358 0.615076 0.156968 -0.128500
C43   C     C_R   0.779168 0.634762 0.206515 -0.123900
C44   C     C_R   0.673879 0.674913 0.230133 0.040380
C45   C     C_3   0.593001 0.645112 0.739716 -0.100568
C46   C     C_R   0.691351 0.631163 0.130724 0.027637
C47   C     C_R   0.227208 0.135395 0.382979 0.024466
C48   C     C_R   0.251113 0.038270 0.354938 -0.126627
C49   C     C_R   0.229421 0.047929 0.305525 -0.118483
C50   C     C_R   0.181114 0.155156 0.283593 0.039999
C51   C     C_R   0.148415 0.253444 0.312375 -0.119497
C52   C     C_R   0.279288 0.119699 0.430856 0.542654
C53   C     C_R   0.172309 0.243520 0.361737 -0.125291
C54   C     C_R   0.185558 0.243521 0.205623 -0.103366
C55   C     C_R   0.154104 0.267324 0.156657 0.288830
C56   C     C_3   0.663630 0.683780 0.710055 0.053224
C57   C     C_R   0.106823 0.114833 0.156349 -0.187546
C58   C     C_R   0.131537 0.097271 0.205324 -0.148047
C59   C     C_R   0.166555 0.164753 0.230736 -0.006482
C60   C     C_R   0.110318 0.204414 0.132430 0.038338
C61   C     C_R   0.643989 0.139540 0.385995 0.025907
C62   C     C_R   0.565188 0.247633 0.367829 -0.125031
C63   C     C_R   0.575384 0.275571 0.320327 -0.120019
C64   C     C_3   0.773697 0.599505 0.736417 -0.100323
C65   C     C_R   0.664072 0.195392 0.290703 0.043386
C66   C     C_R   0.744752 0.089168 0.309666 -0.116607
C67   C     C_3   0.569618 0.739164 0.778035 -0.104024
C68   C     C_R   0.735679 0.062099 0.356990 -0.127419
C69   C     C_R   0.781556 0.178166 0.219684 -0.146001
C70   C     C_R   0.794837 0.180074 0.170343 -0.172616
C71   C     C_R   0.588795 0.278932 0.159348 0.257791
C72   C     C_R   0.575910 0.270361 0.209494 -0.108344
C73   C     C_R   0.672834 0.218452 0.239559 -0.008600
C74   C     C_R   0.699661 0.227465 0.139612 0.046758
C75   C     C_R   0.049744 0.234850 0.947923 0.548529
C76   C     C_3   0.750343 0.693604 0.774876 -0.097289
C77   C     C_R   0.711995 0.561783 0.946403 0.545543
C78   C     C_3   0.640049 0.778317 0.747640 -0.100003
C79   C     C_R   0.722529 0.224005 0.949151 0.551976
C80   C     C_R   0.049467 0.243065 0.086041 0.561016
C81   C     C_R   0.709062 0.572739 0.084130 0.538675
C82   C     C_R   0.722246 0.234845 0.088487 0.578293
C83   C     C_1   0.697274 0.607469 0.898646 -0.015723
C84   C     C_3   0.941274 0.956460 0.758739 -0.014950
C85   C     C_3   0.053918 0.868682 0.735573 -0.370276
C86   C     C_3   0.132931 0.449091 0.158250 -0.120200
C87   C     C_3   0.431937 0.448059 0.139305 0.003557
C88   C     C_3   0.352732 0.508367 0.097022 -0.348927
C89   C     C_1   0.688308 0.633857 0.856642 -0.059103
Cr1   Cr    Cr6+3 0.417550 0.169090 0.500530 1.020966
Cr2   Cr    Cr6+3 0.669180 0.913420 0.499920 1.024941
Cr3   Cr    Cr6+3 0.413260 0.917540 0.499520 1.021987
Cr4   Cr    Cr6+3 0.909770 0.175810 0.018240 1.015432
Cr5   Cr    Cr6+3 0.913300 0.427650 0.016090 1.039153
Cr6   Cr    Cr6+3 0.657770 0.431010 0.016900 1.025212
H1    H     H_    0.814603 0.714032 0.789932 0.103937
H2    H     H_    0.770172 0.771821 0.375767 0.129521
H3    H     H_    0.857323 0.541866 0.718804 0.104824
H4    H     H_    0.492120 0.739444 0.220150 0.099252
H5    H     H_    0.508528 0.695647 0.133575 0.120645
H6    H     H_    0.791885 0.740854 0.289481 0.099363
H7    H     H_    0.856690 0.611754 0.226544 0.090912
H8    H     H_    0.871008 0.577317 0.140162 0.132485
H9    H     H_    0.544857 0.624992 0.290279 0.097826
H10   H     H_    0.515896 0.665252 0.377157 0.121906
H11   H     H_    0.294567 0.953486 0.370318 0.134434
H12   H     H_    0.309357 0.189506 0.798657 0.104483
H13   H     H_    0.222196 0.288257 0.224616 0.100919
H14   H     H_    0.614016 0.868293 0.739106 0.105542
H15   H     H_    0.255917 0.970761 0.284222 0.101065
H16   H     H_    0.117945 0.034461 0.223645 0.107950
H17   H     H_    0.076789 0.063254 0.138136 0.129898
H18   H     H_    0.107449 0.337634 0.296454 0.096906
H19   H     H_    0.152675 0.319495 0.382776 0.123316
H20   H     H_    0.493586 0.308748 0.389670 0.122715
H21   H     H_    0.857227 0.142113 0.242251 0.119823
H22   H     H_    0.880490 0.146441 0.156253 0.137184
H23   H     H_    0.149178 0.338371 0.729338 0.104525
H24   H     H_    0.513220 0.358502 0.306534 0.093279
H25   H     H_    0.491304 0.300893 0.224482 0.106579
H26   H     H_    0.485930 0.796789 0.795609 0.103511
H27   H     H_    0.812682 0.024621 0.287311 0.102343
H28   H     H_    0.796875 0.977691 0.369778 0.124763
H29   H     H_    0.528668 0.624728 0.724708 0.103521
H30   H     H_    0.729149 0.470464 0.775378 0.100253
H31   H     H_    0.176202 0.983669 0.787901 0.099633
H32   H     H_    0.015684 0.133004 0.718081 0.129118
H33   H     H_    0.352274 0.999608 0.738746 0.101492
H34   H     H_    0.972991 0.322394 0.778129 0.101213
H35   H     H_    0.913306 0.910789 0.783702 0.126940
H36   H     H_    0.956446 0.018453 0.779891 0.124075
H37   H     H_    0.084983 0.911499 0.710651 0.159942
H38   H     H_    0.119017 0.824498 0.764154 0.088376
H39   H     H_    0.042159 0.804257 0.714799 0.164374
H40   H     H_    0.203767 0.442057 0.181272 0.109671
H41   H     H_    0.055771 0.472485 0.180813 0.087294
H42   H     H_    0.109821 0.520151 0.132693 0.131277
H43   H     H_    0.488563 0.485873 0.144270 0.133103
H44   H     H_    0.379149 0.464474 0.172518 0.106276
H45   H     H_    0.471696 0.326708 0.791701 0.115529
H46   H     H_    0.296248 0.471776 0.090082 0.184618
H47   H     H_    0.299082 0.601017 0.105492 0.074647
H48   H     H_    0.403911 0.497617 0.063868 0.166642
H49   H     H_    0.607648 0.359756 0.721797 0.106551
H50   H     H_    0.508091 0.128383 0.739800 0.104687
H51   H     H_    0.704723 0.993418 0.797353 0.093819
H52   H     H_    0.805149 0.225939 0.779218 0.091477
O1    O     O_R   0.301780 0.195490 0.553940 -0.508165
O2    O     O_R   0.636050 0.541380 0.962520 -0.509206
O3    O     O_R   0.666480 0.323610 0.968170 -0.492309
O4    O     O_R   0.522450 0.158840 0.550250 -0.499301
O5    O     O_R   0.817280 0.156800 0.072180 -0.531665
O6    O     O_R   0.005110 0.187160 0.067410 -0.524800
O7    O     O_R   0.026450 0.340060 0.069950 -0.459880
O8    O     O_R   0.808300 0.527240 0.065170 -0.506957
O9    O     O_R   0.634070 0.548770 0.069460 -0.527342
O10   O     O_R   0.664650 0.330470 0.067300 -0.473385
O11   O     O_3   0.826940 0.344820 0.017080 -0.256426
O12   O     O_R   0.658840 0.818280 0.449970 -0.506965
O13   O     O_R   0.694460 0.003360 0.553820 -0.497788
O14   O     O_R   0.657750 0.819520 0.549120 -0.492232
O15   O     O_R   0.501990 0.803120 0.552700 -0.508060
O16   O     O_R   0.318230 0.023430 0.549370 -0.493146
O17   O     O_R   0.302950 0.194150 0.446980 -0.516909
O18   O     O_R   0.523540 0.157600 0.451100 -0.502458
O19   O     O_R   0.695630 0.002030 0.446860 -0.524280
O20   O     O_3   0.859627 0.011848 0.722007 -0.554379
O21   O     O_3   0.169361 0.347153 0.131093 -0.532645
O22   O     O_3   0.494936 0.329483 0.129034 -0.538930
O23   O     O_R   0.503160 0.801780 0.445740 -0.522492
O24   O     O_R   0.319320 0.022190 0.450230 -0.505124
O25   O     O_3   0.499990 0.000010 0.499990 -0.245588
O26   O     O_R   0.819250 0.149410 0.965240 -0.506894
O27   O     O_R   0.006940 0.180310 0.968270 -0.496032
O28   O     O_R   0.028420 0.332670 0.963010 -0.503470
O29   O     O_R   0.810130 0.520390 0.966030 -0.495780

loop_
_geom_bond_atom_site_label_1
_geom_bond_atom_site_label_2
_ccdc_geom_bond_type
C8    C9    S    
C66   C68   A    
C87   C88   S    
C63   C65   A    
C69   H21   S    
C1    C21   S    
C23   C45   S    
C27   C29   S    
Cr6   O11   S    
C79   O26   A    
C40   O12   A    
C35   C36   A    
C18   C26   S    
C24   C27   S    
C13   H12   S    
C2    C12   T    
C42   H8    S    
C40   O23   A    
C14   H33   S    
C80   O6    A    
C39   C41   A    
C20   C30   T    
C25   O20   S    
C21   C31   T    
C62   C63   A    
C81   O9    A    
Cr2   O25   S    
C50   C59   S    
C36   C37   A    
C76   C78   S    
C18   C19   S    
C85   H37   S    
C29   H50   S    
C8    C10   S    
C11   C14   S    
C3    H32   S    
C57   H17   S    
C77   C83   S    
C70   H22   S    
C87   O22   S    
Cr4   O27   S    
C56   C78   S    
C68   H28   S    
Cr5   O29   S    
Cr6   O9    S    
C42   C46   A    
Cr4   O26   S    
C9    C13   S    
C70   C74   A    
Cr1   O1    S    
Cr2   O19   S    
C86   H42   S    
C6    C15   T    
C48   H11   S    
C45   C56   S    
Cr3   O23   S    
Cr5   O8    S    
C7    C17   T    
C22   C25   S    
C5    H31   S    
C45   C67   S    
C41   C46   A    
C56   C64   S    
C69   C73   A    
Cr6   O2    S    
C32   C38   A    
C4    C12   S    
C23   H30   S    
C5    C14   S    
C88   H48   S    
Cr2   O12   S    
C28   O19   A    
Cr5   O28   S    
C47   C53   A    
C28   C61   S    
C64   H3    S    
C26   C31   S    
C45   H29   S    
C18   C22   S    
C55   C60   A    
C75   O27   A    
C69   C70   A    
C67   C78   S    
C55   O21   S    
C74   C82   S    
C67   H26   S    
C52   O24   A    
C88   H47   S    
C54   C59   A    
C16   O16   A    
C83   C89   T    
C75   O28   A    
C58   H16   S    
C6    C75   S    
C86   O21   S    
C84   C85   S    
C3    C8    S    
C65   C73   S    
C77   O2    A    
C82   O10   A    
C19   H45   S    
C57   C60   A    
C3    C5    S    
C25   C26   S    
Cr4   O6    S    
Cr1   O4    S    
Cr1   O17   S    
C51   C53   A    
C43   C44   A    
C5    C9    S    
C37   C38   A    
C10   H23   S    
C71   C74   A    
C46   C81   S    
C63   H24   S    
C39   H4    S    
C47   C48   A    
Cr5   O7    S    
C23   C34   S    
C72   H25   S    
C66   H27   S    
C50   C51   A    
C64   C76   S    
C41   H5    S    
Cr6   O3    S    
C51   H18   S    
Cr2   O13   S    
C39   C44   A    
C28   O18   A    
C52   O17   A    
C79   O3    A    
Cr3   O16   S    
C86   H41   S    
C23   C64   S    
C71   O22   S    
C49   C50   A    
C77   O29   A    
Cr1   O18   S    
C22   C24   S    
C36   C44   S    
C42   C43   A    
C87   H43   S    
Cr1   O25   S    
Cr4   O11   S    
C19   C29   S    
C88   H46   S    
C53   H19   S    
Cr3   O15   S    
C54   C55   A    
C7    C16   S    
C20   C79   S    
C60   C80   S    
Cr6   O10   S    
C1    O13   A    
C87   H44   S    
C72   C73   A    
C35   H6    S    
C10   C13   S    
C11   C17   S    
C34   C67   S    
C37   H9    S    
C80   O7    A    
C47   C52   S    
C25   C27   S    
C85   H39   S    
C84   H36   S    
C81   O8    A    
C54   H13   S    
C16   O1    A    
C32   C33   A    
C38   H10   S    
C18   H49   S    
C19   C24   S    
C58   C59   A    
C43   H7    S    
C71   C72   A    
C84   O20   S    
C2    C56   S    
C76   H1    S    
C61   C68   A    
C57   C58   A    
Cr3   O25   S    
C27   H51   S    
C48   C49   A    
C84   H35   S    
C33   C35   A    
C1    O4    A    
C78   H14   S    
C4    O15   A    
C32   C40   S    
C9    C15   S    
C61   C62   A    
C24   C30   S    
C34   C89   S    
C3    C11   S    
C10   C11   S    
C86   H40   S    
C62   H20   S    
C22   H52   S    
C26   C29   S    
Cr5   O11   S    
C65   C66   A    
C34   C76   S    
C8    H34   S    
C4    O14   A    
Cr2   O14   S    
Cr4   O5    S    
Cr3   O24   S    
C33   H2    S    
C13   C14   S    
C82   O5    A    
C85   H38   S    
C49   H15   S    
