data_mof_unit_51479.cif
_audit_creation_date              2013-03-05T15:56:56-0500
_audit_creation_method            fapswitch 2.2
_symmetry_space_group_name_H-M    P1
_symmetry_Int_Tables_number       1
_space_group_crystal_system       triclinic
_cell_length_a                    6.934523
_cell_length_b                    14.537044
_cell_length_c                    16.074401
_cell_angle_alpha                 89.977894
_cell_angle_beta                  90.103534
_cell_angle_gamma                 90.113347
_cell_volume                      1620.41369703

loop_
_atom_site_label
_atom_site_type_symbol
_atom_site_description
_atom_site_fract_x
_atom_site_fract_y
_atom_site_fract_z
_atom_type_partial_charge
O1    O     O_R   0.505680 0.583900 0.413320 -0.613644
O2    O     O_R   0.176010 0.594950 0.586080 -0.599183
O3    O     O_R   0.005680 0.416100 0.586680 -0.595409
C1    C     C_R   0.345760 0.618605 0.613898 0.936382
O4    O     O_R   0.175960 0.594930 0.413930 -0.606377
O5    O     O_R   0.005640 0.416080 0.413300 -0.573980
C2    C     C_R   0.345088 0.617585 0.385361 0.900926
O6    O     O_R   0.505720 0.583920 0.586700 -0.561134
O7    O     O_3   0.339190 0.441320 0.500000 -0.236091
V1    V     V_3+5 0.064350 0.510890 0.500000 1.182990
O8    O     O_R   0.675920 0.405050 0.413920 -0.558228
C3    C     C_R   0.844361 0.381800 0.385703 0.960300
O9    O     O_R   0.675960 0.405070 0.586070 -0.591417
C4    C     C_R   0.844729 0.382803 0.614714 0.961190
V2    V     V_3+5 0.564340 0.489110 0.500000 1.215861
O10   O     O_3   0.839370 0.558680 0.500000 -0.283824
C5    C     C_R   0.997759 0.245960 0.684911 0.130726
C6    C     C_R   0.852006 0.312449 0.681329 -0.195885
C7    C     C_R   0.705271 0.306821 0.741825 -0.135955
H1    H     H_    0.586455 0.354924 0.740623 0.109513
C8    C     C_R   0.717549 0.243173 0.807994 -0.084843
H2    H     H_    0.607299 0.243807 0.855554 0.109676
C9    C     C_R   0.876245 0.183045 0.815194 -0.254923
C10   C     C_R   0.008612 0.182637 0.749541 0.140563
C11   C     C_3   0.224166 0.183738 0.748911 0.185891
C12   C     C_3   0.211682 0.253515 0.677911 -0.563952
H3    H     H_    0.288797 0.210945 0.807197 0.050679
H4    H     H_    0.264934 0.227554 0.617092 0.249885
H5    H     H_    0.264651 0.323044 0.695380 0.173008
C13   C     C_R   0.023379 0.250609 0.196439 -0.126793
H6    H     H_    0.145160 0.254497 0.154480 0.124841
C14   C     C_R   0.009342 0.314616 0.261287 -0.074342
H7    H     H_    0.120427 0.366687 0.267153 0.152506
C15   C     C_R   0.853252 0.312602 0.317216 -0.308379
C16   C     C_R   0.710147 0.243734 0.306580 0.386067
C17   C     C_R   0.723955 0.180955 0.240486 -0.231960
H8    H     H_    0.613276 0.128748 0.233570 0.155048
C18   C     C_R   0.879525 0.183819 0.184715 -0.175420
C19   C     C_R   0.193929 0.710347 0.728438 -0.227400
H9    H     H_    0.057624 0.676679 0.715848 0.186450
C20   C     C_R   0.203419 0.773750 0.793758 -0.099635
H10   H     H_    0.073561 0.788018 0.828757 0.132511
C21   C     C_R   0.378846 0.816334 0.814951 -0.143752
C22   C     C_R   0.543290 0.796059 0.767644 -0.279095
H11   H     H_    0.680218 0.827957 0.782844 0.145623
C23   C     C_R   0.533368 0.735876 0.699135 0.586772
C24   C     C_R   0.358348 0.689205 0.681085 -0.276877
C25   C     C_R   0.188237 0.725262 0.283016 -0.145177
H12   H     H_    0.047439 0.706397 0.306608 0.119831
C26   C     C_R   0.199402 0.788721 0.217675 -0.129248
H13   H     H_    0.066629 0.816943 0.193084 0.123735
C27   C     C_R   0.379056 0.815230 0.184571 -0.117830
C28   C     C_R   0.547319 0.777046 0.219090 -0.144208
H14   H     H_    0.688130 0.796114 0.195668 0.122057
C29   C     C_R   0.536149 0.713548 0.284407 -0.148139
H15   H     H_    0.668927 0.685538 0.309197 0.124331
C30   C     C_R   0.356415 0.686512 0.317055 -0.114255
O11   O     O_R   0.229200 0.915950 0.913350 -0.587237
O12   O     O_R   0.559090 0.905000 0.086080 -0.603882
O13   O     O_R   0.729280 0.083880 0.086680 -0.599816
C31   C     C_R   0.390118 0.883019 0.115271 0.910980
O14   O     O_R   0.558920 0.904980 0.913920 -0.602665
O15   O     O_R   0.729110 0.083860 0.913300 -0.578226
C32   C     C_R   0.389725 0.883124 0.884811 1.005118
O16   O     O_R   0.229360 0.915970 0.086730 -0.600051
O17   O     O_3   0.395680 0.058580 0.000030 -0.276553
V3    V     V_3+5 0.670570 0.989070 0.999990 1.168100
O18   O     O_R   0.058820 0.094950 0.913870 -0.599295
C33   C     C_R   0.889695 0.116966 0.885104 0.974193
O19   O     O_R   0.058990 0.094970 0.086020 -0.599110
C34   C     C_R   0.890310 0.116755 0.115164 0.938748
V4    V     V_3+5 0.170560 0.010930 0.999930 1.174643
O20   O     O_3   0.895590 0.941310 0.999960 -0.283273
O21   O     O_3   0.698435 0.717801 0.653499 -0.670806
C35   C     C_3   0.750720 0.795507 0.605177 0.198479
H16   H     H_    0.907864 0.790682 0.592552 0.142766
H17   H     H_    0.728616 0.862215 0.637966 0.122943
C36   C     C_3   0.643174 0.795412 0.521714 -0.352692
H18   H     H_    0.671224 0.729718 0.488813 0.230646
H19   H     H_    0.485515 0.801335 0.532654 0.186706
C37   C     C_3   0.708183 0.874919 0.466409 -0.890303
H20   H     H_    0.680320 0.941758 0.497592 0.298708
H21   H     H_    0.626679 0.873154 0.406896 0.267847
H22   H     H_    0.864494 0.868980 0.452407 0.255299
N1    N     N_R   0.307472 0.096055 0.722370 0.260935
O22   O     O_R   0.489207 0.092040 0.702907 -0.383619
O23   O     O_R   0.206355 0.020516 0.724051 -0.413555
N2    N     N_R   0.554751 0.233380 0.364273 0.229327
O24   O     O_R   0.404011 0.285937 0.357801 -0.402453
O25   O     O_R   0.544415 0.159399 0.409596 -0.391908

loop_
_geom_bond_atom_site_label_1
_geom_bond_atom_site_label_2
_geom_bond_distance
_ccdc_geom_bond_type
C29   H15   1.082772 S    
C20   H10   1.083087 S    
C4    C6    1.481334 S    
C7    H1    1.081873 S    
C1    O6    1.296122 A    
C37   H20   1.110918 S    
C25   C30   1.406002 A    
C19   C20   1.398778 A    
C28   H14   1.082692 S    
C22   H11   1.083439 S    
O14   V3    2.000396 S    
C5    C12   1.491750 S    
C17   H8    1.083902 S    
C7    C8    1.412042 A    
C6    C7    1.410984 A    
C27   C31   1.488981 S    
O5    C3    1.300805 A    
C13   H6    1.083107 S    
C36   H19   1.111170 S    
V2    O10   2.156987 S    
C13   C18   1.403202 A    
C15   C16   1.418410 A    
C9    C33   1.481016 S    
O14   C32   1.301210 A    
O12   V3    2.001269 S    
C18   C34   1.485731 S    
O8    V2    2.003856 S    
O17   V4    1.706626 S    
O15   C33   1.294850 A    
O13   V3    2.001092 S    
O18   C33   1.300435 A    
C26   C27   1.408568 A    
C9    C10   1.399938 A    
O19   C34   1.300598 A    
V3    O20   1.709150 S    
O7    V1    2.159360 S    
N1    O23   1.302022 A    
O17   V3    2.159257 S    
O9    C4    1.298413 A    
C20   C21   1.405285 A    
C37   H21   1.110515 S    
C22   C23   1.408230 A    
C21   C32   1.486503 S    
C26   H13   1.082741 S    
C28   C29   1.399891 A    
C8    C9    1.411293 A    
O11   C32   1.296692 A    
O15   V3    2.000936 S    
O12   C31   1.302171 A    
C5    C10   1.389801 A    
O21   C35   1.417580 S    
C10   C11   1.494867 S    
C19   H9    1.082348 S    
O4    C2    1.301990 A    
C36   H18   1.109524 S    
O13   C34   1.296602 A    
C11   C12   1.529057 S    
N1    O22   1.300473 A    
C16   C17   1.404376 A    
C14   C15   1.408567 A    
O2    C1    1.304015 A    
C35   H16   1.111169 S    
C16   N2    1.430645 S    
O18   V4    2.001123 S    
C11   N1    1.464471 S    
C5    C6    1.400974 A    
C25   C26   1.399803 A    
C35   H17   1.114883 S    
O3    C4    1.297146 A    
O1    V2    2.001079 S    
C25   H12   1.082824 S    
N2    O25   1.300695 A    
O6    V2    2.003208 S    
O9    V2    2.001091 S    
C21   C22   1.403616 A    
C3    C15   1.492980 S    
O2    V1    2.000266 S    
C23   O21   1.386287 S    
C37   H22   1.110991 S    
C27   C28   1.406213 A    
C19   C24   1.406606 A    
C23   C24   1.418851 A    
O1    C2    1.296967 A    
V4    O20   2.156962 S    
O5    V1    2.001205 S    
O8    C3    1.299203 A    
C11   H3    1.110486 S    
O16   V4    2.004320 S    
C12   H4    1.112066 S    
C14   H7    1.082941 S    
C29   C30   1.408397 A    
O7    V2    1.707640 S    
O4    V1    2.001128 S    
O3    V1    2.001008 S    
V1    O10   1.709074 S    
C13   C14   1.401183 A    
C36   C37   1.525787 S    
O11   V4    2.003598 S    
C17   C18   1.404468 A    
C35   C36   1.533792 S    
C31   O16   1.297214 A    
N2    O24   1.299969 A    
C12   H5    1.110754 S    
O19   V4    2.003762 S    
C8    H2    1.082226 S    
C2    C30   1.488241 S    
C1    C24   1.492471 S    
