data_mof_unit_47684.cif
_audit_creation_date              2012-12-10T17:19:27-0500
_audit_creation_method            fapswitch 2.2
_symmetry_space_group_name_H-M    P1
_symmetry_Int_Tables_number       1
_space_group_crystal_system       triclinic
_cell_length_a                    15.079279
_cell_length_b                    10.799756
_cell_length_c                    9.596231
_cell_angle_alpha                 90.053118
_cell_angle_beta                  89.845844
_cell_angle_gamma                 92.591601
_cell_volume                      1561.16598787

loop_
_atom_site_label
_atom_site_type_symbol
_atom_type_description
_atom_site_fract_x
_atom_site_fract_y
_atom_site_fract_z
_atom_type_partial_charge
C1    C     C_R   0.496387 0.262569 0.500001 0.834554
C2    C     C_R   0.906872 0.514596 0.626842 0.037722
C3    C     C_R   0.953512 0.471921 0.248814 -0.216004
C4    C     C_R   0.045851 0.470688 0.249592 -0.214899
C5    C     C_R   0.092633 0.486107 0.374847 0.125483
C6    C     C_R   0.046420 0.501605 0.501388 -0.005783
C7    C     C_R   0.093089 0.516718 0.628356 0.010482
C8    C     C_R   0.046303 0.532974 0.754127 0.484608
C9    C     C_R   0.953104 0.528392 0.752468 -0.309957
C10   C     C_R   0.184946 0.485891 0.375460 -0.236822
C11   C     C_R   0.231739 0.500595 0.500779 -0.091461
C12   C     C_R   0.328699 0.499953 0.500232 0.788908
C13   C     C_R   0.185806 0.516030 0.626526 -0.200965
C14   C     C_R   0.366914 0.120854 0.670719 -0.246356
C15   C     C_R   0.311760 0.053686 0.762761 -0.193385
C16   C     C_R   0.315584 0.925421 0.771911 0.549111
C17   C     C_R   0.370503 0.863766 0.678638 -0.262035
C18   C     C_R   0.430749 0.930478 0.590066 0.038840
C19   C     C_R   0.430088 0.061225 0.587931 0.036907
C20   C     C_R   0.490841 0.128204 0.499900 -0.199798
C21   C     C_R   0.548944 0.066160 0.412065 0.486261
C22   C     C_R   0.546425 0.937986 0.410673 -0.290569
C23   C     C_R   0.496528 0.736990 0.500218 0.798883
C24   C     C_R   0.490178 0.870296 0.500822 -0.140774
C25   C     C_R   0.618481 0.664150 0.143731 -0.151720
C26   C     C_R   0.676421 0.744403 0.071419 -0.206362
C27   C     C_R   0.676281 0.744686 0.927829 -0.209948
C28   C     C_R   0.618193 0.664734 0.855692 -0.150246
C29   C     C_R   0.558135 0.580897 0.925041 0.202757
C30   C     C_R   0.558204 0.580724 0.074629 0.207664
C31   C     C_R   0.444352 0.423550 0.074063 -0.043301
C32   C     C_R   0.444354 0.423617 0.926170 -0.063828
C33   C     C_R   0.671237 0.500080 0.499819 0.791583
C34   C     C_R   0.814480 0.513397 0.625645 -0.221510
C35   C     C_R   0.768090 0.500244 0.499684 -0.077867
C36   C     C_R   0.814466 0.487179 0.374011 -0.264961
C37   C     C_R   0.906905 0.487024 0.373707 0.123696
C38   C     C_R   0.953423 0.501445 0.500653 0.063104
Cu1   Cu    Cu3+1 0.499990 0.499990 0.640660 0.918589
Cu2   Cu    Cu3+1 0.500010 0.500010 0.359340 0.950900
H1    H     H_    0.778842 0.523692 0.722966 0.161463
H2    H     H_    0.358640 0.219517 0.665212 0.163577
H3    H     H_    0.265898 0.101987 0.828077 0.154313
H4    H     H_    0.364076 0.764021 0.675791 0.166963
H5    H     H_    0.591306 0.891268 0.341959 0.158240
H6    H     H_    0.398738 0.360836 0.129383 0.138150
H7    H     H_    0.623969 0.671926 0.253524 0.192524
H8    H     H_    0.721690 0.807028 0.127556 0.152103
H9    H     H_    0.721502 0.807461 0.871565 0.151472
H10   H     H_    0.623529 0.672957 0.745853 0.198921
H11   H     H_    0.778770 0.476268 0.276502 0.164653
H12   H     H_    0.398672 0.361048 0.871149 0.135785
H13   H     H_    0.918573 0.460394 0.150772 0.149614
H14   H     H_    0.080764 0.457370 0.152355 0.189059
H15   H     H_    0.220243 0.473739 0.278140 0.154862
H16   H     H_    0.222485 0.528039 0.722870 0.193191
H17   H     H_    0.916702 0.534800 0.849519 0.152331
N1    N     N_R   0.500860 0.501210 0.147910 -0.199972
N2    N     N_R   0.500890 0.501290 0.852040 -0.203085
O1    O     O_R   0.499990 0.319640 0.618810 -0.586182
O2    O     O_R   0.500000 0.319660 0.381240 -0.530706
O3    O     O_R   0.370250 0.499960 0.618800 -0.606208
O4    O     O_R   0.370260 0.499980 0.381230 -0.586561
O5    O     O_R   0.500000 0.680340 0.618760 -0.608689
O6    O     O_R   0.500010 0.680360 0.381190 -0.595683
O7    O     O_R   0.629740 0.500020 0.618770 -0.601045
O8    O     O_R   0.629750 0.500040 0.381200 -0.592732
O9    O     O_3   0.260265 0.862679 0.866553 -0.600318
C39   C     C_3   0.307926 0.776208 0.943682 -0.313984
H18   H     H_    0.376356 0.811529 0.970913 0.167046
H19   H     H_    0.310170 0.686946 0.886469 0.177010
H20   H     H_    0.272626 0.757504 0.043455 0.186064
O10   O     O_3   0.092001 0.543326 0.879039 -0.606357
C40   C     C_3   0.076976 0.659212 0.940745 -0.319609
H21   H     H_    0.091306 0.737072 0.866826 0.206420
H22   H     H_    0.122358 0.672269 0.030711 0.194776
H23   H     H_    0.008318 0.662618 0.982359 0.157449
O11   O     O_3   0.606837 0.130918 0.323517 -0.558091
C41   C     C_3   0.689821 0.146739 0.390163 -0.300100
H24   H     H_    0.719877 0.056011 0.408892 0.147548
H25   H     H_    0.684335 0.198896 0.489748 0.149493
H26   H     H_    0.735453 0.201933 0.320975 0.194798

loop_
_geom_bond_atom_site_label_1
_geom_bond_atom_site_label_2
_ccdc_geom_bond_type
C11   C13   A    
O10   C40   S    
C35   C36   A    
C7    C8    A    
Cu1   O5    S    
C26   C27   A    
C29   C30   A    
Cu2   O4    S    
C40   H22   S    
C18   C24   A    
C31   N1    A    
C36   C37   A    
C34   C35   A    
C5    C6    A    
C15   C16   A    
C18   C19   A    
C39   H19   S    
C32   H12   S    
C28   H10   S    
C29   N2    A    
C8    C9    A    
Cu2   O8    S    
C21   O11   S    
C23   C24   S    
C6    C38   A    
C16   O9    S    
C25   H7    S    
C26   H8    S    
C14   H2    S    
C13   H16   S    
C2    C34   A    
C21   C22   A    
C34   H1    S    
C33   O7    A    
Cu2   N1    S    
C40   H21   S    
C1    O1    A    
Cu1   Cu2   S    
C41   H25   S    
C12   O4    A    
O11   C41   S    
O9    C39   S    
C25   C26   A    
C31   H6    S    
Cu2   O2    S    
C39   H20   S    
C37   C38   A    
C12   O3    A    
C2    C38   A    
C31   C32   A    
Cu1   N2    S    
C40   H23   S    
C17   C18   A    
C10   H15   S    
C36   H11   S    
C23   O5    A    
Cu2   O6    S    
Cu1   O7    S    
C22   C24   A    
C3    C4    A    
C33   O8    A    
C25   C30   A    
Cu1   O3    S    
C28   C29   A    
C1    C20   S    
C4    H14   S    
C14   C19   A    
C4    C5    A    
C1    O2    A    
C41   H26   S    
C11   C12   S    
C6    C7    A    
C23   O6    A    
C19   C20   A    
C17   H4    S    
C15   H3    S    
C5    C10   A    
C3    H13   S    
C16   C17   A    
Cu1   O1    S    
C30   N1    A    
C8    O10   S    
C33   C35   S    
C9    H17   S    
C39   H18   S    
C10   C11   A    
C41   H24   S    
C7    C13   A    
C22   H5    S    
C20   C21   A    
C3    C37   A    
C27   C28   A    
C14   C15   A    
C32   N2    A    
C2    C9    A    
C27   H9    S    
