data_mof_unit_61345.cif
_audit_creation_date              2012-12-10T19:50:49-0500
_audit_creation_method            fapswitch 2.2
_symmetry_space_group_name_H-M    P1
_symmetry_Int_Tables_number       1
_space_group_crystal_system       triclinic
_cell_length_a                    15.015025
_cell_length_b                    14.154857
_cell_length_c                    11.556037
_cell_angle_alpha                 90.000036
_cell_angle_beta                  89.989765
_cell_angle_gamma                 89.999976
_cell_volume                      2456.06842926

loop_
_atom_site_label
_atom_site_type_symbol
_atom_type_description
_atom_site_fract_x
_atom_site_fract_y
_atom_site_fract_z
_atom_type_partial_charge
C1    C     C_R   0.327733 0.500000 0.500013 0.864956
C2    C     C_R   0.499986 0.500000 0.718290 0.912135
C3    C     C_R   0.559311 0.105342 0.427770 0.363169
C4    C     C_R   0.559307 0.894658 0.572208 0.363168
C5    C     C_R   0.440689 0.105342 0.572230 0.363163
C6    C     C_R   0.440693 0.894658 0.427792 0.363165
C7    C     C_1   0.500011 0.500000 0.161354 -0.176586
C8    C     C_1   0.499989 0.500000 0.838646 -0.176586
C9    C     C_1   0.500005 0.500000 0.059275 0.018006
C10   C     C_1   0.499995 0.500000 0.940724 0.018006
C11   C     C_R   0.557460 0.204734 0.430243 -0.034971
C12   C     C_R   0.672267 0.500000 0.499987 0.864956
C13   C     C_R   0.557456 0.795266 0.569736 -0.034971
C14   C     C_R   0.442540 0.204734 0.569758 -0.034968
C15   C     C_R   0.442544 0.795266 0.430264 -0.034971
C16   C     C_R   0.094096 0.579461 0.540200 -0.164263
C17   C     C_R   0.905890 0.420540 0.540190 -0.164268
C18   C     C_R   0.905903 0.579460 0.459798 -0.164263
C19   C     C_R   0.094110 0.420540 0.459812 -0.164268
C20   C     C_R   0.186038 0.579704 0.539515 -0.179427
C21   C     C_R   0.813949 0.420296 0.539495 -0.179423
C22   C     C_R   0.813962 0.579703 0.460482 -0.179427
C23   C     C_R   0.231983 0.499999 0.500013 -0.034331
C24   C     C_R   0.186051 0.420295 0.460507 -0.179423
C25   C     C_R   0.768017 0.499999 0.499986 -0.034330
C26   C     C_R   0.048101 0.500000 0.500003 0.107012
C27   C     C_R   0.951899 0.500000 0.499997 0.107012
C28   C     C_R   0.500000 0.053372 0.500000 -0.172737
C29   C     C_R   0.500000 0.946628 0.500000 -0.172735
C30   C     C_R   0.500014 0.500000 0.281710 0.912135
H1    H     H_    0.602494 0.244317 0.375494 0.173947
H2    H     H_    0.778907 0.358584 0.571197 0.163411
H3    H     H_    0.778929 0.641415 0.428778 0.163408
H4    H     H_    0.221093 0.358582 0.428807 0.163412
H5    H     H_    0.614393 0.993732 0.358094 0.354850
H6    H     H_    0.614385 0.006267 0.641863 0.354850
H7    H     H_    0.385606 0.993734 0.641904 0.354851
H8    H     H_    0.385614 0.006267 0.358138 0.354850
H9    H     H_    0.602487 0.755683 0.624467 0.173950
H10   H     H_    0.397507 0.244318 0.624506 0.173947
H11   H     H_    0.397513 0.755683 0.375532 0.173951
H12   H     H_    0.058938 0.640702 0.573006 0.143054
H13   H     H_    0.941039 0.359301 0.573003 0.143054
H14   H     H_    0.941062 0.640700 0.426990 0.143054
H15   H     H_    0.058962 0.359299 0.427001 0.143054
H16   H     H_    0.221071 0.641417 0.571218 0.163408
N1    N     N_R   0.500000 0.252470 0.500000 -0.166375
N2    N     N_R   0.500000 0.747530 0.500000 -0.166375
O1    O     O_R   0.369060 0.579480 0.500010 -0.623340
O2    O     O_3   0.619744 0.936766 0.646179 -0.740660
O3    O     O_3   0.380247 0.063234 0.646223 -0.740659
O4    O     O_3   0.380255 0.936766 0.353821 -0.740660
O5    O     O_R   0.630940 0.420520 0.499990 -0.623339
O6    O     O_R   0.630940 0.579480 0.499990 -0.623340
O7    O     O_R   0.369060 0.420520 0.500010 -0.623339
O8    O     O_R   0.500010 0.579480 0.334450 -0.609721
O9    O     O_R   0.499990 0.420520 0.665550 -0.609724
O10   O     O_R   0.499990 0.579480 0.665550 -0.609721
O11   O     O_R   0.500010 0.420520 0.334450 -0.609724
O12   O     O_3   0.619753 0.063233 0.353777 -0.740659
Zn1   Zn    Zn3+2 0.500000 0.606140 0.500000 0.955825
Zn2   Zn    Zn3+2 0.500000 0.393860 0.500000 0.955824

loop_
_geom_bond_atom_site_label_1
_geom_bond_atom_site_label_2
_ccdc_geom_bond_type
C13   N2    A    
C23   C24   A    
C17   H13   S    
C14   N1    A    
O6    Zn1   S    
C18   H14   S    
C17   C21   A    
C5    C28   A    
O5    Zn2   S    
C11   N1    A    
C4    C29   A    
C20   C23   A    
C12   C25   S    
C16   C20   A    
C30   O11   A    
N1    Zn2   S    
C19   H15   S    
C19   C24   A    
C5    C14   A    
C2    O9    A    
C11   H1    S    
O9    Zn2   S    
C7    C30   S    
H5    O12   S    
C3    O12   S    
C16   C26   A    
O1    Zn1   S    
N2    Zn1   S    
C30   O8    A    
C15   N2    A    
O10   Zn1   S    
C28   C29   S    
C1    C23   S    
C26   C27   S    
C2    O10   A    
H7    O3    S    
C21   H2    S    
C24   H4    S    
C1    O7    A    
C13   H9    S    
C3    C11   A    
C14   H10   S    
C17   C27   A    
O7    Zn2   S    
C20   H16   S    
C6    C29   A    
H8    O4    S    
C15   H11   S    
C8    C10   T    
C9    C10   S    
C2    C8    S    
C4    C13   A    
C7    C9    T    
C22   H3    S    
C21   C25   A    
O8    Zn1   S    
C3    C28   A    
O11   Zn2   S    
C6    O4    S    
C6    C15   A    
C18   C22   A    
C16   H12   S    
C1    O1    A    
C12   O6    A    
C18   C27   A    
C12   O5    A    
H6    O2    S    
C4    O2    S    
C5    O3    S    
C22   C25   A    
C19   C26   A    
