data_mof_unit_62195.cif
_audit_creation_date              2012-12-10T21:09:57-0500
_audit_creation_method            fapswitch 2.2
_symmetry_space_group_name_H-M    P1
_symmetry_Int_Tables_number       1
_space_group_crystal_system       triclinic
_cell_length_a                    12.827226
_cell_length_b                    17.598083
_cell_length_c                    16.771964
_cell_angle_alpha                 88.686693
_cell_angle_beta                  98.085612
_cell_angle_gamma                 90.995561
_cell_volume                      3747.00800168

loop_
_atom_site_label
_atom_site_type_symbol
_atom_type_description
_atom_site_fract_x
_atom_site_fract_y
_atom_site_fract_z
_atom_type_partial_charge
C1    C     C_R   0.503441 0.353235 0.501458 0.968279
C2    C     C_R   0.497735 0.646882 0.498653 0.933993
C3    C     C_R   0.499420 0.729941 0.496234 -0.033240
C4    C     C_R   0.516537 0.270866 0.504964 -0.088525
C5    C     C_R   0.474641 0.772354 0.423190 -0.054508
C6    C     C_R   0.558165 0.231591 0.577103 -0.077522
C7    C     C_R   0.488451 0.851580 0.423716 -0.019215
C8    C     C_R   0.569311 0.152461 0.576153 -0.018228
C9    C     C_R   0.524612 0.887023 0.496748 0.090928
C10   C     C_R   0.540607 0.114334 0.503653 0.085694
C11   C     C_1   0.536148 0.966885 0.499812 -0.014596
C12   C     C_1   0.541132 0.034181 0.501718 -0.014279
C13   C     C_R   0.437487 0.449759 0.827632 -0.275714
C14   C     C_R   0.563520 0.548472 0.172144 -0.272400
C15   C     C_R   0.437649 0.449899 0.743584 0.126173
C16   C     C_R   0.563981 0.548660 0.256226 0.131306
C17   C     C_R   0.562382 0.550931 0.752898 -0.024802
C18   C     C_R   0.434756 0.450515 0.247324 -0.013835
C19   C     C_R   0.564515 0.552737 0.837356 -0.070716
C20   C     C_R   0.431851 0.448517 0.162796 -0.070790
C21   C     C_R   0.501116 0.501247 0.875822 0.087103
C22   C     C_R   0.497327 0.498303 0.124131 0.081958
C23   C     C_R   0.297573 0.499111 0.483492 0.961112
C24   C     C_R   0.702077 0.501588 0.516234 0.946450
C25   C     C_1   0.499716 0.500219 0.963539 0.003547
C26   C     C_1   0.498249 0.499083 0.036365 0.002821
C27   C     C_R   0.813832 0.513413 0.525949 -0.207701
C28   C     C_R   0.184115 0.499082 0.470467 -0.212142
C29   C     C_R   0.020635 0.434295 0.421391 -0.083906
C30   C     C_R   0.958946 0.604528 0.532518 -0.071417
C31   C     C_R   0.128882 0.444302 0.420188 -0.108621
C32   C     C_R   0.854474 0.587000 0.542848 -0.103774
C33   C     C_R   0.131008 0.553230 0.509639 -0.065836
C34   C     C_R   0.873536 0.458016 0.496061 -0.060097
C35   C     C_R   0.020818 0.547191 0.504717 0.026491
C36   C     C_R   0.971141 0.479266 0.473646 0.032819
C37   C     C_R   0.544087 0.845588 0.568718 -0.136481
C38   C     C_R   0.503312 0.153363 0.432639 -0.149437
C39   C     C_R   0.530941 0.767567 0.568616 -0.154147
C40   C     C_R   0.491736 0.231154 0.433136 -0.176715
H1    H     H_    0.610455 0.590574 0.723470 0.169296
H2    H     H_    0.384744 0.412318 0.277032 0.151762
H3    H     H_    0.569669 0.873725 0.625105 0.157603
H4    H     H_    0.481318 0.123316 0.376914 0.162406
H5    H     H_    0.547421 0.736560 0.625355 0.148438
H6    H     H_    0.462526 0.260177 0.377023 0.160438
H7    H     H_    0.387634 0.409615 0.855320 0.164809
H8    H     H_    0.614756 0.587420 0.144262 0.165584
N1    N     N_R   0.500030 0.500030 0.707230 -0.119249
N2    N     N_R   0.499970 0.499970 0.292770 -0.119703
O1    O     O_R   0.500000 0.389130 0.566570 -0.629627
O2    O     O_R   0.500000 0.610870 0.433430 -0.633340
O3    O     O_R   0.499990 0.389100 0.433480 -0.604207
O4    O     O_R   0.500010 0.610900 0.566520 -0.621426
O5    O     O_R   0.346360 0.500000 0.555540 -0.613514
O6    O     O_R   0.653640 0.500000 0.444460 -0.581325
O7    O     O_R   0.346350 0.499970 0.422460 -0.616719
O8    O     O_R   0.653650 0.500030 0.577540 -0.605775
Zn1   Zn    Zn3+2 0.500000 0.500020 0.588860 1.003948
Zn2   Zn    Zn3+2 0.500000 0.499980 0.411140 1.012343
C41   C     C_2   0.840561 0.376291 0.498829 0.901975
O9    O     O_2   0.903578 0.329180 0.529834 -0.585605
O10   O     O_R   0.739680 0.352908 0.465069 -0.793953
H9    H     H_    0.729111 0.295819 0.469312 0.343702
C42   C     C_2   0.192485 0.609601 0.562973 0.933750
O11   O     O_2   0.255671 0.652520 0.536126 -0.626842
O12   O     O_R   0.178289 0.612657 0.643966 -0.775622
H10   H     H_    0.224673 0.652843 0.674170 0.355812
C43   C     C_1   0.631785 0.607637 0.882915 0.188806
N3    N     N_1   0.685739 0.651672 0.919472 -0.158655
C44   C     C_1   0.361557 0.395294 0.117367 0.202302
N4    N     N_1   0.305161 0.352602 0.080920 -0.152578
C45   C     C_2   0.786715 0.646164 0.569166 0.945384
O13   O     O_2   0.757604 0.699411 0.523857 -0.623491
O14   O     O_R   0.759957 0.641923 0.646964 -0.777972
H11   H     H_    0.719376 0.687772 0.660075 0.329296
C46   C     C_2   0.184690 0.395032 0.369897 0.981361
O15   O     O_2   0.165171 0.399525 0.296461 -0.607522
O16   O     O_R   0.258187 0.342983 0.406751 -0.798094
H12   H     H_    0.288613 0.311417 0.366080 0.331427
C47   C     C_2   0.957633 0.381588 0.364302 0.960639
O17   O     O_2   0.988364 0.317343 0.355340 -0.566975
O18   O     O_R   0.861807 0.405744 0.321865 -0.780281
H13   H     H_    0.825311 0.365030 0.285758 0.357881
C48   C     C_2   0.996632 0.684967 0.539208 0.958876
O19   O     O_2   0.988368 0.720827 0.599574 -0.569131
O20   O     O_R   0.041111 0.719467 0.475773 -0.771379
H14   H     H_    0.064119 0.774008 0.487198 0.361965
C49   C     C_1   0.432083 0.736167 0.348448 0.237405
N5    N     N_1   0.398000 0.707474 0.288783 -0.168857
C50   C     C_1   0.592982 0.271361 0.651204 0.232090
N6    N     N_1   0.620945 0.302926 0.710363 -0.169322
C51   C     C_1   0.465141 0.896563 0.349865 0.186340
N7    N     N_1   0.446586 0.932459 0.291050 -0.167616
C52   C     C_1   0.609244 0.110287 0.649184 0.191136
N8    N     N_1   0.641055 0.076628 0.707362 -0.163334
C53   C     C_1   0.370369 0.396521 0.696356 0.254274
N9    N     N_1   0.315978 0.353463 0.658677 -0.156582
C54   C     C_1   0.633185 0.601073 0.303230 0.257111
N10   N     N_1   0.689112 0.643382 0.340679 -0.149493

loop_
_geom_bond_atom_site_label_1
_geom_bond_atom_site_label_2
_ccdc_geom_bond_type
C38   C40   A    
O20   H14   S    
C51   N7    T    
O5    Zn1   S    
C45   O13   D    
C52   N8    T    
C24   C27   S    
C53   N9    T    
C33   C42   S    
C46   O15   D    
C40   H6    S    
C29   C36   A    
C30   C35   A    
C19   C21   A    
C16   N2    A    
C18   H2    S    
C6    C50   S    
C7    C9    A    
C41   O10   S    
C1    O3    A    
O2    Zn2   S    
C33   C35   A    
C54   N10   T    
C42   O12   S    
C20   C44   S    
C18   C20   A    
C39   H5    S    
C46   O16   S    
C3    C39   A    
C45   O14   S    
C43   N3    T    
C8    C52   S    
C15   C53   S    
C10   C12   S    
C47   O18   S    
O3    Zn2   S    
C31   C46   S    
O4    Zn1   S    
C48   O20   S    
C27   C34   A    
C7    C51   S    
O12   H10   S    
C4    C40   A    
O16   H12   S    
C4    C6    A    
C2    O4    A    
C17   N1    A    
C50   N6    T    
C5    C7    A    
O7    Zn2   S    
C6    C8    A    
O8    Zn1   S    
C48   O19   D    
C34   C41   S    
C47   O17   D    
O6    Zn2   S    
C35   C36   A    
C37   H3    S    
O14   H11   S    
C38   H4    S    
C9    C11   S    
O18   H13   S    
C9    C37   A    
C13   C21   A    
C23   C28   S    
C30   C48   S    
C1    O1    A    
C2    O2    A    
C8    C10   A    
C20   C22   A    
C29   C47   S    
C13   C15   A    
C14   C16   A    
C19   C43   S    
O1    Zn1   S    
C32   C45   S    
C18   N2    A    
C13   H7    S    
C23   O7    A    
C21   C25   S    
C27   C32   A    
C28   C31   A    
C3    C5    A    
C28   C33   A    
C14   H8    S    
C11   C12   T    
C16   C54   S    
C23   O5    A    
C24   O6    A    
N1    Zn1   S    
C10   C38   A    
C1    C4    S    
N2    Zn2   S    
C14   C22   A    
C2    C3    S    
C25   C26   T    
C44   N4    T    
C29   C31   A    
C30   C32   A    
C17   C19   A    
C34   C36   A    
C15   N1    A    
C41   O9    D    
C17   H1    S    
O10   H9    S    
C37   C39   A    
C24   O8    A    
C42   O11   D    
C22   C26   S    
C49   N5    T    
C5    C49   S    
