data_mof_unit_46290.cif
_audit_creation_date              2013-03-05T16:10:51-0500
_audit_creation_method            fapswitch 2.2
_symmetry_space_group_name_H-M    P1
_symmetry_Int_Tables_number       1
_space_group_crystal_system       triclinic
_cell_length_a                    10.994837
_cell_length_b                    9.707802
_cell_length_c                    15.868814
_cell_angle_alpha                 90.488091
_cell_angle_beta                  90.178963
_cell_angle_gamma                 90.318879
_cell_volume                      1693.67277586

loop_
_atom_site_label
_atom_site_type_symbol
_atom_site_description
_atom_site_fract_x
_atom_site_fract_y
_atom_site_fract_z
_atom_type_partial_charge
O1    O     O_R   0.317570 0.620260 0.500050 -0.519779
O2    O     O_R   0.317570 0.379740 0.500050 -0.519362
C1    C     C_R   0.259876 0.499826 0.504766 0.904815
O3    O     O_R   0.499890 0.620310 0.379470 -0.545502
O4    O     O_R   0.499890 0.379690 0.379470 -0.527947
C2    C     C_R   0.500792 0.499604 0.341203 0.827177
Cu1   Cu    Cu3+1 0.499860 0.642410 0.500040 1.069486
Cu2   Cu    Cu3+1 0.499860 0.357590 0.500040 1.069273
O5    O     O_R   0.682190 0.620260 0.500020 -0.573326
O6    O     O_R   0.682190 0.379740 0.500020 -0.566204
O7    O     O_R   0.499870 0.620210 0.620600 -0.543646
O8    O     O_R   0.499870 0.379790 0.620600 -0.564505
C3    C     C_R   0.738226 0.500415 0.504020 0.888164
C4    C     C_R   0.499169 0.500497 0.658963 0.855361
C5    C     C_3   0.405603 0.589250 0.051826 -0.020104
C6    C     C_3   0.502386 0.355050 0.049421 -0.030506
C7    C     C_3   0.478619 0.354551 0.950115 0.222352
C8    C     C_3   0.408338 0.612360 0.953052 0.239345
H1    H     H_    0.330291 0.514954 0.062433 0.196294
H2    H     H_    0.417169 0.321758 0.080285 0.197141
C9    C     C_1   0.500876 0.502080 0.748405 0.090365
C10   C     C_3   0.521595 0.507382 0.084344 -0.267844
C11   C     C_3   0.510355 0.508162 0.916701 -0.222012
C12   C     C_3   0.647717 0.555488 0.947275 0.265675
C13   C     C_3   0.644869 0.579654 0.051010 0.376891
C14   C     C_1   0.504014 0.504764 0.823937 0.313211
C15   C     C_1   0.513531 0.502068 0.176762 0.221341
C16   C     C_1   0.506571 0.499373 0.251995 -0.001459
C17   C     C_3   0.070230 0.627184 0.561732 -0.156510
C18   C     C_3   0.066014 0.365438 0.551418 -0.175760
H3    H     H_    0.094184 0.717772 0.524767 0.246601
H4    H     H_    0.098437 0.280520 0.511895 0.238294
C19   C     C_3   0.925763 0.627153 0.567674 0.334321
C20   C     C_3   0.921935 0.356280 0.548852 0.353369
H5    H     H_    0.887853 0.609395 0.389955 0.199637
H6    H     H_    0.884914 0.435353 0.376520 0.205195
C21   C     C_3   0.067078 0.512944 0.415489 0.208623
C22   C     C_3   0.119460 0.500415 0.509209 -0.026133
C23   C     C_3   0.874969 0.499978 0.511434 -0.084202
C24   C     C_3   0.924566 0.514871 0.419147 -0.588406
C25   C     C_3   0.627014 0.083511 0.506376 -0.400308
C26   C     C_3   0.627220 0.917892 0.506511 -0.403328
H7    H     H_    0.675277 0.121044 0.564030 0.235503
H8    H     H_    0.674813 0.883537 0.564537 0.233231
H9    H     H_    0.687696 0.123359 0.457403 0.223914
H10   H     H_    0.690093 0.875863 0.459178 0.211516
H11   H     H_    0.509491 0.114741 0.633872 0.123311
H12   H     H_    0.513946 0.899984 0.632961 0.121719
C27   C     C_3   0.446830 0.084429 0.580966 0.204382
C28   C     C_3   0.446181 0.920450 0.581823 0.223433
C29   C     C_3   0.445904 0.083905 0.419179 0.423310
C30   C     C_3   0.447834 0.914202 0.419231 0.416851
N1    N     N_3   0.500250 0.143650 0.501830 -0.246652
N2    N     N_3   0.500250 0.856350 0.501830 -0.243080
N3    N     N_R   0.285961 0.584130 0.915968 0.188510
O9    O     O_R   0.189288 0.580305 0.963198 -0.205792
O10   O     O_R   0.268991 0.600067 0.835434 -0.283299
N4    N     N_R   0.349078 0.320974 0.929874 0.153421
O11   O     O_R   0.270365 0.284412 0.986737 -0.273296
O12   O     O_R   0.316959 0.305611 0.851311 -0.236119
N5    N     N_3   0.882481 0.759950 0.534229 -0.581408
H13   H     H_    0.914280 0.781755 0.474210 0.193031
H14   H     H_    0.913673 0.840025 0.573437 0.259275
N6    N     N_3   0.885088 0.238952 0.494160 -0.596013
H15   H     H_    0.915444 0.243829 0.432659 0.203729
H16   H     H_    0.919623 0.147006 0.518212 0.255395
N7    N     N_3   0.112490 0.640167 0.375625 -0.457974
H17   H     H_    0.103774 0.633190 0.310063 0.287728
H18   H     H_    0.061359 0.726300 0.391578 0.238217
N8    N     N_3   0.109480 0.398223 0.361681 -0.486943
H19   H     H_    0.080814 0.302239 0.381546 0.248435
H20   H     H_    0.073782 0.408057 0.300833 0.265229
N9    N     N_R   0.322763 0.144831 0.400274 0.182726
O13   O     O_R   0.220009 0.082401 0.412650 -0.282707
O14   O     O_R   0.315337 0.245431 0.346927 -0.322647
N10   N     N_R   0.326145 0.855777 0.402293 0.186190
O15   O     O_R   0.245071 0.849788 0.460545 -0.303428
O16   O     O_R   0.289218 0.834917 0.325097 -0.286232
N11   N     N_3   0.522141 0.132017 0.347353 -0.524204
H21   H     H_    0.480087 0.111668 0.289322 0.277651
H22   H     H_    0.611677 0.099979 0.342512 0.201331
N12   N     N_3   0.522847 0.863549 0.346980 -0.520186
H23   H     H_    0.486638 0.888047 0.288080 0.290300
H24   H     H_    0.614610 0.888199 0.344705 0.204596
N13   N     N_R   0.334583 0.148207 0.606908 0.176193
O17   O     O_R   0.323352 0.192256 0.684195 -0.296704
O18   O     O_R   0.239087 0.135259 0.560668 -0.312365
N14   N     N_R   0.338192 0.852761 0.619503 0.190162
O19   O     O_R   0.354213 0.784743 0.689042 -0.314356
O20   O     O_R   0.229730 0.901415 0.609190 -0.259346
N15   N     N_R   0.589317 0.251342 0.080598 0.160751
O21   O     O_R   0.549233 0.150689 0.126787 -0.284432
O22   O     O_R   0.703995 0.252734 0.061638 -0.229223
N16   N     N_R   0.367541 0.709269 0.103606 0.178575
O23   O     O_R   0.276383 0.694847 0.155027 -0.262697
O24   O     O_R   0.415757 0.831189 0.096686 -0.269098
N17   N     N_3   0.549053 0.246616 0.905702 -0.474548
H25   H     H_    0.508392 0.150647 0.916607 0.280361
H26   H     H_    0.637759 0.234619 0.925839 0.305889
N18   N     N_3   0.436329 0.755629 0.930407 -0.454335
H27   H     H_    0.360733 0.818143 0.941621 0.302074
H28   H     H_    0.507506 0.796995 0.965008 0.284843
N19   N     N_R   0.641747 0.726967 0.078799 0.134941
O25   O     O_R   0.696724 0.823739 0.037247 -0.225579
O26   O     O_R   0.627365 0.752136 0.158915 -0.297880
N20   N     N_R   0.756347 0.527301 0.092582 0.203702
O27   O     O_R   0.858780 0.590492 0.077337 -0.180606
O28   O     O_R   0.751546 0.455336 0.161323 -0.315388
N21   N     N_R   0.693292 0.680851 0.903934 0.171642
O29   O     O_R   0.635591 0.737114 0.841441 -0.300584
O30   O     O_R   0.808094 0.712554 0.912337 -0.140304
N22   N     N_R   0.734348 0.447115 0.918174 0.137345
O31   O     O_R   0.738792 0.418869 0.837879 -0.240784
O32   O     O_R   0.828751 0.409662 0.961533 -0.166559
N23   N     N_3   0.135938 0.656144 0.640615 -0.456932
H29   H     H_    0.091893 0.727827 0.679214 0.330838
H30   H     H_    0.172323 0.573945 0.673189 0.289191
N24   N     N_3   0.117217 0.342949 0.635898 -0.475414
H31   H     H_    0.105775 0.239964 0.652028 0.342975
H32   H     H_    0.068609 0.394410 0.682062 0.303321
N25   N     N_R   0.877437 0.620096 0.654903 0.171470
O33   O     O_R   0.769685 0.669036 0.670504 -0.279511
O34   O     O_R   0.938101 0.569991 0.717907 -0.267347
N26   N     N_R   0.868439 0.324114 0.632890 0.163902
O35   O     O_R   0.767012 0.379369 0.657436 -0.296493
O36   O     O_R   0.897625 0.209255 0.669428 -0.316734

loop_
_geom_bond_atom_site_label_1
_geom_bond_atom_site_label_2
_geom_bond_distance
_ccdc_geom_bond_type
C5    C8    1.585638 S    
C9    C14   1.199057 T    
C25   C26   1.607837 S    
N9    O14   1.300620 A    
N9    O13   1.295392 A    
C12   N22   1.494317 S    
N3    O9    1.303019 A    
C5    N16   1.482927 S    
N22   O32   1.298824 A    
N17   H25   1.047071 S    
Cu1   Cu2   2.764975 S    
H11   C27   1.120718 S    
N13   O17   1.301884 A    
C5    H1    1.109266 S    
C28   N2    1.532107 S    
C8    N18   1.470611 S    
C4    C9    1.419353 S    
C6    H2    1.106527 S    
N10   O16   1.303168 A    
C21   C24   1.568363 S    
N21   O30   1.303703 A    
O4    C2    1.317544 A    
O7    C4    1.316524 A    
N20   O27   1.303768 A    
N4    O12   1.301809 A    
N23   H29   1.045124 S    
C17   C19   1.591482 S    
C18   C22   1.587374 S    
C26   H10   1.099855 S    
C11   C14   1.473561 S    
N5    H14   1.047120 S    
O5    C3    1.321435 A    
N24   H31   1.041170 S    
N19   O25   1.299782 A    
C20   C23   1.607927 S    
C19   C23   1.613396 S    
C5    C10   1.593272 S    
C2    C16   1.417237 S    
C1    C22   1.545724 S    
C6    C7    1.596532 S    
N23   H30   1.035993 S    
C10   C13   1.615343 S    
C17   C22   1.579529 S    
C6    C10   1.587583 S    
C11   C12   1.646594 S    
N8    H19   1.034073 S    
C30   N12   1.495782 S    
C28   N14   1.483745 S    
C7    N4    1.492707 S    
H12   C28   1.119716 S    
C17   N23   1.467655 S    
C21   N8    1.476075 S    
C19   N25   1.486229 S    
C25   H7    1.113799 S    
N5    H13   1.038684 S    
C26   H8    1.112251 S    
O3    Cu1   1.923476 S    
N18   H28   1.032101 S    
N22   O31   1.302182 A    
N17   H26   1.032890 S    
C30   N2    1.541766 S    
C13   N20   1.484385 S    
N24   H32   1.034906 S    
N13   O18   1.284053 A    
N25   O34   1.299543 A    
C18   C20   1.586501 S    
C8    C11   1.618897 S    
C27   N13   1.443353 S    
H6    C24   1.108621 S    
N10   O15   1.287607 A    
O3    C2    1.315290 A    
N15   O21   1.302171 A    
N11   H22   1.036938 S    
C13   N19   1.493546 S    
C18   N24   1.470857 S    
N4    O11   1.302352 A    
N7    H17   1.046076 S    
C29   N1    1.546581 S    
N6    H16   1.046539 S    
Cu1   O7    1.927068 S    
C21   C22   1.599021 S    
N15   O22   1.297206 A    
Cu2   O8    1.923419 S    
C20   N6    1.480040 S    
N19   O26   1.302845 A    
C7    C11   1.623429 S    
C12   C13   1.661219 S    
N16   O24   1.299826 A    
C25   N1    1.515823 S    
N25   O33   1.302560 A    
C8    N3    1.489983 S    
C19   N5    1.478850 S    
N14   O20   1.295507 A    
N12   H23   1.044599 S    
N12   H24   1.036424 S    
C10   C15   1.470838 S    
N3    O10   1.301618 A    
C23   C24   1.571847 S    
N26   O36   1.302406 A    
N7    H18   1.040100 S    
Cu1   O5    2.017378 S    
C20   N26   1.493946 S    
O1    Cu1   2.014562 S    
O2    Cu2   2.016941 S    
C12   N21   1.488234 S    
C29   N9    1.510731 S    
O8    C4    1.315962 A    
C30   N10   1.473342 S    
O6    C3    1.321535 A    
Cu2   N1    2.077351 S    
O4    Cu2   1.927108 S    
N6    H15   1.033810 S    
O2    C1    1.331929 A    
C29   C30   1.647703 S    
C17   H3    1.092704 S    
N21   O29   1.301315 A    
C26   N2    1.516775 S    
C18   H4    1.093565 S    
N20   O28   1.301422 A    
C27   N1    1.505211 S    
C21   N7    1.477582 S    
N18   H27   1.046659 S    
H5    C24   1.108944 S    
N16   O23   1.302094 A    
C29   N11   1.493501 S    
C3    C23   1.507724 S    
N11   H21   1.045987 S    
N14   O19   1.302785 A    
C6    N15   1.479245 S    
Cu2   O6    2.014999 S    
C27   C28   1.592028 S    
C15   C16   1.197049 T    
C25   H9    1.097362 S    
N8    H20   1.046492 S    
Cu1   N2    2.076820 S    
O1    C1    1.329822 A    
C7    N17   1.481287 S    
N26   O35   1.299569 A    
