data_mof_unit_62386.cif
_audit_creation_date              2013-03-05T16:18:59-0500
_audit_creation_method            fapswitch 2.2
_symmetry_space_group_name_H-M    P1
_symmetry_Int_Tables_number       1
_space_group_crystal_system       triclinic
_cell_length_a                    24.398486
_cell_length_b                    24.396327
_cell_length_c                    43.073494
_cell_angle_alpha                 89.998345
_cell_angle_beta                  89.999839
_cell_angle_gamma                 90.057554
_cell_volume                      25638.7711794

loop_
_atom_site_label
_atom_site_type_symbol
_atom_site_description
_atom_site_fract_x
_atom_site_fract_y
_atom_site_fract_z
_atom_type_partial_charge
Zn1   Zn    Zn3+2 0.500000 0.064990 0.224050 0.957712
Zn2   Zn    Zn3+2 0.500000 0.935010 0.775950 0.961608
Zn3   Zn    Zn3+2 0.935010 0.500000 0.224050 0.957297
Zn4   Zn    Zn3+2 0.064990 0.500000 0.775950 0.960989
Zn5   Zn    Zn3+2 0.500000 0.935010 0.224050 0.961635
Zn6   Zn    Zn3+2 0.500000 0.064990 0.775950 0.958881
Zn7   Zn    Zn3+2 0.064990 0.500000 0.224050 0.961407
Zn8   Zn    Zn3+2 0.935010 0.500000 0.775950 0.957565
Zn9   Zn    Zn3+2 0.000000 0.564990 0.724050 0.957725
Zn10  Zn    Zn3+2 0.000000 0.435010 0.275950 0.960909
Zn11  Zn    Zn3+2 0.435010 0.000000 0.724050 0.958690
Zn12  Zn    Zn3+2 0.564990 0.000000 0.275950 0.963314
Zn13  Zn    Zn3+2 0.000000 0.435010 0.724050 0.960819
Zn14  Zn    Zn3+2 1.000000 0.564990 0.275950 0.958177
Zn15  Zn    Zn3+2 0.564990 0.000000 0.724050 0.961767
Zn16  Zn    Zn3+2 0.435010 0.000000 0.275950 0.957686
C1    C     C_R   0.270945 0.229081 0.249974 0.036684
C2    C     C_R   0.728322 0.771697 0.749991 0.033668
C3    C     C_R   0.771271 0.271166 0.249854 0.034208
C4    C     C_R   0.228794 0.728721 0.749857 0.033947
C5    C     C_R   0.728369 0.771822 0.249976 0.038000
C6    C     C_R   0.270935 0.229056 0.750015 0.036600
C7    C     C_R   0.228763 0.728483 0.250109 0.033898
C8    C     C_R   0.771274 0.271166 0.750143 0.034130
C9    C     C_R   0.271434 0.771291 0.749890 0.033802
C10   C     C_R   0.728696 0.228524 0.249886 0.033715
C11   C     C_R   0.770949 0.729071 0.749991 0.036380
C12   C     C_R   0.228315 0.271730 0.249970 0.033991
C13   C     C_R   0.728700 0.228523 0.750110 0.033714
C14   C     C_R   0.271334 0.771135 0.250145 0.034122
C15   C     C_R   0.228298 0.271697 0.750015 0.034078
C16   C     C_R   0.770953 0.729125 0.249992 0.037497
O1    O     O_3   0.500000 0.000000 0.250000 -0.478887
O2    O     O_3   0.500000 0.000000 0.750000 -0.478417
O3    O     O_3   0.000000 0.500000 0.250000 -0.477922
O4    O     O_3   1.000000 0.500000 0.750000 -0.477759
O5    O     O_R   0.454480 0.000000 0.319300 -0.639776
O6    O     O_R   0.545520 0.000000 0.680700 -0.639959
O7    O     O_R   1.000000 0.454480 0.319300 -0.638400
O8    O     O_R   1.000000 0.545520 0.680700 -0.639952
O9    O     O_R   0.545520 0.000000 0.319300 -0.640311
O10   O     O_R   0.454480 0.000000 0.680700 -0.641613
O11   O     O_R   0.000000 0.545520 0.319300 -0.641830
O12   O     O_R   1.000000 0.454480 0.680700 -0.638781
O13   O     O_R   0.954480 0.500000 0.819300 -0.639954
O14   O     O_R   0.045520 0.500000 0.180700 -0.640445
O15   O     O_R   0.500000 0.954480 0.819300 -0.640007
O16   O     O_R   0.500000 0.045520 0.180700 -0.642081
O17   O     O_R   0.045520 0.500000 0.819300 -0.638779
O18   O     O_R   0.954480 0.500000 0.180700 -0.639698
O19   O     O_R   0.500000 0.045520 0.819300 -0.641552
O20   O     O_R   0.500000 0.954480 0.180700 -0.638009
O21   O     O_R   0.609440 0.064000 0.268180 -0.638351
O22   O     O_R   0.390560 0.936000 0.731820 -0.638887
O23   O     O_R   0.936000 0.609440 0.268180 -0.639569
O24   O     O_R   0.064000 0.390560 0.731820 -0.641576
O25   O     O_R   0.390560 0.936000 0.268180 -0.639353
O26   O     O_R   0.609440 0.064000 0.731820 -0.639924
O27   O     O_R   0.064000 0.390560 0.268180 -0.641884
O28   O     O_R   0.936000 0.609440 0.731820 -0.641454
O29   O     O_R   0.609440 0.936000 0.731820 -0.639995
O30   O     O_R   0.390560 0.064000 0.268180 -0.641784
O31   O     O_R   0.936000 0.390560 0.731820 -0.639384
O32   O     O_R   0.064000 0.609440 0.268180 -0.638932
O33   O     O_R   0.390560 0.064000 0.731820 -0.639824
O34   O     O_R   0.609440 0.936000 0.268180 -0.637161
O35   O     O_R   0.064000 0.609440 0.731820 -0.639351
O36   O     O_R   0.936000 0.390560 0.268180 -0.639372
O37   O     O_R   0.109440 0.564000 0.768180 -0.639334
O38   O     O_R   0.890560 0.436000 0.231820 -0.639418
O39   O     O_R   0.436000 0.109440 0.768180 -0.639839
O40   O     O_R   0.564000 0.890560 0.231820 -0.640620
O41   O     O_R   0.890560 0.436000 0.768180 -0.639368
O42   O     O_R   0.109440 0.564000 0.231820 -0.639818
O43   O     O_R   0.564000 0.890560 0.768180 -0.640044
O44   O     O_R   0.436000 0.109440 0.231820 -0.639401
O45   O     O_R   0.109440 0.436000 0.231820 -0.639744
O46   O     O_R   0.890560 0.564000 0.768180 -0.641458
O47   O     O_R   0.436000 0.890560 0.231820 -0.639206
O48   O     O_R   0.564000 0.109440 0.768180 -0.638855
O49   O     O_R   0.890560 0.564000 0.231820 -0.641858
O50   O     O_R   0.109440 0.436000 0.768180 -0.641505
O51   O     O_R   0.564000 0.109440 0.231820 -0.639393
O52   O     O_R   0.436000 0.890560 0.768180 -0.639989
C17   C     C_R   0.504679 0.998562 0.032401 0.141752
C18   C     C_R   0.504560 0.998569 0.967569 0.141899
C19   C     C_R   0.001713 0.496210 0.032414 0.142190
C20   C     C_R   0.001719 0.496135 0.967612 0.142114
C21   C     C_R   0.004579 0.498256 0.532387 0.142076
C22   C     C_R   0.004639 0.498301 0.467582 0.142160
C23   C     C_R   0.501370 0.996443 0.532434 0.141941
C24   C     C_R   0.501412 0.996504 0.467609 0.141871
C25   C     C_R   0.047410 0.477702 0.383754 0.135666
C26   C     C_R   0.957044 0.522581 0.615031 0.133105
C27   C     C_R   0.520994 0.952493 0.383891 0.136337
C28   C     C_R   0.480943 0.045076 0.615240 0.134153
C29   C     C_R   0.956763 0.521995 0.384942 0.133642
C30   C     C_R   0.046984 0.476857 0.616207 0.135647
C31   C     C_R   0.479708 0.044559 0.384799 0.133809
C32   C     C_R   0.519496 0.951843 0.616166 0.136103
C33   C     C_R   0.548590 0.980643 0.883722 0.136196
C34   C     C_R   0.455879 0.020186 0.115077 0.134447
C35   C     C_R   0.023134 0.453279 0.883869 0.135585
C36   C     C_R   0.978138 0.543645 0.115146 0.133537
C37   C     C_R   0.455266 0.018935 0.884874 0.134149
C38   C     C_R   0.548234 0.979586 0.116256 0.133057
C39   C     C_R   0.977461 0.543258 0.884889 0.133159
C40   C     C_R   0.022596 0.453064 0.116151 0.135642
C41   C     C_R   0.048040 0.476054 0.416602 0.176557
C42   C     C_R   0.958585 0.523150 0.582186 0.178205
C43   C     C_R   0.522287 0.951960 0.416752 0.177002
C44   C     C_R   0.480316 0.043917 0.582388 0.178830
C45   C     C_R   0.958337 0.522649 0.417784 0.178182
C46   C     C_R   0.047604 0.475272 0.583357 0.176376
C47   C     C_R   0.479226 0.043442 0.417655 0.178778
C48   C     C_R   0.520920 0.951310 0.583309 0.177240
C49   C     C_R   0.549391 0.979238 0.916579 0.177254
C50   C     C_R   0.457275 0.020642 0.082225 0.178687
C51   C     C_R   0.024726 0.452842 0.916720 0.176421
C52   C     C_R   0.977483 0.542281 0.082301 0.178327
C53   C     C_R   0.456662 0.019528 0.917726 0.178922
C54   C     C_R   0.549068 0.978277 0.083395 0.177653
C55   C     C_R   0.976885 0.541894 0.917735 0.178184
C56   C     C_R   0.024239 0.452649 0.083302 0.176431
C57   C     C_R   0.003675 0.498993 0.433410 -0.024392
C58   C     C_R   0.003589 0.498882 0.566558 -0.024147
C59   C     C_R   0.500986 0.997304 0.433426 -0.024819
C60   C     C_R   0.500880 0.997222 0.566621 -0.025034
C61   C     C_R   0.503539 0.999107 0.933381 -0.025068
C62   C     C_R   0.503679 0.999151 0.066586 -0.024555
C63   C     C_R   0.001128 0.496960 0.933441 -0.024157
C64   C     C_R   0.001157 0.497050 0.066586 -0.024378
C65   C     C_R   0.500022 0.999898 0.334025 0.844688
C66   C     C_R   0.500012 0.999894 0.665987 0.845147
C67   C     C_R   0.000153 0.499991 0.334027 0.844394
C68   C     C_R   0.000148 0.499983 0.665965 0.844122
C69   C     C_R   0.000018 0.499864 0.834034 0.844093
C70   C     C_R   0.000023 0.499882 0.165974 0.844426
C71   C     C_R   0.500118 0.999986 0.834015 0.845206
C72   C     C_R   0.500148 0.999994 0.165976 0.844201
C73   C     C_R   0.605036 0.105008 0.249991 0.819044
C74   C     C_R   0.394988 0.894954 0.749992 0.819201
C75   C     C_R   0.894840 0.605139 0.250006 0.816158
C76   C     C_R   0.104951 0.395046 0.750000 0.822827
C77   C     C_R   0.394952 0.894927 0.250009 0.818407
C78   C     C_R   0.605038 0.105006 0.750009 0.819396
C79   C     C_R   0.104945 0.395043 0.249997 0.822588
C80   C     C_R   0.894856 0.605144 0.749998 0.816793
C81   C     C_R   0.604957 0.895042 0.750001 0.821825
C82   C     C_R   0.394847 0.105137 0.249995 0.816570
C83   C     C_R   0.894944 0.394928 0.750005 0.818419
C84   C     C_R   0.105042 0.605007 0.250010 0.819416
C85   C     C_R   0.394856 0.105142 0.750002 0.816257
C86   C     C_R   0.604923 0.895048 0.250005 0.813623
C87   C     C_R   0.105064 0.605054 0.749995 0.818619
C88   C     C_R   0.894944 0.394927 0.249994 0.818424
C89   C     C_R   0.001436 0.499907 0.368204 -0.108575
C90   C     C_R   0.001401 0.499849 0.631773 -0.108616
C91   C     C_R   0.500173 0.998962 0.368207 -0.107725
C92   C     C_R   0.500112 0.998929 0.631826 -0.107213
C93   C     C_R   0.501328 0.999884 0.868176 -0.107199
C94   C     C_R   0.501415 0.999926 0.131800 -0.107227
C95   C     C_R   0.000154 0.498786 0.868225 -0.108559
C96   C     C_R   0.000184 0.498842 0.131794 -0.108605
C97   C     C_R   0.976143 0.457430 0.483789 -0.189339
C98   C     C_R   0.033382 0.538916 0.516184 -0.189814
C99   C     C_R   0.544325 0.021740 0.483852 -0.189611
C100  C     C_R   0.458589 0.970980 0.516189 -0.189936
C101  C     C_R   0.033404 0.538945 0.483820 -0.190141
C102  C     C_R   0.976105 0.457413 0.516150 -0.189500
C103  C     C_R   0.458619 0.970996 0.483820 -0.189587
C104  C     C_R   0.544314 0.021695 0.516220 -0.189499
C105  C     C_R   0.479697 0.955434 0.983816 -0.189472
C106  C     C_R   0.529861 0.041514 0.016158 -0.189917
C107  C     C_R   0.042525 0.524710 0.983822 -0.189525
C108  C     C_R   0.961081 0.467385 0.016203 -0.189821
C109  C     C_R   0.529790 0.041525 0.983786 -0.189904
C110  C     C_R   0.479743 0.955439 0.016184 -0.189292
C111  C     C_R   0.961089 0.467342 0.983840 -0.189839
C112  C     C_R   0.042528 0.524739 0.016182 -0.189700
H1    H     H_    0.953805 0.425963 0.471338 0.148381
H2    H     H_    0.055422 0.570588 0.528638 0.148244
H3    H     H_    0.577472 0.041543 0.471426 0.148306
H4    H     H_    0.425290 0.951432 0.528615 0.148276
H5    H     H_    0.055457 0.570641 0.471393 0.148218
H6    H     H_    0.953744 0.425931 0.528575 0.148333
H7    H     H_    0.425346 0.951457 0.471369 0.148256
H8    H     H_    0.577449 0.041471 0.528669 0.148392
H9    H     H_    0.460102 0.922161 0.971391 0.148360
H10   H     H_    0.549149 0.074962 0.028586 0.148166
H11   H     H_    0.073983 0.547064 0.971374 0.148327
H12   H     H_    0.929438 0.445294 0.028651 0.148303
H13   H     H_    0.549039 0.074973 0.971337 0.148264
H14   H     H_    0.460172 0.922176 0.028632 0.148366
H15   H     H_    0.929446 0.445226 0.971407 0.148260
H16   H     H_    0.073993 0.547110 0.028614 0.148286
C113  C     C_R   0.295701 0.213212 0.277845 -0.173686
C114  C     C_R   0.736739 0.820778 0.766190 -0.169923
C115  C     C_R   0.825062 0.258002 0.241460 -0.171185
C116  C     C_R   0.241776 0.675107 0.741009 -0.171033
C117  C     C_R   0.680548 0.764795 0.267518 -0.169232
C118  C     C_R   0.295726 0.213218 0.722147 -0.173460
C119  C     C_R   0.221964 0.694594 0.276044 -0.170442
C120  C     C_R   0.758075 0.324913 0.741662 -0.171432
C121  C     C_R   0.304865 0.778528 0.723806 -0.170555
C122  C     C_R   0.694759 0.221943 0.275816 -0.170469
C123  C     C_R   0.786265 0.703761 0.722182 -0.173497
C124  C     C_R   0.236087 0.320189 0.266868 -0.169797
C125  C     C_R   0.694828 0.221879 0.724159 -0.170509
C126  C     C_R   0.258182 0.824820 0.241509 -0.171408
C127  C     C_R   0.236065 0.320145 0.733108 -0.169735
C128  C     C_R   0.787483 0.705028 0.277925 -0.174262
C129  C     C_R   0.796251 0.713754 0.777802 -0.173488
C130  C     C_R   0.179852 0.263939 0.233087 -0.169865
C131  C     C_R   0.278654 0.804593 0.776027 -0.170623
C132  C     C_R   0.722081 0.194464 0.224008 -0.170682
C133  C     C_R   0.179847 0.263927 0.766915 -0.169731
C134  C     C_R   0.795006 0.712518 0.222062 -0.174162
C135  C     C_R   0.722025 0.194522 0.776009 -0.170430
C136  C     C_R   0.325052 0.758069 0.258745 -0.171120
C137  C     C_R   0.758057 0.324928 0.258294 -0.171495
C138  C     C_R   0.175218 0.741756 0.758753 -0.171265
C139  C     C_R   0.286789 0.204273 0.222111 -0.173457
C140  C     C_R   0.679242 0.763271 0.733797 -0.169914
C141  C     C_R   0.194994 0.721739 0.224122 -0.170547
C142  C     C_R   0.825049 0.258018 0.758578 -0.171178
C143  C     C_R   0.735521 0.819555 0.232367 -0.186032
C144  C     C_R   0.286780 0.204253 0.777879 -0.173471
H17   H     H_    0.282871 0.232133 0.299418 0.143665
H18   H     H_    0.774979 0.827386 0.778443 0.143577
H19   H     H_    0.835076 0.216169 0.235179 0.144899
H20   H     H_    0.283470 0.665227 0.734374 0.144935
H21   H     H_    0.674783 0.727544 0.280838 0.142816
H22   H     H_    0.282912 0.232150 0.700574 0.143667
H23   H     H_    0.248041 0.700268 0.296165 0.144488
H24   H     H_    0.716242 0.334861 0.735352 0.144944
H25   H     H_    0.298816 0.752796 0.703574 0.144587
H26   H     H_    0.700404 0.248180 0.295874 0.144634
H27   H     H_    0.766905 0.716170 0.700653 0.143907
H28   H     H_    0.273856 0.326366 0.279647 0.143433
H29   H     H_    0.700522 0.248069 0.704084 0.144623
H30   H     H_    0.216394 0.834715 0.235078 0.144876
H31   H     H_    0.273830 0.326317 0.720324 0.143306
H32   H     H_    0.769142 0.718423 0.299548 0.143526
H33   H     H_    0.783841 0.733116 0.799329 0.143902
H34   H     H_    0.173676 0.226164 0.220311 0.143199
H35   H     H_    0.252895 0.798458 0.796239 0.144656
H36   H     H_    0.748291 0.200015 0.203931 0.144516
H37   H     H_    0.173675 0.226161 0.779702 0.143301
H38   H     H_    0.781633 0.730856 0.200433 0.143173
H39   H     H_    0.748189 0.200120 0.796101 0.144547
H40   H     H_    0.335024 0.716300 0.265184 0.144898
H41   H     H_    0.716212 0.334889 0.264571 0.144940
H42   H     H_    0.165397 0.783467 0.765390 0.144938
H43   H     H_    0.267875 0.217088 0.200534 0.143707
H44   H     H_    0.672641 0.725029 0.721541 0.143573
H45   H     H_    0.200780 0.747839 0.204019 0.144573
H46   H     H_    0.835051 0.216196 0.764891 0.144935
H47   H     H_    0.772771 0.825312 0.219027 0.150018
H48   H     H_    0.267852 0.217057 0.799455 0.143664
C145  C     C_R   0.336181 0.172691 0.278232 0.151472
C146  C     C_R   0.696569 0.861610 0.766341 0.150768
C147  C     C_R   0.866074 0.298081 0.241582 0.151459
C148  C     C_R   0.201701 0.634092 0.741130 0.151396
C149  C     C_R   0.639823 0.805044 0.267661 0.147404
C150  C     C_R   0.336235 0.172726 0.721766 0.152007
C151  C     C_R   0.181382 0.654080 0.276367 0.148571
C152  C     C_R   0.798137 0.365939 0.741658 0.146915
C153  C     C_R   0.345395 0.819091 0.723481 0.148800
C154  C     C_R   0.654236 0.181387 0.276221 0.149564
C155  C     C_R   0.826815 0.663300 0.721804 0.151046
C156  C     C_R   0.195876 0.360975 0.267062 0.151105
C157  C     C_R   0.654307 0.181319 0.723754 0.149798
C158  C     C_R   0.298232 0.865855 0.241502 0.146961
C159  C     C_R   0.195865 0.360935 0.732917 0.150071
C160  C     C_R   0.827922 0.664470 0.278309 0.151772
C161  C     C_R   0.836704 0.673198 0.778184 0.151062
C162  C     C_R   0.139045 0.304121 0.232920 0.150085
C163  C     C_R   0.319232 0.845095 0.776436 0.149615
C164  C     C_R   0.681516 0.153934 0.223687 0.149671
C165  C     C_R   0.139051 0.304123 0.767089 0.150199
C166  C     C_R   0.835498 0.672021 0.221687 0.151393
C167  C     C_R   0.681462 0.153990 0.776331 0.148957
C168  C     C_R   0.366047 0.798168 0.258639 0.151467
C169  C     C_R   0.798120 0.365953 0.258300 0.146849
C170  C     C_R   0.134198 0.701688 0.758760 0.147157
C171  C     C_R   0.327269 0.163748 0.221742 0.151873
C172  C     C_R   0.638401 0.803431 0.733656 0.150709
C173  C     C_R   0.154450 0.681203 0.223721 0.149530
C174  C     C_R   0.866060 0.298098 0.758458 0.151446
C175  C     C_R   0.695414 0.860367 0.232012 0.152606
C176  C     C_R   0.327275 0.163744 0.778254 0.151983
C177  C     C_R   0.352279 0.147680 0.249989 -0.024900
C178  C     C_R   0.647198 0.852801 0.750001 -0.006875
C179  C     C_R   0.852529 0.352460 0.249966 -0.016042
C180  C     C_R   0.147515 0.647465 0.749966 -0.015342
C181  C     C_R   0.647296 0.853044 0.249835 0.004174
C182  C     C_R   0.352301 0.147692 0.750007 -0.024351
C183  C     C_R   0.147480 0.647315 0.250039 -0.012306
C184  C     C_R   0.852529 0.352462 0.750034 -0.015980
C185  C     C_R   0.352664 0.852519 0.749968 -0.012870
C186  C     C_R   0.647458 0.147323 0.249962 -0.011233
C187  C     C_R   0.852302 0.647702 0.749995 -0.024705
C188  C     C_R   0.147177 0.352817 0.249996 -0.006555
C189  C     C_R   0.647462 0.147319 0.750035 -0.012179
C190  C     C_R   0.352557 0.852456 0.250045 -0.015688
C191  C     C_R   0.147180 0.352808 0.750001 -0.006760
C192  C     C_R   0.852270 0.647694 0.250002 -0.025797
C193  C     C_3   0.095438 0.456622 0.364637 -0.882102
H49   H     H_    0.108805 0.488661 0.347940 0.219834
H50   H     H_    0.132116 0.445761 0.378379 0.244723
H51   H     H_    0.082863 0.419465 0.351582 0.255749
C194  C     C_3   0.908517 0.545693 0.632889 -0.882983
H52   H     H_    0.893234 0.514793 0.649741 0.219857
H53   H     H_    0.921572 0.582973 0.645633 0.255883
H54   H     H_    0.873013 0.557102 0.618327 0.246119
C195  C     C_3   0.541014 0.903888 0.364875 -0.884534
H55   H     H_    0.508522 0.890862 0.348379 0.219665
H56   H     H_    0.578145 0.915738 0.351581 0.254508
H57   H     H_    0.551619 0.867218 0.378685 0.245280
C196  C     C_3   0.461722 0.095027 0.633325 -0.890193
H58   H     H_    0.494281 0.108302 0.649715 0.222711
H59   H     H_    0.451838 0.131130 0.618876 0.247706
H60   H     H_    0.424309 0.084382 0.646650 0.254197
C197  C     C_3   0.907893 0.544357 0.367075 -0.885233
H61   H     H_    0.892971 0.513132 0.350312 0.219958
H62   H     H_    0.872289 0.555415 0.381646 0.246426
H63   H     H_    0.920422 0.581701 0.354217 0.255971
C198  C     C_3   0.094631 0.454852 0.635298 -0.880121
H64   H     H_    0.108449 0.486497 0.652114 0.218058
H65   H     H_    0.081457 0.417746 0.648211 0.256464
H66   H     H_    0.131183 0.443578 0.621557 0.244140
C199  C     C_3   0.459024 0.093941 0.366729 -0.887918
H67   H     H_    0.491043 0.107998 0.350206 0.222013
H68   H     H_    0.421730 0.082303 0.353568 0.255047
H69   H     H_    0.448382 0.129835 0.381168 0.247199
C200  C     C_3   0.537851 0.902631 0.635219 -0.886640
H70   H     H_    0.504727 0.890473 0.651528 0.221545
H71   H     H_    0.547655 0.865736 0.621409 0.245930
H72   H     H_    0.575063 0.913401 0.648734 0.253422
C201  C     C_3   0.597702 0.962423 0.864548 -0.886719
H73   H     H_    0.609659 0.995595 0.848221 0.221678
H74   H     H_    0.634718 0.952684 0.878265 0.245930
H75   H     H_    0.586921 0.925196 0.851046 0.253304
C202  C     C_3   0.406295 0.040751 0.133010 -0.888040
H76   H     H_    0.392170 0.008695 0.149489 0.220882
H77   H     H_    0.417730 0.078065 0.146215 0.254797
H78   H     H_    0.370508 0.051331 0.118473 0.247090
C203  C     C_3   0.045120 0.405521 0.864861 -0.880245
H79   H     H_    0.056401 0.369044 0.878667 0.244195
H80   H     H_    0.013463 0.391611 0.848077 0.218106
H81   H     H_    0.082212 0.418623 0.851915 0.256439
C204  C     C_3   0.955885 0.592452 0.133113 -0.885596
H82   H     H_    0.944859 0.628157 0.118610 0.246546
H83   H     H_    0.918548 0.579907 0.145967 0.256109
H84   H     H_    0.987168 0.607232 0.149883 0.221117
C205  C     C_3   0.405147 0.038053 0.866904 -0.890489
H85   H     H_    0.391782 0.005429 0.850577 0.222769
H86   H     H_    0.369157 0.047942 0.881438 0.247764
H87   H     H_    0.415630 0.075445 0.853514 0.254053
C206  C     C_3   0.596904 0.960183 0.135427 -0.879306
H88   H     H_    0.609509 0.992951 0.151858 0.220841
H89   H     H_    0.585336 0.923055 0.148807 0.256471
H90   H     H_    0.633753 0.949802 0.121718 0.244046
C207  C     C_3   0.954391 0.591712 0.866947 -0.883002
H91   H     H_    0.985291 0.606868 0.850060 0.219825
H92   H     H_    0.917091 0.578620 0.854240 0.255922
H93   H     H_    0.943036 0.627315 0.881447 0.246113
C208  C     C_3   0.043971 0.405035 0.135164 -0.881306
H94   H     H_    0.012079 0.391439 0.151887 0.218452
H95   H     H_    0.054935 0.368468 0.121353 0.244475
H96   H     H_    0.081127 0.417720 0.148185 0.255947
C209  C     C_3   0.095756 0.449223 0.433422 -0.896169
H97   H     H_    0.133730 0.473309 0.429411 0.239268
H98   H     H_    0.090303 0.445866 0.458862 0.245879
H99   H     H_    0.101327 0.406710 0.424777 0.245700
C210  C     C_3   0.912437 0.550212 0.564109 -0.896706
H100  H     H_    0.919368 0.552347 0.538744 0.245949
H101  H     H_    0.873751 0.527091 0.567734 0.239449
H102  H     H_    0.907280 0.593197 0.572060 0.244899
C211  C     C_3   0.546856 0.903206 0.433732 -0.895726
H103  H     H_    0.549297 0.908203 0.459233 0.245801
H104  H     H_    0.521698 0.866090 0.429274 0.239774
H105  H     H_    0.589489 0.896330 0.425601 0.245089
C212  C     C_3   0.457167 0.092315 0.564460 -0.896436
H106  H     H_    0.483096 0.129067 0.568447 0.239883
H107  H     H_    0.454976 0.086038 0.539043 0.245825
H108  H     H_    0.414572 0.100582 0.572227 0.244523
C213  C     C_3   0.911883 0.549183 0.435858 -0.896776
H109  H     H_    0.873498 0.525527 0.432309 0.239518
H110  H     H_    0.918881 0.551569 0.461210 0.245956
H111  H     H_    0.906127 0.592052 0.427839 0.244856
C214  C     C_3   0.094954 0.447827 0.566519 -0.896093
H112  H     H_    0.089535 0.444729 0.541066 0.245905
H113  H     H_    0.133274 0.471315 0.570604 0.239306
H114  H     H_    0.099862 0.405181 0.575084 0.245628
C215  C     C_3   0.455032 0.091320 0.435590 -0.896349
H115  H     H_    0.453320 0.085151 0.461027 0.245818
H116  H     H_    0.479972 0.128701 0.431459 0.239837
H117  H     H_    0.412156 0.098456 0.427957 0.244492
C216  C     C_3   0.544352 0.901978 0.566356 -0.895887
H118  H     H_    0.518141 0.865540 0.570664 0.239709
H119  H     H_    0.547281 0.907052 0.540875 0.245778
H120  H     H_    0.586680 0.893906 0.574641 0.245205
C217  C     C_3   0.598948 0.956016 0.933412 -0.895973
H121  H     H_    0.635255 0.982338 0.928975 0.239735
H122  H     H_    0.594120 0.953152 0.958910 0.245779
H123  H     H_    0.607085 0.913688 0.925142 0.245157
C218  C     C_3   0.409399 0.044520 0.064152 -0.896393
H124  H     H_    0.415723 0.046162 0.038726 0.245869
H125  H     H_    0.372121 0.019404 0.068236 0.239971
H126  H     H_    0.401995 0.087393 0.071711 0.244357
C219  C     C_3   0.052167 0.405579 0.933642 -0.896087
H127  H     H_    0.055283 0.411145 0.959083 0.245889
H128  H     H_    0.028670 0.367237 0.929630 0.239318
H129  H     H_    0.094803 0.400611 0.925079 0.245626
C220  C     C_3   0.950929 0.588840 0.064322 -0.896923
H130  H     H_    0.974590 0.627206 0.067928 0.239418
H131  H     H_    0.948511 0.581979 0.038958 0.245930
H132  H     H_    0.908076 0.594556 0.072371 0.244935
C221  C     C_3   0.408306 0.042466 0.935773 -0.896372
H133  H     H_    0.371609 0.016445 0.931820 0.239926
H134  H     H_    0.414718 0.044564 0.961181 0.245787
H135  H     H_    0.399873 0.085072 0.928076 0.244470
C222  C     C_3   0.598190 0.954152 0.066561 -0.896630
H136  H     H_    0.593432 0.951650 0.041046 0.245880
H137  H     H_    0.635027 0.979663 0.071115 0.239615
H138  H     H_    0.605395 0.911590 0.074725 0.244891
C223  C     C_3   0.949834 0.588150 0.935730 -0.896808
H139  H     H_    0.906864 0.593295 0.927756 0.244914
H140  H     H_    0.947668 0.581341 0.961105 0.245969
H141  H     H_    0.972980 0.626808 0.932052 0.239423
C224  C     C_3   0.051216 0.405120 0.066384 -0.896143
H142  H     H_    0.093757 0.399653 0.075000 0.245606
H143  H     H_    0.027275 0.367034 0.070335 0.239345
H144  H     H_    0.054523 0.410726 0.040952 0.245918
C225  C     C_3   0.362335 0.157676 0.308804 -0.905337
H145  H     H_    0.407582 0.161686 0.307112 0.231212
H146  H     H_    0.348216 0.184690 0.327956 0.234145
H147  H     H_    0.351400 0.114926 0.315046 0.262704
C226  C     C_3   0.706554 0.913945 0.784119 -0.927758
H148  H     H_    0.705455 0.949459 0.768009 0.250478
H149  H     H_    0.674381 0.919196 0.802116 0.235998
H150  H     H_    0.747057 0.913776 0.795895 0.241575
C227  C     C_3   0.923552 0.282461 0.232205 -0.913736
H151  H     H_    0.951811 0.288056 0.252143 0.260251
H152  H     H_    0.926105 0.238960 0.224734 0.238225
H153  H     H_    0.937324 0.308494 0.212539 0.229398
C228  C     C_3   0.217098 0.576789 0.731303 -0.914479
H154  H     H_    0.211778 0.548146 0.751093 0.259585
H155  H     H_    0.190721 0.563432 0.711691 0.229577
H156  H     H_    0.260470 0.574339 0.723589 0.238580
C229  C     C_3   0.588861 0.796467 0.286902 -0.931089
H157  H     H_    0.552228 0.796481 0.271625 0.249015
H158  H     H_    0.589857 0.756849 0.299596 0.242827
H159  H     H_    0.584961 0.829929 0.304239 0.239235
C230  C     C_3   0.362487 0.157801 0.691204 -0.905464
H160  H     H_    0.407721 0.161910 0.692934 0.230829
H161  H     H_    0.351673 0.115034 0.684929 0.263218
H162  H     H_    0.348357 0.184813 0.672053 0.234136
C231  C     C_3   0.175424 0.617871 0.304565 -0.913740
H163  H     H_    0.134324 0.623702 0.315100 0.259103
H164  H     H_    0.180424 0.574235 0.297789 0.229272
H165  H     H_    0.206662 0.627480 0.322524 0.238380
C232  C     C_3   0.782530 0.423309 0.732040 -0.904144
H166  H     H_    0.788339 0.451939 0.751792 0.262406
H167  H     H_    0.808422 0.436688 0.712229 0.226179
H168  H     H_    0.738974 0.425793 0.724668 0.236131
C233  C     C_3   0.381103 0.825504 0.695110 -0.913425
H169  H     H_    0.424859 0.820443 0.701612 0.229078
H170  H     H_    0.371210 0.794524 0.677057 0.238211
H171  H     H_    0.375050 0.866750 0.684797 0.259651
C234  C     C_3   0.618083 0.175581 0.304447 -0.914451
H172  H     H_    0.623920 0.134525 0.315041 0.259293
H173  H     H_    0.627737 0.206902 0.322354 0.238235
H174  H     H_    0.574445 0.180562 0.297690 0.228300
C235  C     C_3   0.841418 0.636666 0.691306 -0.905221
H175  H     H_    0.837468 0.591439 0.693241 0.231416
H176  H     H_    0.814158 0.650488 0.672197 0.234334
H177  H     H_    0.884078 0.647535 0.684853 0.262188
C236  C     C_3   0.205118 0.412597 0.285619 -0.929307
H178  H     H_    0.204510 0.448744 0.269960 0.249111
H179  H     H_    0.172299 0.417058 0.303305 0.237224
H180  H     H_    0.245190 0.412014 0.297852 0.241900
C237  C     C_3   0.618226 0.175444 0.695502 -0.914652
H181  H     H_    0.574569 0.180429 0.702218 0.228345
H182  H     H_    0.627919 0.206727 0.677580 0.238238
H183  H     H_    0.624100 0.134366 0.684941 0.259265
C238  C     C_3   0.282691 0.923153 0.231713 -0.904619
H184  H     H_    0.288404 0.951934 0.251404 0.262238
H185  H     H_    0.308698 0.936369 0.211915 0.226284
H186  H     H_    0.239177 0.925588 0.224258 0.236230
C239  C     C_3   0.205135 0.412558 0.714378 -0.930472
H187  H     H_    0.204576 0.448618 0.730077 0.249848
H188  H     H_    0.245201 0.411986 0.702138 0.242738
H189  H     H_    0.172296 0.417106 0.696711 0.238201
C240  C     C_3   0.843508 0.638947 0.308963 -0.903302
H190  H     H_    0.839517 0.593660 0.307588 0.231424
H191  H     H_    0.886341 0.650065 0.314901 0.263226
H192  H     H_    0.816813 0.653412 0.328175 0.233556
C241  C     C_3   0.863321 0.658590 0.808685 -0.905383
H193  H     H_    0.908546 0.662524 0.806754 0.231540
H194  H     H_    0.849505 0.685860 0.827791 0.234350
H195  H     H_    0.852432 0.615931 0.815138 0.262159
C242  C     C_3   0.087388 0.294813 0.214420 -0.930799
H196  H     H_    0.051366 0.295351 0.230146 0.250023
H197  H     H_    0.082779 0.327646 0.196753 0.238196
H198  H     H_    0.087957 0.254740 0.202184 0.242707
C243  C     C_3   0.325694 0.880560 0.804900 -0.913316
H199  H     H_    0.320687 0.924375 0.798515 0.227935
H200  H     H_    0.294714 0.870555 0.822932 0.237887
H201  H     H_    0.366933 0.874365 0.815190 0.259904
C244  C     C_3   0.675728 0.117553 0.195550 -0.915099
H202  H     H_    0.680727 0.073961 0.202417 0.229380
H203  H     H_    0.634675 0.123285 0.184939 0.258783
H204  H     H_    0.707048 0.127083 0.177622 0.238549
C245  C     C_3   0.087414 0.294843 0.785612 -0.930767
H205  H     H_    0.051373 0.295387 0.769900 0.250011
H206  H     H_    0.087985 0.254777 0.797856 0.242753
H207  H     H_    0.082840 0.327688 0.803273 0.238159
C246  C     C_3   0.860944 0.656343 0.191028 -0.903842
H208  H     H_    0.906235 0.660264 0.192376 0.231446
H209  H     H_    0.849744 0.613515 0.185120 0.262951
H210  H     H_    0.846493 0.683031 0.171808 0.233498
C247  C     C_3   0.675620 0.117664 0.804489 -0.914796
H211  H     H_    0.680636 0.074058 0.797654 0.229494
H212  H     H_    0.706904 0.127229 0.822430 0.238582
H213  H     H_    0.634547 0.123414 0.815072 0.259001
C248  C     C_3   0.423438 0.782688 0.268265 -0.913850
H214  H     H_    0.451949 0.788225 0.248436 0.260334
H215  H     H_    0.436925 0.808854 0.287938 0.229153
H216  H     H_    0.425963 0.739232 0.275826 0.238332
C249  C     C_3   0.782493 0.423339 0.267875 -0.903962
H217  H     H_    0.808354 0.436755 0.287690 0.226211
H218  H     H_    0.788325 0.451933 0.248109 0.262392
H219  H     H_    0.738927 0.425830 0.275227 0.236077
C250  C     C_3   0.077011 0.717077 0.768812 -0.905535
H220  H     H_    0.048000 0.711488 0.749217 0.261945
H221  H     H_    0.064064 0.690875 0.788588 0.226375
H222  H     H_    0.074617 0.760528 0.776397 0.236490
C251  C     C_3   0.342216 0.137486 0.191187 -0.904919
H223  H     H_    0.338142 0.092244 0.192923 0.231251
H224  H     H_    0.315204 0.151592 0.172032 0.234033
H225  H     H_    0.384972 0.148335 0.184920 0.263047
C252  C     C_3   0.586069 0.793437 0.715880 -0.927633
H226  H     H_    0.550563 0.794520 0.731994 0.250514
H227  H     H_    0.580805 0.825618 0.697886 0.235951
H228  H     H_    0.586246 0.752934 0.704100 0.241547
C253  C     C_3   0.118474 0.675244 0.195433 -0.913878
H229  H     H_    0.074794 0.680258 0.202094 0.228226
H230  H     H_    0.128236 0.706472 0.177491 0.238039
H231  H     H_    0.124384 0.634135 0.184920 0.259415
C254  C     C_3   0.923522 0.282497 0.767874 -0.913704
H232  H     H_    0.951816 0.288071 0.747950 0.260191
H233  H     H_    0.937257 0.308558 0.787536 0.229398
H234  H     H_    0.926067 0.239005 0.775366 0.238302
C255  C     C_3   0.705686 0.910463 0.212249 -0.920365
H235  H     H_    0.671685 0.940536 0.212908 0.229320
H236  H     H_    0.743458 0.931469 0.220359 0.247417
H237  H     H_    0.711471 0.897813 0.187701 0.241655
C256  C     C_3   0.342207 0.137469 0.808811 -0.905266
H238  H     H_    0.338090 0.092233 0.807074 0.230722
H239  H     H_    0.384975 0.148267 0.815086 0.263246
H240  H     H_    0.315205 0.151596 0.827965 0.234101

loop_
_geom_bond_atom_site_label_1
_geom_bond_atom_site_label_2
_geom_bond_distance
_ccdc_geom_bond_type
C77   C190  1.463338 S    
Zn4   O4    1.940024 S    
C131  H35   1.084029 S    
C205  H85   1.110817 S    
O25   C77   1.276089 A    
C150  C182  1.416649 A    
C254  H232  1.109671 S    
C155  C187  1.416519 A    
C200  H70   1.110902 S    
C111  H15   1.083103 S    
C225  H145  1.110586 S    
C234  H174  1.110533 S    
C19   C108  1.401238 A    
C40   C96   1.414759 A    
C146  C226  1.508436 S    
C158  C190  1.414193 A    
C56   C224  1.520013 S    
C20   C107  1.401190 A    
C109  H13   1.083126 S    
O32   C84   1.275608 A    
C255  H235  1.108365 S    
C159  C239  1.508113 S    
C30   C46   1.415601 A    
C80   C187  1.469055 S    
C169  C249  1.508842 S    
C232  H168  1.110837 S    
C230  H160  1.110593 S    
C115  H19   1.083978 S    
Zn8   O13   1.926721 S    
C236  H179  1.110644 S    
C210  H102  1.110464 S    
C176  C182  1.416672 A    
C108  C111  1.393988 A    
C86   C181  1.456388 S    
C228  H155  1.110668 S    
C154  C234  1.508670 S    
C1    C113  1.398709 A    
C172  C178  1.411391 A    
C53   C221  1.520098 S    
O45   C79   1.274027 A    
C112  H16   1.083105 S    
O46   C80   1.277337 A    
C208  H96   1.109768 S    
Zn2   O2    1.939882 S    
O48   C78   1.275553 A    
C219  H128  1.110126 S    
C134  H38   1.083868 S    
C10   C122  1.399470 A    
C117  C149  1.397681 A    
C40   C56   1.415500 A    
Zn4   O37   1.929405 S    
C204  H83   1.108826 S    
C120  C152  1.398294 A    
Zn6   O39   1.931229 S    
C5    C143  1.400517 A    
C206  H90   1.105265 S    
C156  C236  1.508411 S    
O40   C86   1.273686 A    
C5    C117  1.400440 A    
C126  H30   1.083977 S    
C162  C242  1.508144 S    
C209  H99   1.110466 S    
C245  H206  1.110760 S    
C157  C237  1.508706 S    
C226  H150  1.110815 S    
C161  C241  1.508386 S    
C233  H169  1.110724 S    
Zn12  O34   1.931183 S    
C170  C250  1.508747 S    
C81   C178  1.458150 S    
C250  H222  1.110849 S    
C155  C235  1.508428 S    
C195  H57   1.105255 S    
C126  C158  1.398243 A    
C11   C129  1.398622 A    
C118  H22   1.083889 S    
O8    C68   1.279484 A    
C23   C100  1.401334 A    
Zn6   O48   1.929466 S    
Zn13  O31   1.929466 S    
O52   C74   1.275426 A    
C237  H182  1.110820 S    
C224  H144  1.106861 S    
Zn14  O32   1.929466 S    
C169  C179  1.414325 A    
Zn15  O29   1.931169 S    
C170  C180  1.414134 A    
C122  H26   1.083972 S    
C202  H78   1.105225 S    
C137  C169  1.398283 A    
C106  C109  1.394363 A    
C205  H87   1.108931 S    
C249  H218  1.109765 S    
C22   C97   1.401243 A    
C213  H109  1.110150 S    
C12   C124  1.401065 A    
C230  H162  1.110851 S    
C207  H93   1.105336 S    
C27   C195  1.522105 S    
C29   C197  1.520843 S    
C200  H72   1.109861 S    
C140  H44   1.083851 S    
C20   C111  1.401199 A    
C14   C136  1.399087 A    
C199  H69   1.105235 S    
O30   C82   1.277282 A    
C36   C96   1.413982 A    
O18   C70   1.279482 A    
Zn1   O16   1.926723 S    
Zn10  O36   1.929478 S    
Zn2   O15   1.926723 S    
C132  H36   1.083958 S    
C214  H112  1.106853 S    
Zn4   O17   1.926719 S    
C26   C194  1.520801 S    
C87   C180  1.463277 S    
O10   C66   1.278977 A    
C18   C105  1.401346 A    
C215  H116  1.110175 S    
C250  H220  1.109856 S    
C33   C49   1.415802 A    
C120  H24   1.083985 S    
C207  H91   1.110687 S    
C39   C207  1.520773 S    
C245  H205  1.109726 S    
C174  C254  1.508652 S    
C55   C223  1.520326 S    
O6    C66   1.278444 A    
C227  H151  1.109662 S    
C150  C230  1.508725 S    
C235  H176  1.110844 S    
C196  H58   1.110811 S    
C45   C213  1.520271 S    
O28   C80   1.277330 A    
C34   C202  1.520908 S    
C240  H191  1.109305 S    
C218  H124  1.106730 S    
C217  H121  1.110180 S    
O29   C81   1.274137 A    
Zn13  O12   1.926696 S    
C16   C134  1.398686 A    
Zn2   O43   1.931239 S    
Zn14  O11   1.926696 S    
C212  H107  1.106755 S    
O27   C79   1.274037 A    
C66   C92   1.471633 S    
C203  H79   1.105357 S    
C67   C89   1.472466 S    
O17   C69   1.278780 A    
C98   H2    1.083118 S    
C163  C243  1.508770 S    
C54   C222  1.519891 S    
C36   C52   1.415227 A    
C156  C188  1.411112 A    
O9    C65   1.278498 A    
C216  H118  1.110167 S    
C158  C238  1.508832 S    
C223  H139  1.110454 S    
C251  H223  1.110618 S    
C52   C220  1.520229 S    
C27   C91   1.414480 A    
O35   C87   1.276055 A    
Zn5   O40   1.931229 S    
C46   C58   1.417692 A    
C194  H53   1.108768 S    
C6    C144  1.398784 A    
C72   C94   1.472384 S    
C175  C255  1.510117 S    
C56   C64   1.417801 A    
C195  H56   1.109802 S    
C153  C233  1.508850 S    
C197  H62   1.105341 S    
C84   C183  1.461270 S    
C4    C116  1.399036 A    
O33   C85   1.277343 A    
C168  C190  1.414331 A    
C100  C103  1.394263 A    
C123  C155  1.398363 A    
C78   C189  1.461124 S    
C17   C110  1.401290 A    
C124  C156  1.398083 A    
Zn5   O1    1.939937 S    
Zn3   O49   1.931183 S    
Zn9   O4    1.939882 S    
C51   C63   1.417727 A    
C151  C183  1.413258 A    
Zn10  O3    1.939882 S    
O44   C82   1.277417 A    
Zn5   O47   1.929466 S    
C49   C61   1.418216 A    
Zn12  O21   1.929405 S    
C76   C191  1.457901 S    
Zn7   O45   1.931169 S    
Zn13  O24   1.931229 S    
C68   C90   1.473068 S    
Zn14  O23   1.931229 S    
C36   C204  1.520806 S    
C241  H193  1.110602 S    
C198  H65   1.109740 S    
C133  H37   1.083783 S    
C220  H131  1.106808 S    
Zn3   O18   1.926719 S    
C17   C106  1.401328 A    
C193  H50   1.105367 S    
C160  C240  1.508724 S    
C214  H114  1.110464 S    
C137  H41   1.083978 S    
C242  H197  1.110608 S    
O23   C75   1.277529 A    
O16   C72   1.279007 A    
C41   C209  1.519954 S    
C173  C183  1.413188 A    
Zn7   O14   1.926721 S    
C9    C131  1.399401 A    
Zn3   O38   1.929405 S    
C174  C184  1.414409 A    
O50   C76   1.274084 A    
C217  H123  1.110446 S    
C125  H29   1.083978 S    
O51   C73   1.275515 A    
C225  H146  1.110860 S    
C256  H239  1.109383 S    
C164  C244  1.508769 S    
C176  C256  1.508780 S    
C171  C177  1.416642 A    
C244  H203  1.109960 S    
C227  H153  1.110588 S    
O11   C67   1.279099 A    
Zn9   O35   1.929478 S    
C237  H181  1.110547 S    
C1    C139  1.398777 A    
C166  C192  1.416883 A    
C246  H209  1.109319 S    
C130  C162  1.397960 A    
Zn3   O3    1.940028 S    
C196  H60   1.108879 S    
C38   C54   1.415933 A    
C236  H178  1.110336 S    
C35   C203  1.522158 S    
C218  H126  1.110440 S    
C129  H33   1.083944 S    
C238  H185  1.110569 S    
Zn11  O22   1.929405 S    
C42   C58   1.417991 A    
C39   C95   1.414256 A    
C221  H135  1.110441 S    
C141  C173  1.398157 A    
Zn15  O26   1.929422 S    
C37   C93   1.413306 A    
C239  H189  1.110623 S    
C203  H80   1.110777 S    
C24   C59   1.472564 S    
C216  H120  1.110438 S    
C50   C218  1.520236 S    
C211  H104  1.110165 S    
C231  H165  1.110820 S    
C88   C179  1.463601 S    
C140  C172  1.398158 A    
Zn1   O44   1.931239 S    
C37   C205  1.520880 S    
C43   C211  1.519990 S    
C144  H48   1.083887 S    
C13   C125  1.399473 A    
C107  C112  1.393902 A    
C113  H17   1.083889 S    
C203  H81   1.109741 S    
C116  H20   1.084024 S    
C3    C115  1.398977 A    
C252  H228  1.110817 S    
C247  H212  1.110810 S    
Zn12  O1    1.940024 S    
C152  C184  1.414311 A    
C215  H115  1.106743 S    
C153  C185  1.413452 A    
C105  C110  1.394229 A    
O43   C81   1.274157 A    
C22   C101  1.401271 A    
C252  H227  1.110734 S    
C21   C98   1.401238 A    
C210  H101  1.110148 S    
C159  C191  1.411124 A    
C205  H86   1.105259 S    
C256  H238  1.110593 S    
C241  H195  1.109195 S    
C147  C179  1.414418 A    
C20   C63   1.472038 S    
C15   C133  1.400998 A    
C239  H187  1.109693 S    
C25   C41   1.415536 A    
C208  H95   1.105373 S    
O19   C71   1.278942 A    
O12   C68   1.278732 A    
C219  H127  1.106860 S    
C254  H233  1.110594 S    
Zn2   O52   1.929478 S    
C246  H210  1.110862 S    
C32   C48   1.415753 A    
C39   C55   1.415239 A    
C142  H46   1.083982 S    
C204  H82   1.105338 S    
O7    C67   1.278763 A    
C206  H89   1.109810 S    
C221  H133  1.110192 S    
C69   C95   1.472985 S    
C199  H67   1.110804 S    
C152  C232  1.508837 S    
C251  H225  1.109331 S    
C145  C177  1.416673 A    
C209  H98   1.106864 S    
C31   C47   1.415529 A    
C243  H199  1.110581 S    
C226  H149  1.110733 S    
C4    C9    1.469269 S    
C248  H216  1.110805 S    
Zn11  O10   1.926719 S    
C10   C132  1.399541 A    
Zn8   O4    1.940020 S    
C229  H158  1.110763 S    
C3    C10   1.469393 S    
C8    C13   1.469383 S    
C113  C145  1.398204 A    
C7    C141  1.399476 A    
C19   C112  1.401230 A    
C167  C189  1.413230 A    
C8    C120  1.399047 A    
C30   C90   1.415050 A    
C224  H143  1.110130 S    
C2    C114  1.400837 A    
C146  C178  1.411391 A    
C202  H77   1.108864 S    
C2    C140  1.400823 A    
Zn15  O2    1.940021 S    
C123  H27   1.083937 S    
Zn16  O5    1.926721 S    
C166  C246  1.508719 S    
C233  H170  1.110772 S    
C26   C90   1.414231 A    
C222  H136  1.106801 S    
C135  H39   1.083968 S    
C249  H217  1.110553 S    
C130  H34   1.083781 S    
C222  H137  1.110173 S    
C171  C251  1.508675 S    
C9    C121  1.399462 A    
C200  H71   1.105288 S    
Zn7   O42   1.929422 S    
C21   C58   1.472117 S    
C199  H68   1.108802 S    
C73   C186  1.461107 S    
C129  C161  1.398330 A    
C23   C60   1.472708 S    
C6    C118  1.398756 A    
C127  H31   1.083784 S    
C71   C93   1.471736 S    
O47   C77   1.276082 A    
C215  H117  1.110439 S    
O34   C86   1.273958 A    
C49   C217  1.519856 S    
C231  H163  1.109955 S    
C25   C193  1.522118 S    
C26   C42   1.415298 A    
Zn9   O8    1.926723 S    
Zn6   O2    1.939933 S    
C33   C201  1.522045 S    
Zn10  O7    1.926723 S    
C65   C91   1.472511 S    
C47   C215  1.520193 S    
C119  H23   1.083951 S    
C253  H229  1.110531 S    
C50   C62   1.418345 A    
C17   C62   1.472749 S    
C214  H113  1.110138 S    
C117  H21   1.083759 S    
C34   C94   1.413706 A    
C256  H240  1.110851 S    
C102  H6    1.083127 S    
C114  H18   1.083846 S    
C148  C228  1.508538 S    
O37   C87   1.276039 A    
C121  H25   1.084018 S    
Zn4   O50   1.931183 S    
O31   C83   1.276157 A    
C165  C191  1.411138 A    
C106  H10   1.083125 S    
O22   C74   1.275635 A    
C18   C109  1.401384 A    
C219  H129  1.110455 S    
C110  H14   1.083129 S    
C42   C210  1.520319 S    
C48   C216  1.519860 S    
C143  C175  1.396823 A    
C255  H237  1.110566 S    
C234  H173  1.110834 S    
C204  H84   1.110788 S    
C223  H141  1.110132 S    
C243  H200  1.110781 S    
C212  H106  1.110178 S    
C46   C214  1.520042 S    
C97   C102  1.393893 A    
C79   C188  1.457768 S    
C138  C170  1.398301 A    
C243  H201  1.109941 S    
C55   C63   1.417937 A    
C82   C177  1.469036 S    
C83   C184  1.463585 S    
C53   C61   1.418518 A    
C245  H207  1.110625 S    
C99   C104  1.394190 A    
C44   C212  1.520111 S    
Zn1   O51   1.929478 S    
C231  H164  1.110677 S    
C149  C181  1.411958 A    
Zn9   O28   1.931239 S    
C164  C186  1.413210 A    
C244  H204  1.110818 S    
C207  H92   1.108729 S    
Zn10  O27   1.931239 S    
C119  C151  1.398399 A    
C75   C192  1.469279 S    
C248  H215  1.110596 S    
C107  H11   1.083109 S    
C24   C99   1.401257 A    
C194  H52   1.110692 S    
C253  H231  1.109956 S    
C31   C199  1.520873 S    
C33   C93   1.414045 A    
Zn8   O41   1.929422 S    
O20   C72   1.278726 A    
C22   C57   1.472200 S    
O21   C73   1.275310 A    
Zn16  O25   1.929422 S    
C38   C94   1.414409 A    
C197  H61   1.110690 S    
C44   C60   1.418409 A    
C108  H12   1.083109 S    
C101  H5    1.083121 S    
O24   C76   1.274078 A    
C128  H32   1.083863 S    
C249  H219  1.110836 S    
O15   C71   1.278395 A    
C213  H110  1.106800 S    
O38   C88   1.276139 A    
C148  C180  1.414221 A    
C173  C253  1.508660 S    
C161  C187  1.416513 A    
C85   C182  1.468929 S    
C162  C188  1.411134 A    
C135  C167  1.398372 A    
C163  C185  1.413403 A    
C229  H159  1.110561 S    
C198  H64   1.110786 S    
C3    C137  1.399036 A    
C235  H175  1.110603 S    
C51   C219  1.520041 S    
C124  H28   1.083773 S    
C220  H130  1.110140 S    
C168  C248  1.508761 S    
Zn1   O1    1.939882 S    
C154  C186  1.413145 A    
C193  H49   1.110889 S    
C28   C44   1.415425 A    
C242  H196  1.109712 S    
Zn12  O9    1.926719 S    
C23   C104  1.401344 A    
C127  C159  1.397971 A    
C193  H51   1.109762 S    
C21   C102  1.401185 A    
C244  H202  1.110668 S    
C235  H177  1.109201 S    
C217  H122  1.106804 S    
C115  C147  1.398340 A    
C16   C128  1.398718 A    
C116  C148  1.398319 A    
C45   C57   1.418101 A    
C24   C103  1.401278 A    
O39   C85   1.277335 A    
C47   C59   1.418253 A    
C240  H190  1.110605 S    
C230  H161  1.109371 S    
C227  H152  1.110806 S    
C232  H167  1.110561 S    
C201  H74   1.105278 S    
C40   C208  1.522117 S    
C99   H3    1.083120 S    
C196  H59   1.105263 S    
C252  H226  1.110373 S    
Zn5   O20   1.926696 S    
C38   C206  1.522243 S    
Zn6   O19   1.926696 S    
C218  H125  1.110182 S    
C246  H208  1.110574 S    
C34   C50   1.415538 A    
C143  H47   1.084235 S    
O14   C70   1.278512 A    
C212  H108  1.110445 S    
C172  C252  1.508424 S    
C228  H156  1.110823 S    
C250  H221  1.110645 S    
C221  H134  1.106749 S    
C131  C163  1.398165 A    
O41   C83   1.276153 A    
Zn8   O46   1.931169 S    
C132  C164  1.398376 A    
O42   C84   1.275338 A    
C195  H55   1.110772 S    
Zn16  O30   1.931169 S    
C8    C142  1.398983 A    
C145  C225  1.508629 S    
C216  H119  1.106816 S    
C149  C229  1.508683 S    
C255  H236  1.110405 S    
C128  C160  1.398117 A    
C12   C130  1.400962 A    
C5    C16   1.471975 S    
C121  C153  1.398354 A    
C6    C15   1.471908 S    
C223  H140  1.106796 S    
C7    C14   1.469493 S    
C32   C200  1.522020 S    
C248  H214  1.109716 S    
Zn13  O4    1.939937 S    
C136  C168  1.398380 A    
C157  C189  1.413178 A    
Zn14  O3    1.939933 S    
C114  C146  1.398164 A    
C194  H54   1.105324 S    
C100  H4    1.083118 S    
C234  H172  1.109965 S    
C236  H180  1.110775 S    
C7    C119  1.399538 A    
C29   C89   1.413998 A    
C19   C64   1.472109 S    
C197  H63   1.108870 S    
Zn15  O6    1.926721 S    
Zn16  O1    1.940020 S    
C211  H105  1.110438 S    
C165  C245  1.508127 S    
C32   C92   1.413979 A    
C133  C165  1.398000 A    
C13   C135  1.399544 A    
O13   C69   1.279532 A    
C232  H166  1.109778 S    
C138  H42   1.084025 S    
C37   C53   1.415526 A    
C144  C176  1.398241 A    
C136  H40   1.083971 S    
C253  H230  1.110837 S    
C25   C89   1.414713 A    
C210  H100  1.106790 S    
C139  C171  1.398256 A    
C41   C57   1.417821 A    
C28   C92   1.413371 A    
C228  H154  1.109725 S    
C125  C157  1.398160 A    
C241  H194  1.110851 S    
C43   C59   1.418048 A    
C198  H66   1.105357 S    
O5    C65   1.279444 A    
C247  H213  1.109970 S    
C31   C91   1.413763 A    
C29   C45   1.415226 A    
C220  H132  1.110461 S    
C208  H94   1.110783 S    
C238  H184  1.109781 S    
C201  H75   1.109862 S    
C118  C150  1.398190 A    
C122  C154  1.398156 A    
C160  C192  1.416890 A    
C242  H198  1.110756 S    
C4    C138  1.399115 A    
C167  C247  1.508793 S    
C52   C64   1.418052 A    
C1    C12   1.471917 S    
Zn7   O3    1.940021 S    
Zn11  O2    1.940028 S    
C35   C51   1.415581 A    
C2    C11   1.471488 S    
C254  H234  1.110805 S    
O36   C88   1.276153 A    
C14   C126  1.399103 A    
O26   C78   1.275312 A    
C18   C61   1.472870 S    
C74   C185  1.461491 S    
C206  H88   1.110901 S    
C30   C198  1.522180 S    
C35   C95   1.414986 A    
C103  H7    1.083111 S    
C142  C174  1.398341 A    
C240  H192  1.110863 S    
C97   H1    1.083125 S    
C239  H188  1.110762 S    
C141  H45   1.083962 S    
C237  H183  1.109972 S    
C251  H224  1.110853 S    
C27   C43   1.415832 A    
C209  H97   1.110141 S    
C226  H148  1.110373 S    
C211  H103  1.106795 S    
C104  H8    1.083119 S    
C105  H9    1.083131 S    
C28   C196  1.520847 S    
C222  H138  1.110441 S    
C225  H147  1.109335 S    
C11   C123  1.398647 A    
C229  H157  1.109890 S    
C175  C181  1.413905 A    
C238  H186  1.110837 S    
C213  H111  1.110461 S    
C233  H171  1.109936 S    
C139  H43   1.083884 S    
O49   C75   1.277368 A    
C15   C127  1.400998 A    
C98   C101  1.394048 A    
C134  C166  1.397986 A    
C224  H142  1.110458 S    
C48   C60   1.418239 A    
C201  H73   1.110903 S    
C147  C227  1.508659 S    
C70   C96   1.472477 S    
C151  C231  1.508745 S    
C202  H76   1.110690 S    
C247  H211  1.110695 S    
C54   C62   1.418125 A    
Zn11  O33   1.931183 S    
