data_mof_unit_60107.cif
_audit_creation_date              2012-12-11T15:39:26-0500
_audit_creation_method            fapswitch 2.2
_symmetry_space_group_name_H-M    P1
_symmetry_Int_Tables_number       1
_space_group_crystal_system       triclinic
_cell_length_a                    6.942333
_cell_length_b                    15.106567
_cell_length_c                    16.608962
_cell_angle_alpha                 95.63011
_cell_angle_beta                  90.199783
_cell_angle_gamma                 90.24855
_cell_volume                      1733.4293952

loop_
_atom_site_label
_atom_site_type_symbol
_atom_type_description
_atom_site_fract_x
_atom_site_fract_y
_atom_site_fract_z
_atom_type_partial_charge
O1    O     O_R   0.633330 0.174290 0.828230 -0.526646
O2    O     O_R   0.366670 0.825710 0.171770 -0.526646
O3    O     O_R   0.301450 0.154140 0.662030 -0.539463
O4    O     O_R   0.698550 0.845860 0.337970 -0.539463
O5    O     O_R   0.133140 0.325730 0.671770 -0.539620
O6    O     O_R   0.866860 0.674270 0.328230 -0.539621
C1    C     C_R   0.470246 0.131549 0.633433 0.831696
C2    C     C_R   0.529754 0.868451 0.366567 0.831696
O7    O     O_R   0.303490 0.163670 0.827000 -0.539692
O8    O     O_R   0.696510 0.836330 0.173000 -0.539692
O9    O     O_R   0.135190 0.335320 0.837920 -0.546651
O10   O     O_R   0.864810 0.664680 0.162080 -0.546651
C3    C     C_R   0.472446 0.143323 0.854097 0.752257
C4    C     C_R   0.527554 0.856677 0.145903 0.752256
O11   O     O_R   0.631280 0.164690 0.662080 -0.522074
O12   O     O_R   0.368720 0.835310 0.337920 -0.522074
O13   O     O_3   0.467420 0.306310 0.753380 -0.381283
O14   O     O_3   0.532580 0.693690 0.246620 -0.381282
V1    V     V_3+5 0.191790 0.239560 0.749370 1.549373
V2    V     V_3+5 0.808210 0.760440 0.250630 1.549373
O15   O     O_R   0.805590 0.345870 0.837970 -0.534652
O16   O     O_R   0.194410 0.654130 0.162030 -0.534652
C5    C     C_R   0.975142 0.368400 0.866663 0.750169
C6    C     C_R   0.024858 0.631600 0.133337 0.750169
O17   O     O_R   0.803560 0.336340 0.672990 -0.535615
O18   O     O_R   0.196440 0.663660 0.327010 -0.535615
C7    C     C_R   0.972401 0.356649 0.645865 0.734241
C8    C     C_R   0.027599 0.643351 0.354135 0.734241
V3    V     V_3+5 0.692030 0.260450 0.750630 1.568849
V4    V     V_3+5 0.307970 0.739550 0.249370 1.568849
O19   O     O_3   0.966260 0.193700 0.746610 -0.359901
O20   O     O_3   0.033740 0.806300 0.253390 -0.359901
C9    C     C_1   0.982832 0.418644 0.583451 -0.122740
C10   C     C_1   0.017168 0.581356 0.416548 -0.122740
C11   C     C_1   0.993404 0.469908 0.530970 0.070405
C12   C     C_1   0.006596 0.530092 0.469030 0.070405
C13   C     C_3   0.822473 0.530839 0.019024 -0.189446
C14   C     C_3   0.177527 0.469161 0.980976 -0.189446
C15   C     C_3   0.922869 0.535907 0.936070 -0.203797
C16   C     C_3   0.077131 0.464093 0.063930 -0.203797
H1    H     H_    0.860712 0.565530 0.883251 0.175783
H2    H     H_    0.139288 0.434470 0.116749 0.175783
H3    H     H_    0.675674 0.555474 0.034994 0.178247
H4    H     H_    0.324326 0.444526 0.965006 0.178247
C17   C     C_3   0.988154 0.438528 0.937218 -0.149729
C18   C     C_3   0.011846 0.561472 0.062781 -0.149729
C19   C     C_3   0.889269 0.433513 0.019140 0.438475
C20   C     C_3   0.110731 0.566487 0.980860 0.438475
C21   C     C_3   0.595505 0.973936 0.563136 0.366266
C22   C     C_3   0.404495 0.026064 0.436864 0.366265
C23   C     C_3   0.426420 0.923369 0.519163 0.374598
C24   C     C_3   0.573580 0.076631 0.480837 0.374598
C25   C     C_3   0.517326 0.938506 0.437096 -0.280889
C26   C     C_3   0.482673 0.061494 0.562904 -0.280890
C27   C     C_3   0.688511 0.988913 0.480840 -0.281486
C28   C     C_3   0.311489 0.011087 0.519160 -0.281486
H5    H     H_    0.842923 0.980077 0.465116 0.199933
H6    H     H_    0.157077 0.019923 0.534884 0.199933
C29   C     C_1   0.482825 0.081319 0.916510 -0.108672
C30   C     C_1   0.517175 0.918681 0.083489 -0.108672
C31   C     C_1   0.493402 0.030074 0.969011 0.072959
C32   C     C_1   0.506598 0.969926 0.030989 0.072959
Cl1   Cl    Cl    0.739177 0.344675 0.044753 -0.632734
Cl2   Cl    Cl    0.260823 0.655325 0.955247 -0.632734
Cl3   Cl    Cl    0.327777 0.820922 0.545109 -0.538985
Cl4   Cl    Cl    0.672223 0.179078 0.454891 -0.538985
Cl5   Cl    Cl    0.723366 0.938625 0.647390 -0.529175
Cl6   Cl    Cl    0.276634 0.061375 0.352610 -0.529175

loop_
_geom_bond_atom_site_label_1
_geom_bond_atom_site_label_2
_ccdc_geom_bond_type
C16   C19   S    
V4    O20   S    
C5    C17   S    
O13   V3    S    
C11   C12   S    
O4    C2    A    
V1    O19   S    
C24   Cl4   S    
C15   H1    S    
C7    C9    S    
C16   C18   S    
O9    V1    S    
O3    C1    A    
C19   Cl1   S    
C20   Cl2   S    
O12   V4    S    
C21   C26   S    
C30   C32   T    
C23   C28   S    
C23   Cl3   S    
C17   C19   S    
O7    C3    A    
C14   C17   S    
O13   V1    S    
O5    C7    A    
O7    V1    S    
O6    C8    A    
O8    V2    S    
C21   C23   S    
C22   C24   S    
O3    V1    S    
O14   V4    S    
C13   C19   S    
C21   Cl5   S    
C10   C12   T    
C24   C27   S    
C15   C17   S    
C1    O11   A    
C8    C10   S    
C2    O12   A    
C24   C26   S    
O11   V3    S    
C18   C20   S    
C25   C27   S    
O17   V3    S    
C26   C28   S    
C29   C31   T    
C22   C25   S    
O8    C4    A    
C21   C27   S    
O15   V3    S    
C22   C28   S    
C23   C25   S    
C13   H3    S    
C14   H4    S    
O10   V2    S    
O1    V3    S    
O5    V1    S    
O18   V4    S    
C27   H5    S    
O16   C6    A    
O1    C3    A    
C4    C30   S    
V2    O20   S    
O16   V4    S    
C14   C20   S    
C16   H2    S    
C2    C25   S    
C3    C29   S    
O17   C7    A    
O6    V2    S    
O10   C6    A    
O18   C8    A    
O2    V4    S    
C6    C18   S    
O15   C5    A    
V3    O19   S    
C14   C16   S    
O9    C5    A    
C9    C11   T    
C28   H6    S    
O14   V2    S    
C31   C32   S    
O2    C4    A    
O4    V2    S    
C13   C15   S    
C1    C26   S    
C13   C18   S    
C22   Cl6   S    
C15   C20   S    
