data_mof_unit_47508.cif
_audit_creation_date              2012-10-26T20:58:23-0400
_audit_creation_method            fapswitch 2.2
_symmetry_space_group_name_H-M    P1
_symmetry_Int_Tables_number       1
_space_group_crystal_system       triclinic
_cell_length_a                    10.614387
_cell_length_b                    14.812221
_cell_length_c                    14.834803
_cell_angle_alpha                 64.39123
_cell_angle_beta                  105.167222
_cell_angle_gamma                 102.172911
_cell_volume                      2017.135708

loop_
_atom_site_label
_atom_site_type_symbol
_atom_type_description
_atom_site_fract_x
_atom_site_fract_y
_atom_site_fract_z
_atom_type_partial_charge
C1    C     C_R   0.479246 0.119598 0.312367 0.556693
C2    C     C_R   0.504335 0.532803 0.949033 -0.071844
C3    C     C_R   0.432693 0.492352 0.875892 0.270729
C4    C     C_R   0.616443 0.503486 0.126029 0.278107
C5    C     C_R   0.426657 0.389612 0.898745 0.285506
C6    C     C_R   0.637026 0.608692 0.099600 0.274994
C7    C     C_R   0.758183 0.303386 0.627914 -0.132012
C8    C     C_R   0.241378 0.697096 0.371645 -0.124154
C9    C     C_R   0.705076 0.212268 0.620239 0.005695
C10   C     C_R   0.294848 0.788041 0.379665 0.012546
C11   C     C_R   0.508250 0.282180 0.515933 0.334154
C12   C     C_R   0.523665 0.880321 0.687738 0.552848
C13   C     C_R   0.491270 0.717567 0.483957 0.366025
C14   C     C_R   0.550451 0.372062 0.533789 -0.049274
C15   C     C_R   0.448995 0.628136 0.465255 -0.009853
C16   C     C_R   0.259791 0.001116 0.498655 0.597420
C17   C     C_R   0.740210 0.998863 0.501368 0.597615
C18   C     C_R   0.683913 0.385639 0.580163 0.002950
C19   C     C_R   0.315499 0.614769 0.418906 0.034389
C20   C     C_R   0.470177 0.451982 0.500414 -0.041088
C21   C     C_R   0.529309 0.548487 0.497648 -0.029145
C22   C     C_R   0.667099 0.563235 0.522861 -0.060284
C23   C     C_R   0.499712 0.291240 0.178244 -0.057734
C24   C     C_R   0.332326 0.437324 0.475095 -0.052478
C25   C     C_R   0.742474 0.482764 0.570934 0.234386
C26   C     C_R   0.256916 0.517803 0.427485 0.255036
C27   C     C_3   0.007972 0.932064 0.466165 0.245635
C28   C     C_3   0.992011 0.067866 0.533840 0.249390
C29   C     C_3   0.929862 0.022940 0.406136 0.241359
C30   C     C_3   0.070095 0.976983 0.593871 0.238908
C31   C     C_3   0.876956 0.997979 0.502243 0.002868
C32   C     C_3   0.123026 0.001961 0.497776 -0.000661
C33   C     C_3   0.955246 0.905313 0.563610 -0.193592
C34   C     C_R   0.526502 0.708220 0.821786 -0.082167
C35   C     C_3   0.044716 0.094613 0.436389 -0.187766
C36   C     C_R   0.473357 0.187409 0.204523 0.005688
C37   C     C_R   0.541838 0.811866 0.796036 -0.004093
C38   C     C_R   0.433130 0.217717 0.026444 -0.116030
C39   C     C_R   0.604182 0.779827 0.974813 -0.123607
C40   C     C_R   0.443774 0.150601 0.128157 -0.143607
C41   C     C_R   0.577225 0.847534 0.873419 -0.149732
C42   C     C_3   0.919603 0.078784 0.233906 -0.099788
C43   C     C_3   0.080015 0.920729 0.766103 -0.107188
C44   C     C_3   0.918296 0.792610 0.431062 -0.086067
C45   C     C_R   0.503648 0.359765 0.077733 -0.008028
C46   C     C_3   0.081829 0.207418 0.568723 -0.081718
C47   C     C_3   0.457790 0.368988 0.763630 -0.083427
C48   C     C_3   0.842768 0.665191 0.162209 -0.108024
C49   C     C_3   0.239907 0.559284 0.795871 -0.054185
C50   C     C_3   0.666809 0.444849 0.303145 -0.044845
C51   C     C_R   0.536603 0.638187 0.923193 -0.026873
C52   C     C_R   0.457630 0.322391 0.000271 0.005894
C53   C     C_R   0.589276 0.675220 0.000257 0.015152
C54   C     C_R   0.541561 0.464939 0.052144 -0.045133
Cl1   Cl    Cl    0.623478 0.719223 0.584689 -0.653063
Cl2   Cl    Cl    0.376380 0.280160 0.415039 -0.670171
Cl3   Cl    Cl    0.913062 0.509525 0.609582 -0.640688
Cl4   Cl    Cl    0.086253 0.491176 0.388833 -0.637397
Cu1   Cu    Cu3+1 0.465750 0.918270 0.475680 1.051105
Cu2   Cu    Cu3+1 0.534250 0.081730 0.524320 1.039315
H1    H     H_    0.236278 0.850434 0.345136 0.156272
H2    H     H_    0.508604 0.318314 0.236289 0.196410
H3    H     H_    0.589989 0.927538 0.855607 0.133701
H4    H     H_    0.423892 0.070454 0.146547 0.133568
H5    H     H_    0.402240 0.187459 0.968418 0.156339
H6    H     H_    0.639354 0.809744 0.033003 0.157678
H7    H     H_    0.990624 0.025995 0.249110 0.145969
H8    H     H_    0.971572 0.154877 0.224364 0.129144
H9    H     H_    0.851975 0.085931 0.160712 0.139243
H10   H     H_    0.028832 0.844413 0.775728 0.117659
H11   H     H_    0.008278 0.973043 0.750770 0.150204
H12   H     H_    0.763871 0.149999 0.654902 0.160696
H13   H     H_    0.147395 0.913936 0.839299 0.137782
H14   H     H_    0.823752 0.826277 0.395768 0.160136
H15   H     H_    0.918530 0.739289 0.511513 0.179858
H16   H     H_    0.927147 0.748980 0.388633 0.154356
H17   H     H_    0.081215 0.260774 0.488238 0.185826
H18   H     H_    0.176464 0.173841 0.603731 0.157055
H19   H     H_    0.073255 0.251006 0.611273 0.165886
H20   H     H_    0.547976 0.332114 0.810324 0.102753
H21   H     H_    0.483896 0.450676 0.719532 0.187745
H22   H     H_    0.412203 0.334102 0.708250 0.136552
H23   H     H_    0.858223 0.309495 0.668533 0.180728
H24   H     H_    0.881916 0.594958 0.177169 0.199458
H25   H     H_    0.900580 0.693578 0.220567 0.147890
H26   H     H_    0.857958 0.723793 0.086329 0.101379
H27   H     H_    0.251387 0.598035 0.847713 0.103205
H28   H     H_    0.181317 0.484351 0.824744 0.166151
H29   H     H_    0.183962 0.605842 0.720821 0.198730
H30   H     H_    0.568843 0.468243 0.292348 0.138820
H31   H     H_    0.746411 0.495041 0.329299 0.206867
H32   H     H_    0.671494 0.368760 0.365652 0.168665
H33   H     H_    0.141323 0.691218 0.330999 0.153840
H34   H     H_    0.718437 0.637762 0.504178 0.166323
H35   H     H_    0.280861 0.362851 0.493766 0.166383
H36   H     H_    0.915511 0.830069 0.614538 0.147646
H37   H     H_    0.084433 0.169849 0.385439 0.155386
H38   H     H_    0.514644 0.683400 0.761632 0.236707
N1    N     N_R   0.585750 0.204560 0.560800 -0.224765
N2    N     N_R   0.414250 0.795440 0.439200 -0.221049
O1    O     O_R   0.454850 0.022100 0.338110 -0.520925
O2    O     O_3   0.155028 0.957320 0.689371 -0.553279
O3    O     O_3   0.026782 0.866604 0.425602 -0.568861
O4    O     O_3   0.973375 0.133353 0.574433 -0.567249
O5    O     O_3   0.366345 0.353407 0.824255 -0.553771
O6    O     O_3   0.709298 0.646931 0.170298 -0.594985
O7    O     O_3   0.362645 0.550267 0.782388 -0.558755
O8    O     O_3   0.689277 0.439652 0.215593 -0.566162
O9    O     O_R   0.545150 0.977900 0.661890 -0.518503
O10   O     O_R   0.512700 0.160150 0.379180 -0.459114
O11   O     O_R   0.487300 0.839850 0.620820 -0.451636
O12   O     O_R   0.287930 0.931000 0.479440 -0.477483
O13   O     O_R   0.712070 0.069000 0.520560 -0.477755
O14   O     O_R   0.345780 0.069050 0.520520 -0.445723
O15   O     O_R   0.654220 0.930950 0.479480 -0.451262
O16   O     O_3   0.844773 0.042620 0.310696 -0.550423

loop_
_geom_bond_atom_site_label_1
_geom_bond_atom_site_label_2
_ccdc_geom_bond_type
C43   H13   S    
C30   C32   S    
C23   C45   A    
C27   C29   S    
C34   C37   A    
C49   H27   S    
Cu2   O14   S    
C9    H12   S    
Cu2   N1    S    
C17   O13   A    
C39   C41   A    
C5    O5    S    
C27   C33   S    
C15   C19   A    
C4    O8    S    
C16   O12   A    
C34   C51   A    
C37   C41   A    
C24   C26   A    
C46   H19   S    
C8    C10   A    
C11   C14   A    
C38   C52   A    
C11   N1    A    
C47   H22   S    
C12   C37   S    
C44   H16   S    
C19   C26   A    
C14   C18   A    
Cu2   O9    S    
C50   H30   S    
C23   H2    S    
C48   O6    S    
C20   C24   A    
C28   C35   S    
C47   O5    S    
C22   C25   A    
Cu1   O11   S    
C31   C33   S    
C5    C52   A    
C49   O7    S    
Cu1   Cu2   S    
C9    N1    A    
C21   C22   A    
C50   O8    S    
Cu1   N2    S    
C22   H34   S    
C49   H28   S    
Cu2   O13   S    
C18   C25   A    
C25   Cl3   S    
C47   H20   S    
C12   O9    A    
C44   O3    S    
C8    C19   A    
Cu1   O1    S    
C32   C35   S    
C14   C20   A    
C36   C40   A    
C4    C6    A    
C2    C54   A    
C24   H35   S    
C46   H18   S    
C45   C52   A    
C3    O7    S    
C46   O4    S    
C42   H9    S    
C48   H24   S    
C51   C53   A    
C44   H15   S    
C44   H14   S    
C1    O10   A    
C28   O4    S    
C38   H5    S    
C7    C18   A    
C30   O2    S    
Cu1   O12   S    
C6    O6    S    
C10   N2    A    
C26   Cl4   S    
C42   O16   S    
C29   O16   S    
C45   C54   A    
C43   H10   S    
C13   C15   A    
C42   H7    S    
C17   C31   S    
C39   H6    S    
C48   H26   S    
C10   H1    S    
C41   H3    S    
C6    C53   A    
C33   H36   S    
C1    O1    A    
C17   O15   A    
C50   H32   S    
C7    C9    A    
C43   H11   S    
C30   C33   S    
C4    C54   A    
C27   C32   S    
C28   C31   S    
C8    H33   S    
C49   H29   S    
C3    C5    A    
C16   O14   A    
C46   H17   S    
C16   C32   S    
C29   C35   S    
C40   H4    S    
C13   N2    A    
C28   C30   S    
C2    C3    A    
C43   O2    S    
C29   C31   S    
C38   C40   A    
C7    H23   S    
C39   C53   A    
C27   O3    S    
C34   H38   S    
C47   H21   S    
C42   H8    S    
Cu2   O10   S    
C2    C51   A    
C50   H31   S    
C15   C21   A    
C20   C21   A    
Cu1   O15   S    
C23   C36   A    
C48   H25   S    
C35   H37   S    
C12   O11   A    
C11   Cl2   S    
C1    C36   S    
C13   Cl1   S    
