data_mof_unit_37510.cif
_audit_creation_date              2013-03-05T15:55:18-0500
_audit_creation_method            fapswitch 2.2
_symmetry_space_group_name_H-M    P1
_symmetry_Int_Tables_number       1
_space_group_crystal_system       triclinic
_cell_length_a                    26.859003
_cell_length_b                    10.6892
_cell_length_c                    9.952439
_cell_angle_alpha                 90.450437
_cell_angle_beta                  88.236764
_cell_angle_gamma                 90.517321
_cell_volume                      2855.80617034

loop_
_atom_site_label
_atom_site_type_symbol
_atom_site_description
_atom_site_fract_x
_atom_site_fract_y
_atom_site_fract_z
_atom_type_partial_charge
O1    O     O_R   0.500000 0.316780 0.614690 -0.625107
O2    O     O_R   0.500000 0.316750 0.385360 -0.583287
C1    C     C_R   0.498373 0.259216 0.499222 0.874328
O3    O     O_R   0.428760 0.500030 0.614650 -0.589029
O4    O     O_R   0.428750 0.500010 0.385320 -0.635406
C2    C     C_R   0.405688 0.501954 0.501331 0.858827
Zn1   Zn    Zn3+2 0.500000 0.500020 0.653130 1.036458
Zn2   Zn    Zn3+2 0.500000 0.499980 0.346870 1.022965
O5    O     O_R   0.500000 0.683250 0.614640 -0.561903
O6    O     O_R   0.500000 0.683220 0.385310 -0.603153
O7    O     O_R   0.571250 0.499990 0.614680 -0.607100
O8    O     O_R   0.571240 0.499970 0.385350 -0.625813
C3    C     C_R   0.506526 0.738643 0.500370 0.918235
C4    C     C_R   0.594455 0.504087 0.497869 0.877707
C5    C     C_R   0.185448 0.651867 0.332477 0.605107
O9    O     O_2   0.213303 0.617505 0.223500 -0.430644
N1    N     N_R   0.208057 0.671087 0.451877 -0.353235
C6    C     C_R   0.182974 0.720598 0.560957 0.639124
C7    C     C_R   0.296992 0.715618 0.495264 0.370293
C8    C     C_R   0.344685 0.669199 0.514959 -0.157017
C9    C     C_R   0.316650 0.457890 0.466088 -0.144993
C10   C     C_R   0.268592 0.501868 0.451099 -0.057447
C11   C     C_R   0.258365 0.630157 0.465134 0.138472
C12   C     C_R   0.107494 0.724120 0.433754 -0.110605
C13   C     C_R   0.133710 0.667749 0.323722 -0.134652
C14   C     C_R   0.107216 0.625816 0.211206 0.331136
C15   C     C_R   0.133200 0.758477 0.550726 -0.130207
C16   C     C_R   0.354327 0.541237 0.501315 -0.042762
C17   C     C_R   0.647122 0.538136 0.490671 -0.015864
C18   C     C_R   0.976875 0.718368 0.310523 -0.044111
C19   C     C_R   0.976026 0.781018 0.549522 0.071263
C20   C     C_R   0.950536 0.741255 0.433808 0.047758
C21   C     C_R   0.948967 0.700915 0.192137 0.276437
C22   C     C_R   0.898109 0.673320 0.204087 -0.180130
C23   C     C_R   0.873149 0.677333 0.329270 -0.078898
C24   C     C_R   0.898475 0.719646 0.442527 -0.056574
C25   C     C_R   0.871967 0.736208 0.565447 -0.029053
C26   C     C_R   0.821161 0.704779 0.574103 0.528660
N2    N     N_R   0.797992 0.655439 0.464826 -0.355739
C27   C     C_R   0.822896 0.642468 0.343282 0.544892
C28   C     C_R   0.730843 0.528340 0.572267 -0.065937
C29   C     C_R   0.680978 0.490091 0.580707 -0.182204
C30   C     C_R   0.662922 0.627631 0.395865 -0.155905
C31   C     C_R   0.712065 0.668545 0.390426 -0.057485
C32   C     C_R   0.746592 0.617827 0.476810 0.266552
O10   O     O_2   0.799401 0.593441 0.236787 -0.537782
C33   C     C_R   0.029427 0.705432 0.312766 0.027732
C34   C     C_R   0.055252 0.741502 0.429161 0.092169
C35   C     C_R   0.028807 0.788709 0.543829 0.007471
C36   C     C_R   0.056035 0.643576 0.208253 -0.164079
O11   O     O_2   0.205767 0.728354 0.679694 -0.413573
C37   C     C_R   0.107651 0.823273 0.655804 0.347117
C38   C     C_R   0.947862 0.804035 0.669562 -0.141164
C39   C     C_R   0.896823 0.781675 0.677201 -0.087504
O12   O     O_2   0.795161 0.723209 0.690682 -0.526251
C40   C     C_R   0.056146 0.836383 0.651714 -0.223407
C41   C     C_R   0.463717 0.099257 0.729179 -0.220828
C42   C     C_R   0.464137 0.033945 0.851425 0.233380
C43   C     C_R   0.500395 0.939835 0.866017 0.228798
C44   C     C_R   0.526521 0.893706 0.750308 0.234660
C45   C     C_R   0.512848 0.939037 0.623703 -0.040822
C46   C     C_R   0.491998 0.056644 0.616819 -0.033654
C47   C     C_R   0.500108 0.124213 0.496364 -0.194487
C48   C     C_R   0.518775 0.061720 0.379180 0.332964
C49   C     C_R   0.523444 0.933511 0.381530 -0.193491
C50   C     C_R   0.517422 0.871046 0.502790 -0.117632
C51   C     C_R   0.420408 0.390609 0.137007 -0.144260
C52   C     C_R   0.375380 0.375007 0.073850 -0.201128
C53   C     C_R   0.367570 0.434261 0.951417 0.254985
C54   C     C_R   0.407374 0.502931 0.888535 0.202647
C55   C     C_R   0.456098 0.484034 0.935214 0.040958
C56   C     C_R   0.459055 0.458877 0.074410 0.157115
N3    N     N_R   0.499540 0.498800 0.142780 -0.100496
C57   C     C_R   0.542075 0.524193 0.068081 0.024780
C58   C     C_R   0.542711 0.515304 0.925097 0.010376
N4    N     N_R   0.499520 0.498720 0.857170 -0.107464
H1    H     H_    0.324451 0.359471 0.450645 0.169571
N5    N     N_R   0.288805 0.848523 0.501914 0.239211
O13   O     O_R   0.318000 0.920279 0.571308 -0.298827
O14   O     O_R   0.255612 0.900227 0.428246 -0.325312
N6    N     N_R   0.133344 0.881208 0.764826 0.258492
O15   O     O_R   0.114423 0.876001 0.886642 -0.277356
O16   O     O_R   0.170438 0.957450 0.739359 -0.249430
H2    H     H_    0.964453 0.833538 0.761787 0.204744
H3    H     H_    0.636877 0.668390 0.327978 0.162698
H4    H     H_    0.877188 0.796741 0.772617 0.208101
H5    H     H_    0.723461 0.739233 0.318150 0.170521
H6    H     H_    0.038450 0.887584 0.733480 0.194548
N7    N     N_R   0.534141 0.126087 0.259159 0.244854
O17   O     O_R   0.501565 0.157680 0.171917 -0.351903
O18   O     O_R   0.581174 0.149056 0.234704 -0.345531
H7    H     H_    0.439477 0.178869 0.720060 0.210991
N8    N     N_R   0.428036 0.064313 0.956848 0.255158
O19   O     O_R   0.391394 0.138363 0.931516 -0.365224
O20   O     O_R   0.425890 0.002674 0.069074 -0.272975
H8    H     H_    0.239105 0.436309 0.427401 0.188349
N9    N     N_R   0.512051 0.896205 0.996392 0.259341
O21   O     O_R   0.489490 0.797597 0.045143 -0.335866
O22   O     O_R   0.552038 0.938294 0.052285 -0.324139
N10   N     N_R   0.569562 0.813486 0.758922 0.236504
O23   O     O_R   0.582276 0.765632 0.872245 -0.350077
O24   O     O_R   0.600537 0.802164 0.656421 -0.400896
H9    H     H_    0.531932 0.882619 0.289622 0.236046
H10   H     H_    0.576175 0.546377 0.118485 0.145534
H11   H     H_    0.425694 0.342289 0.229959 0.219093
H12   H     H_    0.346090 0.319897 0.122465 0.227030
N11   N     N_R   0.319301 0.425766 0.893662 0.278148
O25   O     O_R   0.279608 0.409112 0.969995 -0.250035
O26   O     O_R   0.315451 0.418498 0.764010 -0.336855
N12   N     N_R   0.396345 0.620623 0.825727 0.234872
O27   O     O_R   0.431311 0.704385 0.809161 -0.356422
O28   O     O_R   0.350499 0.656740 0.815216 -0.293119
H13   H     H_    0.577612 0.527006 0.869606 0.176873
N13   N     N_R   0.130246 0.553666 0.104552 0.260375
O29   O     O_R   0.122525 0.582433 0.980156 -0.273539
O30   O     O_R   0.149133 0.445173 0.130755 -0.285549
H14   H     H_    0.669031 0.422147 0.655441 0.159831
H15   H     H_    0.757252 0.488146 0.639320 0.166022
H16   H     H_    0.877668 0.653489 0.114075 0.228445
N14   N     N_R   0.970116 0.723011 0.059899 0.187389
O31   O     O_R   0.954948 0.658195 0.957518 -0.406885
O32   O     O_R   0.000845 0.816244 0.039302 -0.352920
H17   H     H_    0.037064 0.598026 0.127132 0.203565
H18   H     H_    0.375055 0.733444 0.535384 0.185472

loop_
_geom_bond_atom_site_label_1
_geom_bond_atom_site_label_2
_geom_bond_distance
_ccdc_geom_bond_type
N8    O19   1.300435 A    
C41   H7    1.082199 S    
C17   C29   1.399812 A    
C28   C29   1.397026 A    
C7    C8    1.397845 A    
C12   C15   1.415983 A    
C58   N4    1.369999 A    
N6    O15   1.301476 A    
C53   N11   1.436097 S    
C41   C46   1.407461 A    
C38   C39   1.389297 A    
N14   O31   1.301366 A    
Zn1   O7    1.940011 S    
N1    C11   1.434283 S    
C38   H2    1.076374 S    
C20   C24   1.415336 A    
C24   C25   1.407167 A    
C42   N8    1.443657 S    
C22   C23   1.397058 A    
C14   C36   1.390645 A    
O4    C2    1.293459 A    
O7    C4    1.302924 A    
N5    O14   1.301277 A    
C40   H6    1.077751 S    
C5    O9    1.348984 S    
Zn1   O5    1.998646 S    
C51   C56   1.397058 A    
N3    C57   1.369981 A    
O5    C3    1.292718 A    
N12   O27   1.299405 A    
N10   O23   1.298543 A    
C54   N12   1.446247 S    
N9    O22   1.299794 A    
C45   C50   1.403632 A    
C2    C16   1.445628 S    
C26   O12   1.349697 S    
C23   C24   1.404090 A    
C52   C53   1.400070 A    
N11   O25   1.301643 A    
C54   C55   1.418756 A    
C58   H13   1.080038 S    
C28   H15   1.082701 S    
N7    O18   1.300674 A    
C31   H5    1.082987 S    
N2    C32   1.436116 S    
C43   C44   1.417495 A    
N8    O20   1.300718 A    
C9    C10   1.390436 A    
C17   C30   1.402761 A    
N11   O26   1.299318 A    
C53   C54   1.423141 A    
C52   H12   1.082908 S    
C48   N7    1.431090 S    
C19   C35   1.418715 A    
O3    Zn1   1.962909 S    
N6    O16   1.301560 A    
N14   O32   1.301671 A    
C6    O11   1.349133 S    
N9    O21   1.300768 A    
C33   C36   1.407777 A    
C3    C50   1.442802 S    
C31   C32   1.399465 A    
C57   C58   1.425043 A    
C36   H17   1.078504 S    
C51   C52   1.388197 A    
C30   H3    1.083920 S    
C18   C33   1.420365 A    
C12   C13   1.417025 A    
O3    C2    1.303819 A    
N2    C27   1.370822 A    
C39   H4    1.083575 S    
N5    O13   1.301657 A    
C51   H11   1.076886 S    
C8    C16   1.399197 A    
C42   C43   1.417789 A    
C44   C45   1.413716 A    
O1    C1    1.301016 A    
C12   C34   1.419264 A    
C7    N5    1.440227 S    
C7    C11   1.413683 A    
C30   C31   1.386351 A    
C14   N13   1.435088 S    
C25   C26   1.402613 A    
C33   C34   1.417498 A    
Zn2   O8    1.962906 S    
C46   C47   1.414556 A    
N10   O24   1.301954 A    
N1    C6    1.365623 A    
C19   C38   1.415331 A    
C25   C39   1.396520 A    
C34   C35   1.417407 A    
C9    C16   1.393324 A    
O8    C4    1.298639 A    
C43   N9    1.426989 S    
C27   O10   1.350060 S    
C4    C17   1.457228 S    
C55   N4    1.389614 A    
C15   C37   1.413270 A    
C57   H10   1.081312 S    
C22   H16   1.083539 S    
C5    N1    1.364339 A    
C28   C32   1.406667 A    
C18   C21   1.425918 A    
O1    Zn1   1.992748 S    
C10   H8    1.082983 S    
C19   C20   1.418159 A    
O2    Zn2   1.998644 S    
C6    C15   1.407251 A    
C56   N3    1.363850 A    
C44   N10   1.450613 S    
O6    C3    1.301086 A    
C37   N6    1.436945 S    
O4    Zn2   1.940014 S    
N13   O30   1.301461 A    
C29   H14   1.083161 S    
N13   O29   1.301240 A    
Zn1   N4    2.030495 S    
C1    C47   1.444270 S    
C35   C40   1.408875 A    
C48   C49   1.377751 A    
O2    C1    1.292942 A    
C13   C14   1.413026 A    
C55   C56   1.418033 A    
C18   C20   1.418028 A    
C41   C42   1.407872 A    
C26   N2    1.369286 A    
Zn2   N3    2.031550 S    
C21   C22   1.396568 A    
C23   C27   1.400106 A    
C45   C46   1.383869 A    
N12   O28   1.301310 A    
C8    H18   1.084518 S    
C5    C13   1.406909 A    
C47   C48   1.419720 A    
C21   N14   1.437706 S    
Zn2   O6    1.992747 S    
C49   C50   1.388217 A    
C9    H1    1.083388 S    
C49   H9    1.079895 S    
C10   C11   1.406009 A    
N7    O17   1.300067 A    
C37   C40   1.393574 A    
