data_mof_unit_54456.cif
_audit_creation_date              2012-12-10T16:47:28-0500
_audit_creation_method            fapswitch 2.2
_symmetry_space_group_name_H-M    P1
_symmetry_Int_Tables_number       1
_space_group_crystal_system       triclinic
_cell_length_a                    10.594371
_cell_length_b                    8.687392
_cell_length_c                    7.460875
_cell_angle_alpha                 102.905566
_cell_angle_beta                  94.255628
_cell_angle_gamma                 92.450989
_cell_volume                      666.243806071

loop_
_atom_site_label
_atom_site_type_symbol
_atom_type_description
_atom_site_fract_x
_atom_site_fract_y
_atom_site_fract_z
_atom_type_partial_charge
C1    C     C_R   0.496174 0.199799 0.453334 0.880285
C2    C     C_R   0.503826 0.800201 0.546666 0.880286
C3    C     C_R   0.259496 0.499754 0.502070 0.777436
C4    C     C_R   0.740504 0.500246 0.497930 0.777436
C5    C     C_3   0.048439 0.515936 0.675610 -0.140396
C6    C     C_3   0.951561 0.484064 0.324389 -0.140395
C7    C     C_3   0.955986 0.378709 0.566744 -0.168633
C8    C     C_3   0.044013 0.621291 0.433256 -0.168633
C9    C     C_3   0.877232 0.499832 0.495228 0.030040
C10   C     C_3   0.122768 0.500168 0.504772 0.030040
C11   C     C_3   0.967354 0.637064 0.604097 -0.171958
C12   C     C_3   0.032646 0.362936 0.395903 -0.171958
C13   C     C_2   0.494324 0.031900 0.427115 -0.379450
C14   C     C_2   0.505676 0.968100 0.572885 -0.379450
Cu1   Cu    Cu3+1 0.514140 0.517380 0.684380 0.941664
Cu2   Cu    Cu3+1 0.485860 0.482620 0.315620 0.941664
H1    H     H_    0.916529 0.279228 0.620660 0.128063
H2    H     H_    0.083471 0.720773 0.379340 0.128063
H3    H     H_    0.937235 0.749358 0.688594 0.125963
H4    H     H_    0.062765 0.250642 0.311406 0.125963
H5    H     H_    0.483605 0.960421 0.286591 0.180004
H6    H     H_    0.516395 0.039579 0.713409 0.180004
N1    N     N_2   0.464560 0.456420 0.038510 -0.218544
N2    N     N_2   0.535440 0.543580 0.961490 -0.218543
O1    O     O_R   0.509190 0.286130 0.619780 -0.583009
O2    O     O_R   0.490810 0.713870 0.380220 -0.583009
O3    O     O_R   0.485310 0.256770 0.308360 -0.586360
O4    O     O_R   0.514690 0.743230 0.691640 -0.586359
O5    O     O_R   0.328790 0.514640 0.655680 -0.593659
O6    O     O_R   0.671210 0.485360 0.344320 -0.593659
O7    O     O_R   0.304910 0.485280 0.344260 -0.584005
O8    O     O_R   0.695090 0.514720 0.655740 -0.584005
H7    H     H_    0.090764 0.528890 0.819260 0.139007
H8    H     H_    0.909236 0.471110 0.180740 0.139007
H9    H     H_    0.399774 0.379290 0.948947 0.223549
H10   H     H_    0.600226 0.620710 0.051053 0.223549

loop_
_geom_bond_atom_site_label_1
_geom_bond_atom_site_label_2
_ccdc_geom_bond_type
C1    O1    A    
N1    N2    D    
Cu1   O5    S    
C12   H4    S    
Cu2   O3    S    
C13   H5    S    
Cu1   O8    S    
C2    O2    A    
C3    C10   S    
N2    H10   S    
C13   C14   D    
Cu2   O7    S    
C3    O7    A    
C9    C11   S    
C11   H3    S    
Cu1   O4    S    
C4    O8    A    
C10   C12   S    
C6    C9    S    
C8    C11   S    
C6    C8    S    
C8    C10   S    
Cu1   N2    S    
C5    C11   S    
Cu2   N1    S    
N1    H9    S    
C6    C12   S    
C14   H6    S    
C2    C14   S    
C4    O6    A    
C7    C12   S    
Cu1   O1    S    
C1    C13   S    
Cu2   O6    S    
Cu1   Cu2   S    
C7    C9    S    
C5    C10   S    
C3    O5    A    
C1    O3    A    
C5    C7    S    
C2    O4    A    
C4    C9    S    
C8    H2    S    
C6    H8    S    
C7    H1    S    
Cu2   O2    S    
C5    H7    S    
