data_mof_unit_13424.cif
_audit_creation_date              2012-12-11T14:50:44-0500
_audit_creation_method            fapswitch 2.2
_symmetry_space_group_name_H-M    P1
_symmetry_Int_Tables_number       1
_space_group_crystal_system       triclinic
_cell_length_a                    10.904704
_cell_length_b                    10.907558
_cell_length_c                    18.830004
_cell_angle_alpha                 90.085547
_cell_angle_beta                  89.844093
_cell_angle_gamma                 60.221314
_cell_volume                      1943.93941655

loop_
_atom_site_label
_atom_site_type_symbol
_atom_type_description
_atom_site_fract_x
_atom_site_fract_y
_atom_site_fract_z
_atom_type_partial_charge
C1    C     C_R   0.239538 0.645201 0.610531 0.541178
C2    C     C_R   0.551980 0.235199 0.797210 -0.142778
C3    C     C_R   0.535139 0.249340 0.724744 -0.138817
C4    C     C_R   0.654774 0.623201 0.600421 0.538781
C5    C     C_R   0.652823 0.199036 0.679607 0.019394
C6    C     C_R   0.187493 0.557178 0.722322 -0.173707
C7    C     C_R   0.177482 0.562039 0.796090 -0.184873
C8    C     C_R   0.181260 0.671078 0.834280 0.046120
C9    C     C_R   0.210215 0.767335 0.798131 0.082359
C10   C     C_R   0.216258 0.763405 0.724594 -0.123139
C11   C     C_R   0.204475 0.659469 0.686085 0.002495
C12   C     C_3   0.652306 0.568214 0.800169 -0.247908
C13   C     C_R   0.697910 0.525118 0.270032 -0.123003
C14   C     C_R   0.700678 0.540576 0.196959 0.076967
C15   C     C_R   0.650676 0.675654 0.168502 0.059833
C16   C     C_R   0.625491 0.233222 0.604529 0.540067
C17   C     C_R   0.586965 0.795187 0.213239 -0.172611
C18   C     C_R   0.583408 0.779025 0.286429 -0.166233
C19   C     C_R   0.644842 0.643372 0.315101 0.005330
C20   C     C_R   0.510896 0.246032 0.278916 -0.121796
C21   C     C_R   0.522174 0.225623 0.206511 0.066481
C22   C     C_R   0.656987 0.154421 0.176280 0.052929
C23   C     C_3   0.702337 0.676269 0.810981 0.048228
C24   C     C_R   0.778890 0.109499 0.218351 -0.178493
C25   C     C_R   0.766669 0.130694 0.290572 -0.169203
C26   C     C_R   0.633026 0.195945 0.320831 0.014215
C27   C     C_R   0.256006 0.711149 0.280994 -0.127358
C28   C     C_R   0.226118 0.647654 0.399975 0.544685
C29   C     C_R   0.235005 0.714508 0.209177 -0.144012
C30   C     C_R   0.147247 0.666902 0.182486 0.019254
C31   C     C_R   0.088786 0.605718 0.227013 -0.149597
C32   C     C_R   0.112109 0.600098 0.299440 -0.154287
C33   C     C_R   0.191038 0.658188 0.326362 0.035504
C34   C     C_3   0.672166 0.648999 0.675527 0.057096
C35   C     C_R   0.701784 0.103742 0.896669 0.541572
C36   C     C_R   0.725441 0.689535 0.887266 0.542380
C37   C     C_R   0.119039 0.706253 0.905636 0.551728
C38   C     C_R   0.676019 0.105506 0.104251 0.576216
C39   C     C_R   0.694442 0.690504 0.097371 0.574837
C40   C     C_R   0.639982 0.620156 0.390764 0.543540
C41   C     C_R   0.093059 0.708469 0.112382 0.546389
C42   C     C_R   0.614579 0.232828 0.394241 0.548782
C43   C     C_3   0.591794 0.820773 0.778270 -0.227124
C44   C     C_3   0.571604 0.803912 0.698653 -0.241598
C45   C     C_3   0.825890 0.612856 0.690564 -0.245865
C46   C     C_3   0.844190 0.625795 0.770504 -0.225214
C47   C     C_3   0.637131 0.549991 0.720405 -0.211499
C48   C     C_R   0.788879 0.138421 0.708511 -0.157539
C49   C     C_R   0.806450 0.118907 0.781904 -0.148951
C50   C     C_R   0.687507 0.163541 0.826160 0.017434
Cr1   Cr    Cr6+3 0.392930 0.397900 0.502230 1.009953
Cr2   Cr    Cr6+3 0.398240 0.708600 0.501260 1.008952
Cr3   Cr    Cr6+3 0.708800 0.393470 0.496460 1.010913
Cr4   Cr    Cr6+3 0.937620 0.938540 0.007640 1.032617
Cr5   Cr    Cr6+3 0.625150 0.937450 0.994520 1.022705
Cr6   Cr    Cr6+3 0.937990 0.625080 0.001190 1.026740
H1    H     H_    0.627892 0.899365 0.784875 0.146715
H2    H     H_    0.234335 0.840608 0.697642 0.126714
H3    H     H_    0.737581 0.420007 0.291492 0.142979
H4    H     H_    0.548462 0.900438 0.192252 0.149921
H5    H     H_    0.537186 0.871331 0.320581 0.131113
H6    H     H_    0.405907 0.303752 0.301967 0.146719
H7    H     H_    0.884471 0.053367 0.196022 0.158269
H8    H     H_    0.860552 0.095848 0.322638 0.133067
H9    H     H_    0.459677 0.833493 0.689255 0.132296
H10   H     H_    0.281168 0.760755 0.174904 0.133340
H11   H     H_    0.019381 0.569667 0.206422 0.146454
H12   H     H_    0.709622 0.437757 0.705640 0.147347
H13   H     H_    0.066269 0.554521 0.334301 0.124517
H14   H     H_    0.593701 0.877011 0.667067 0.121477
H15   H     H_    0.882443 0.702073 0.779420 0.131350
H16   H     H_    0.851068 0.685661 0.660701 0.117342
H17   H     H_    0.549104 0.604887 0.827364 0.114772
H18   H     H_    0.880586 0.103301 0.674465 0.124425
H19   H     H_    0.181497 0.474099 0.693740 0.121948
H20   H     H_    0.320265 0.819741 0.865614 0.227126
H21   H     H_    0.240699 0.939550 0.800805 0.203904
H22   H     H_    0.856569 0.344549 0.170061 0.231347
H23   H     H_    0.926131 0.520930 0.790611 0.136077
H24   H     H_    0.689916 0.376548 0.155624 0.232928
H25   H     H_    0.339701 0.386096 0.169690 0.235215
H26   H     H_    0.336580 0.234656 0.184013 0.227860
H27   H     H_    0.323635 0.749790 0.301041 0.148465
H28   H     H_    0.729452 0.464521 0.823592 0.135871
H29   H     H_    0.527611 0.572634 0.709327 0.129144
H30   H     H_    0.902362 0.503301 0.673109 0.137119
H31   H     H_    0.912311 0.061699 0.803356 0.159859
H32   H     H_    0.458790 0.271221 0.830328 0.132546
H33   H     H_    0.428930 0.300651 0.704006 0.140971
H34   H     H_    0.158352 0.485304 0.822849 0.128298
H35   H     H_    0.488896 0.863393 0.806209 0.121609
N1    N     N_3   0.227686 0.872541 0.835817 -0.604495
N2    N     N_3   0.756596 0.419134 0.151552 -0.605927
N3    N     N_3   0.397535 0.276586 0.164030 -0.603649
O1    O     O_R   0.507430 0.255570 0.581420 -0.526050
O2    O     O_R   0.837200 0.593290 0.915250 -0.523159
O3    O     O_R   0.065330 0.635370 0.931590 -0.519230
O4    O     O_R   0.280190 0.527390 0.578910 -0.506418
O5    O     O_R   0.068300 0.828790 0.091860 -0.526145
O6    O     O_R   0.798730 0.057480 0.079370 -0.521411
O7    O     O_R   0.584680 0.080480 0.076790 -0.480414
O8    O     O_R   0.626790 0.809640 0.067050 -0.518939
O9    O     O_R   0.816010 0.596460 0.076500 -0.480968
O10   O     O_R   0.045680 0.638310 0.081070 -0.507065
O11   O     O_3   0.833590 0.833690 0.001120 -0.262234
O12   O     O_R   0.524460 0.695920 0.424060 -0.505154
O13   O     O_R   0.260310 0.739740 0.584580 -0.530021
O14   O     O_R   0.532250 0.695150 0.573830 -0.508820
O15   O     O_R   0.744930 0.503430 0.576380 -0.526444
O16   O     O_R   0.699250 0.276390 0.571950 -0.504114
O17   O     O_R   0.499020 0.256400 0.419850 -0.526801
O18   O     O_R   0.272400 0.528160 0.429140 -0.506368
O19   O     O_R   0.251910 0.740570 0.423020 -0.523444
O20   O     O_R   0.736530 0.504260 0.414810 -0.522616
O21   O     O_R   0.691460 0.277160 0.422180 -0.507055
O22   O     O_3   0.499990 0.499990 0.499980 -0.251526
O23   O     O_R   0.089490 0.825610 0.930610 -0.476435
O24   O     O_R   0.818370 0.054540 0.929880 -0.497044
O25   O     O_R   0.605870 0.077310 0.915530 -0.526105
O26   O     O_R   0.646440 0.806700 0.917570 -0.511126

loop_
_geom_bond_atom_site_label_1
_geom_bond_atom_site_label_2
_ccdc_geom_bond_type
Cr3   O16   S    
C4    O15   A    
H21   N1    S    
Cr1   O18   S    
H26   N3    S    
C27   C29   A    
C49   H31   S    
C35   O25   A    
C1    C11   S    
C43   C44   S    
C37   O3    A    
C16   O16   A    
C6    H19   S    
Cr5   O25   S    
Cr2   O19   S    
C28   O18   A    
C31   H11   S    
C4    O14   A    
Cr5   O8    S    
Cr5   O11   S    
C47   H29   S    
C21   C22   A    
C10   H2    S    
C38   O7    A    
C30   C31   A    
C21   N3    S    
H22   N2    S    
C22   C38   S    
C23   C43   S    
C12   H28   S    
Cr6   O2    S    
C18   C19   A    
C5    C16   S    
C2    C50   A    
C40   O20   A    
Cr2   O13   S    
C8    C9    A    
C41   O5    A    
C30   C41   S    
C2    H32   S    
C9    C10   A    
C14   N2    S    
Cr3   O22   S    
Cr1   O4    S    
Cr2   O12   S    
C23   C46   S    
C12   H17   S    
C45   H16   S    
Cr4   O6    S    
C44   H9    S    
Cr6   O3    S    
C12   C47   S    
C9    N1    S    
Cr5   O26   S    
Cr2   O22   S    
C5    C48   A    
C4    C34   S    
C13   C19   A    
C48   H18   S    
C7    C8    A    
C34   C44   S    
C24   C25   A    
Cr6   O10   S    
C38   O6    A    
C28   O19   A    
C6    C11   A    
C25   C26   A    
C45   C46   S    
C7    H34   S    
C27   C33   A    
C25   H8    S    
C42   O17   A    
C29   C30   A    
C36   O2    A    
C31   C32   A    
C12   C23   S    
C35   C50   S    
C17   C18   A    
C34   C45   S    
C44   H14   S    
C15   C39   S    
C46   H15   S    
C32   H13   S    
C1    O13   A    
C48   C49   A    
H20   N1    S    
C28   C33   S    
C23   C36   S    
C24   H7    S    
C10   C11   A    
Cr4   O24   S    
C22   C24   A    
Cr4   O5    S    
C8    C37   S    
C47   H12   S    
Cr3   O20   S    
C26   C42   S    
C39   O8    A    
C40   O12   A    
Cr3   O15   S    
C15   C17   A    
C16   O1    A    
Cr1   O17   S    
Cr4   O11   S    
Cr6   O9    S    
C3    C5    A    
C1    O4    A    
C18   H5    S    
C39   O9    A    
C6    C7    A    
C13   H3    S    
Cr5   O7    S    
Cr1   O22   S    
C41   O10   A    
C3    H33   S    
C32   C33   A    
C27   H27   S    
C2    C3    A    
H25   N3    S    
C46   H23   S    
C20   C26   A    
C45   H30   S    
C20   H6    S    
C36   O26   A    
C43   H35   S    
Cr6   O11   S    
C19   C40   S    
C43   H1    S    
C17   H4    S    
C29   H10   S    
C42   O21   A    
C37   O23   A    
C20   C21   A    
Cr2   O14   S    
C49   C50   A    
Cr4   O23   S    
C14   C15   A    
C35   O24   A    
C34   C47   S    
H24   N2    S    
C13   C14   A    
Cr3   O21   S    
Cr1   O1    S    
