data_mof_unit_64395.cif
_audit_creation_date              2012-12-10T17:41:16-0500
_audit_creation_method            fapswitch 2.2
_symmetry_space_group_name_H-M    P1
_symmetry_Int_Tables_number       1
_space_group_crystal_system       triclinic
_cell_length_a                    30.461463
_cell_length_b                    30.429193
_cell_length_c                    21.827728
_cell_angle_alpha                 89.984175
_cell_angle_beta                  89.933743
_cell_angle_gamma                 89.603944
_cell_volume                      20232.0106024

loop_
_atom_site_label
_atom_site_type_symbol
_atom_type_description
_atom_site_fract_x
_atom_site_fract_y
_atom_site_fract_z
_atom_type_partial_charge
C1    C     C_R   0.499896 0.085158 0.999870 0.988104
C2    C     C_R   0.085067 0.499766 0.999823 0.992813
C3    C     C_R   0.500236 0.914947 0.000146 0.992257
C4    C     C_R   0.914824 0.500103 0.000133 0.988253
C5    C     C_R   0.999872 0.585138 0.500083 0.998149
C6    C     C_R   0.585174 0.999825 0.499571 0.983777
C7    C     C_R   0.000126 0.414875 0.499961 0.987583
C8    C     C_R   0.414832 0.000079 0.500395 0.982844
C9    C     C_R   0.499976 0.225948 0.997890 0.039688
C10   C     C_R   0.225825 0.496310 0.000469 0.002724
C11   C     C_R   0.503723 0.774167 0.999395 0.002378
C12   C     C_R   0.774048 0.500020 0.001972 0.038798
C13   C     C_R   0.999424 0.726010 0.500184 0.041343
C14   C     C_R   0.725864 0.998033 0.496358 0.034350
C15   C     C_R   0.000577 0.274025 0.499952 0.020548
C16   C     C_R   0.274185 0.999440 0.503771 0.033097
C17   C     C_R   0.473208 0.296715 0.040750 0.371311
C18   C     C_R   0.297196 0.536167 0.992944 0.369629
C19   C     C_R   0.543528 0.701363 0.993395 0.372763
C20   C     C_R   0.702779 0.473286 0.042677 0.366110
C21   C     C_R   0.527072 0.297192 0.957678 0.366298
C22   C     C_R   0.703293 0.526343 0.958623 0.370654
C23   C     C_R   0.463951 0.702837 0.007753 0.369618
C24   C     C_R   0.298638 0.456406 0.005843 0.372171
C25   C     C_R   0.966951 0.797624 0.532761 0.368194
C26   C     C_R   0.795688 0.018356 0.546619 0.367720
C27   C     C_R   0.035441 0.202222 0.472557 0.366795
C28   C     C_R   0.202680 0.978529 0.549840 0.363720
C29   C     C_R   0.032062 0.796974 0.467108 0.367968
C30   C     C_R   0.203988 0.018395 0.452710 0.367520
C31   C     C_R   0.965552 0.202902 0.527870 0.366722
C32   C     C_R   0.797793 0.976012 0.451588 0.365120
C33   C     C_R   0.472102 0.343022 0.040839 0.284680
C34   C     C_R   0.342784 0.536989 0.001272 0.260201
C35   C     C_R   0.543253 0.655094 0.998451 0.279577
C36   C     C_R   0.656578 0.471726 0.040273 0.277718
C37   C     C_R   0.528589 0.343428 0.960103 0.277666
C38   C     C_R   0.657018 0.527480 0.958586 0.284700
C39   C     C_R   0.463052 0.657200 0.999595 0.260586
C40   C     C_R   0.344884 0.456718 0.000805 0.279659
C41   C     C_R   0.966062 0.843969 0.531303 0.278412
C42   C     C_R   0.841855 0.020171 0.547148 0.273682
C43   C     C_R   0.036511 0.155978 0.475490 0.280824
C44   C     C_R   0.156563 0.976349 0.546934 0.275316
C45   C     C_R   0.033292 0.843290 0.468608 0.278643
C46   C     C_R   0.157786 0.019741 0.451971 0.272637
C47   C     C_R   0.964135 0.156694 0.524820 0.280486
C48   C     C_R   0.843986 0.974469 0.454336 0.276043
C49   C     C_R   0.500057 0.366620 0.000397 -0.310513
C50   C     C_R   0.367070 0.497430 0.000568 -0.294809
C51   C     C_R   0.502581 0.632920 0.999502 -0.294942
C52   C     C_R   0.633396 0.499905 0.999527 -0.310650
C53   C     C_R   0.999781 0.866880 0.500000 -0.299749
C54   C     C_R   0.866405 0.998307 0.500559 -0.313700
C55   C     C_R   0.000210 0.133134 0.500044 -0.294115
C56   C     C_R   0.133655 0.998771 0.499506 -0.314483
C57   C     C_R   0.499904 0.274293 0.998485 -0.092642
C58   C     C_R   0.274647 0.496121 0.999336 -0.066367
C59   C     C_R   0.503908 0.725355 0.000583 -0.067108
C60   C     C_R   0.725704 0.500063 0.001368 -0.091377
C61   C     C_R   0.999444 0.774519 0.499965 -0.090559
C62   C     C_R   0.774112 0.997583 0.497973 -0.088370
C63   C     C_R   0.000555 0.225469 0.500179 -0.076189
C64   C     C_R   0.225948 0.999079 0.502425 -0.087327
C65   C     C_R   0.584955 0.500175 0.999874 0.770118
C66   C     C_R   0.499808 0.415055 0.000102 0.770317
C67   C     C_R   0.415220 0.499074 0.000114 0.797679
C68   C     C_R   0.500946 0.584772 0.999909 0.798678
C69   C     C_R   0.085059 0.999792 0.499842 0.776283
C70   C     C_R   0.999956 0.915155 0.500005 0.768807
C71   C     C_R   0.914957 0.999727 0.500158 0.773905
C72   C     C_R   0.000042 0.084844 0.500001 0.789978
C73   C     C_R   0.499950 0.000344 0.118763 0.924427
C74   C     C_R   0.999742 0.499989 0.118772 0.923139
C75   C     C_R   0.500040 0.000305 0.881236 0.922976
C76   C     C_R   0.999610 0.500045 0.881230 0.924516
C77   C     C_R   0.999926 0.500272 0.618697 0.924558
C78   C     C_R   0.500163 0.000033 0.618707 0.919298
C79   C     C_R   0.999987 0.499941 0.381300 0.924208
C80   C     C_R   0.499827 0.000049 0.381295 0.919392
C81   C     C_R   0.548001 0.933938 0.188853 0.441369
C82   C     C_R   0.934040 0.451233 0.188797 0.429532
C83   C     C_R   0.450746 0.066500 0.188644 0.427071
C84   C     C_R   0.065527 0.548118 0.188764 0.439979
C85   C     C_R   0.452212 0.934338 0.811182 0.441297
C86   C     C_R   0.065838 0.451860 0.810953 0.443932
C87   C     C_R   0.548784 0.066111 0.811249 0.427113
C88   C     C_R   0.933550 0.549420 0.811563 0.425642
C89   C     C_R   0.048136 0.433843 0.688542 0.438835
C90   C     C_R   0.434127 0.952038 0.688655 0.430737
C91   C     C_R   0.950633 0.566452 0.688391 0.426955
C92   C     C_R   0.566100 0.048623 0.688227 0.427434
C93   C     C_R   0.951802 0.433829 0.311621 0.435273
C94   C     C_R   0.566019 0.951392 0.311379 0.430096
C95   C     C_R   0.047895 0.566124 0.311386 0.431305
C96   C     C_R   0.433716 0.049358 0.311794 0.427397
C97   C     C_R   0.579768 0.909381 0.219765 0.487237
C98   C     C_R   0.910090 0.419509 0.220181 0.471658
C99   C     C_R   0.419078 0.090928 0.220024 0.477920
C100  C     C_R   0.089679 0.579857 0.219701 0.489742
C101  C     C_R   0.420533 0.910123 0.780260 0.486668
C102  C     C_R   0.090231 0.419972 0.779921 0.480489
C103  C     C_R   0.580376 0.090218 0.779876 0.478031
C104  C     C_R   0.909168 0.581148 0.780275 0.481496
C105  C     C_R   0.079993 0.409578 0.719736 0.476288
C106  C     C_R   0.410116 0.920354 0.720032 0.472382
C107  C     C_R   0.918988 0.590941 0.719731 0.477319
C108  C     C_R   0.590336 0.080167 0.719421 0.483050
C109  C     C_R   0.920302 0.409486 0.280544 0.487183
C110  C     C_R   0.590147 0.919475 0.279997 0.471918
C111  C     C_R   0.079486 0.590229 0.279983 0.466069
C112  C     C_R   0.409281 0.081073 0.280555 0.483626
C113  C     C_R   0.530770 0.974033 0.282114 -0.213063
C114  C     C_R   0.973800 0.469077 0.282156 -0.220596
C115  C     C_R   0.468873 0.026733 0.282230 -0.213454
C116  C     C_R   0.025693 0.530904 0.282094 -0.208145
C117  C     C_R   0.469309 0.974290 0.717906 -0.213638
C118  C     C_R   0.025751 0.469229 0.717857 -0.221479
C119  C     C_R   0.530999 0.026374 0.717769 -0.212798
C120  C     C_R   0.973230 0.531257 0.717873 -0.207400
C121  C     C_R   0.030415 0.473976 0.781760 -0.221063
C122  C     C_R   0.474097 0.969615 0.781849 -0.222018
C123  C     C_R   0.968625 0.526683 0.782003 -0.210682
C124  C     C_R   0.526364 0.031088 0.781861 -0.209337
C125  C     C_R   0.969016 0.473730 0.218122 -0.208682
C126  C     C_R   0.526001 0.969425 0.218177 -0.221952
C127  C     C_R   0.030344 0.526134 0.218123 -0.222928
C128  C     C_R   0.473426 0.031353 0.218107 -0.209583
C129  C     C_R   0.499803 0.000267 0.314422 0.049395
C130  C     C_R   0.999854 0.499951 0.314397 0.049946
C131  C     C_R   0.500185 0.000216 0.685583 0.049407
C132  C     C_R   0.999642 0.500288 0.685597 0.050079
C133  C     C_R   0.999499 0.500218 0.814209 0.048640
C134  C     C_R   0.500163 0.000372 0.814194 0.048389
C135  C     C_R   0.999667 0.499964 0.185790 0.048566
C136  C     C_R   0.499800 0.000418 0.185808 0.048419
C137  C     C_R   0.538327 0.202728 0.012449 -0.131870
C138  C     C_R   0.201976 0.463954 0.969421 -0.147747
C139  C     C_R   0.470416 0.797211 0.968196 -0.146969
C140  C     C_R   0.796834 0.538721 0.014719 -0.131715
C141  C     C_R   0.461539 0.203144 0.983943 -0.131885
C142  C     C_R   0.797302 0.461405 0.988665 -0.132707
C143  C     C_R   0.536143 0.798022 0.030217 -0.147398
C144  C     C_R   0.202742 0.529549 0.031892 -0.148149
C145  C     C_R   0.035728 0.702715 0.522853 -0.131089
C146  C     C_R   0.702722 0.958642 0.500205 -0.132370
C147  C     C_R   0.964159 0.297370 0.477664 -0.144946
C148  C     C_R   0.296679 0.039359 0.504493 -0.138447
C149  C     C_R   0.963169 0.703049 0.477675 -0.129837
C150  C     C_R   0.297611 0.959827 0.502402 -0.134029
C151  C     C_R   0.036938 0.297053 0.522076 -0.144184
C152  C     C_R   0.703071 0.038013 0.492958 -0.137897
C153  C     C_R   0.538429 0.156973 0.013234 0.594341
C154  C     C_R   0.156298 0.463953 0.971445 0.606683
C155  C     C_R   0.467844 0.842805 0.971142 0.606942
C156  C     C_R   0.842594 0.538980 0.014113 0.595143
C157  C     C_R   0.461285 0.157353 0.984588 0.593580
C158  C     C_R   0.843028 0.461297 0.987953 0.594283
C159  C     C_R   0.536115 0.843726 0.028244 0.607701
C160  C     C_R   0.157183 0.532141 0.028931 0.606439
C161  C     C_R   0.036011 0.656898 0.522846 0.586440
C162  C     C_R   0.657024 0.959032 0.501115 0.601153
C163  C     C_R   0.963648 0.343128 0.478343 0.610019
C164  C     C_R   0.342392 0.039832 0.503379 0.602481
C165  C     C_R   0.963087 0.657213 0.477770 0.589331
C166  C     C_R   0.343270 0.959879 0.501467 0.602929
C167  C     C_R   0.037226 0.342833 0.521301 0.608130
C168  C     C_R   0.657369 0.038822 0.493947 0.601495
C169  C     C_R   0.499810 0.133658 0.999329 -0.268056
C170  C     C_R   0.133357 0.498810 0.999757 -0.337909
C171  C     C_R   0.501205 0.866649 0.000160 -0.338083
C172  C     C_R   0.866323 0.500184 0.000644 -0.270240
C173  C     C_R   0.999625 0.633606 0.500263 -0.256072
C174  C     C_R   0.633666 0.999254 0.498292 -0.285717
C175  C     C_R   0.000365 0.366436 0.499836 -0.328394
C176  C     C_R   0.366355 0.999995 0.501663 -0.290330
Cu1   Cu    Cu3+1 0.455950 0.000000 0.000000 1.207718
Cu2   Cu    Cu3+1 0.000000 0.544050 0.000000 1.209584
Cu3   Cu    Cu3+1 0.544050 0.000000 0.000000 1.208247
Cu4   Cu    Cu3+1 0.000000 0.455950 0.000000 1.205653
Cu5   Cu    Cu3+1 0.955950 0.500000 0.500000 1.212236
Cu6   Cu    Cu3+1 0.500000 0.044050 0.500000 1.219746
Cu7   Cu    Cu3+1 0.044050 0.500000 0.500000 1.206834
Cu8   Cu    Cu3+1 0.500000 0.955950 0.500000 1.215977
Cu9   Cu    Cu3+1 0.500000 0.500000 0.061790 1.063624
Cu10  Cu    Cu3+1 0.500000 0.500000 0.938210 1.063834
Cu11  Cu    Cu3+1 0.000000 0.000000 0.561790 1.080677
Cu12  Cu    Cu3+1 0.000000 0.000000 0.438210 1.080658
H1    H     H_    0.568105 0.220176 0.023874 0.205216
H2    H     H_    0.218555 0.438481 0.943458 0.235826
H3    H     H_    0.445776 0.779926 0.942067 0.233781
H4    H     H_    0.779049 0.568732 0.025318 0.206715
H5    H     H_    0.431749 0.220936 0.972382 0.205713
H6    H     H_    0.779906 0.431400 0.978171 0.205828
H7    H     H_    0.561679 0.781417 0.055953 0.235561
H8    H     H_    0.219957 0.554126 0.058252 0.234127
H9    H     H_    0.063779 0.720137 0.540922 0.205464
H10   H     H_    0.720174 0.927574 0.503332 0.208859
H11   H     H_    0.936024 0.280062 0.459647 0.220321
H12   H     H_    0.278692 0.070192 0.505674 0.207524
H13   H     H_    0.935054 0.720735 0.459556 0.206387
H14   H     H_    0.280398 0.928792 0.501327 0.209225
H15   H     H_    0.065137 0.279494 0.540167 0.220391
H16   H     H_    0.720830 0.068663 0.489790 0.206486
O1    O     O_R   0.462810 0.064270 0.999990 -0.508651
O2    O     O_R   0.064270 0.537190 0.999990 -0.522277
O3    O     O_R   0.537190 0.935730 0.999990 -0.525239
O4    O     O_R   0.935730 0.462810 0.999990 -0.508236
O5    O     O_R   0.537190 0.064270 0.000010 -0.507961
O6    O     O_R   0.935730 0.537190 0.000010 -0.508061
O7    O     O_R   0.462810 0.935730 0.000010 -0.522639
O8    O     O_R   0.064270 0.462810 0.000010 -0.526238
O9    O     O_R   0.962810 0.564270 0.499990 -0.511783
O10   O     O_R   0.564270 0.037190 0.499990 -0.506588
O11   O     O_R   0.037190 0.435730 0.499990 -0.520328
O12   O     O_R   0.435730 0.962810 0.499990 -0.509044
O13   O     O_R   0.037190 0.564270 0.500010 -0.512364
O14   O     O_R   0.435730 0.037190 0.500010 -0.507791
O15   O     O_R   0.962810 0.435730 0.500010 -0.518147
O16   O     O_R   0.564270 0.962810 0.500010 -0.509328
O17   O     O_R   0.462810 0.999990 0.090160 -0.568091
O18   O     O_R   0.999990 0.537190 0.090160 -0.554177
O19   O     O_R   0.537190 0.000010 0.090160 -0.554687
O20   O     O_R   0.000010 0.462810 0.090160 -0.569212
O21   O     O_R   0.537190 0.999990 0.909840 -0.567952
O22   O     O_R   0.000010 0.537190 0.909840 -0.567063
O23   O     O_R   0.462810 0.000010 0.909840 -0.554839
O24   O     O_R   0.999990 0.462810 0.909840 -0.556209
O25   O     O_R   0.962810 0.499990 0.590160 -0.569346
O26   O     O_R   0.499990 0.037190 0.590160 -0.561564
O27   O     O_R   0.037190 0.500010 0.590160 -0.553138
O28   O     O_R   0.500010 0.962810 0.590160 -0.561838
O29   O     O_R   0.037190 0.499990 0.409840 -0.572006
O30   O     O_R   0.500010 0.037190 0.409840 -0.560106
O31   O     O_R   0.962810 0.500010 0.409840 -0.550630
O32   O     O_R   0.499990 0.962810 0.409840 -0.563397
O33   O     O_R   0.564270 0.500020 0.052180 -0.552761
O34   O     O_R   0.500020 0.435730 0.052180 -0.563174
O35   O     O_R   0.435730 0.499980 0.052180 -0.573820
O36   O     O_R   0.499980 0.564270 0.052180 -0.565351
O37   O     O_R   0.435730 0.500020 0.947820 -0.565556
O38   O     O_R   0.499980 0.435730 0.947820 -0.552995
O39   O     O_R   0.564270 0.499980 0.947820 -0.562877
O40   O     O_R   0.500020 0.564270 0.947820 -0.573324
O41   O     O_R   0.064270 0.000020 0.552180 -0.551525
O42   O     O_R   0.000020 0.935730 0.552180 -0.558416
O43   O     O_R   0.935730 0.999980 0.552180 -0.558617
O44   O     O_R   0.999980 0.064270 0.552180 -0.558510
O45   O     O_R   0.935730 0.000020 0.447820 -0.551553
O46   O     O_R   0.999980 0.935730 0.447820 -0.558096
O47   O     O_R   0.064270 0.999980 0.447820 -0.558261
O48   O     O_R   0.000020 0.064270 0.447820 -0.559079
F1    F     F_    0.397057 0.123750 0.190980 -0.515266
F2    F     F_    0.122592 0.601250 0.190575 -0.500931
F3    F     F_    0.601172 0.876162 0.190672 -0.502082
F4    F     F_    0.877443 0.397633 0.191287 -0.516260
F5    F     F_    0.602161 0.122915 0.808852 -0.515621
F6    F     F_    0.876412 0.603221 0.809413 -0.515047
F7    F     F_    0.399231 0.877123 0.809356 -0.500789
F8    F     F_    0.123383 0.398440 0.808867 -0.502928
F9    F     F_    0.897045 0.623800 0.690654 -0.518114
F10   F     F_    0.623094 0.101793 0.690281 -0.511480
F11   F     F_    0.101800 0.376534 0.690827 -0.505904
F12   F     F_    0.377295 0.898674 0.691235 -0.512059
F13   F     F_    0.101124 0.623091 0.308805 -0.519223
F14   F     F_    0.376465 0.103042 0.309717 -0.510534
F15   F     F_    0.898915 0.376555 0.309679 -0.505103
F16   F     F_    0.623031 0.897430 0.308801 -0.512891
F17   F     F_    0.536959 0.920832 0.131785 -0.601972
F18   F     F_    0.920940 0.461198 0.131089 -0.622857
F19   F     F_    0.460449 0.079298 0.130738 -0.622824
F20   F     F_    0.078739 0.537133 0.131611 -0.600591
F21   F     F_    0.463235 0.921100 0.868287 -0.600595
F22   F     F_    0.079015 0.462879 0.867996 -0.600686
F23   F     F_    0.538855 0.079129 0.869033 -0.623913
F24   F     F_    0.920773 0.539711 0.869476 -0.622965
F25   F     F_    0.037809 0.420682 0.631111 -0.604599
F26   F     F_    0.420913 0.962210 0.631072 -0.619996
F27   F     F_    0.960417 0.579263 0.630522 -0.624778
F28   F     F_    0.579085 0.038546 0.630476 -0.619850
F29   F     F_    0.962250 0.420789 0.369124 -0.606147
F30   F     F_    0.579164 0.961368 0.368993 -0.620786
F31   F     F_    0.037776 0.579267 0.369054 -0.623761
F32   F     F_    0.420872 0.039512 0.369631 -0.618298
F33   F     F_    0.576204 0.135803 0.028665 -0.581737
F34   F     F_    0.134827 0.430109 0.944719 -0.525500
F35   F     F_    0.433062 0.863321 0.944625 -0.524532
F36   F     F_    0.863378 0.577105 0.027487 -0.579602
F37   F     F_    0.423468 0.136501 0.969955 -0.581964
F38   F     F_    0.864181 0.423208 0.973834 -0.581152
F39   F     F_    0.569988 0.865233 0.054779 -0.525053
F40   F     F_    0.136681 0.566921 0.055593 -0.524219
F41   F     F_    0.071530 0.635532 0.546131 -0.590085
F42   F     F_    0.636025 0.919946 0.505386 -0.570623
F43   F     F_    0.927440 0.364353 0.456972 -0.533469
F44   F     F_    0.362824 0.079332 0.503848 -0.567300
F45   F     F_    0.927674 0.636136 0.454548 -0.587463
F46   F     F_    0.364489 0.920515 0.499951 -0.567748
F47   F     F_    0.073280 0.363796 0.542702 -0.534998
F48   F     F_    0.636689 0.078409 0.490642 -0.570411
O49   O     O_3   0.448226 0.272057 0.080981 -0.660673
H17   H     H_    0.431985 0.291491 0.109536 0.402514
O50   O     O_3   0.273753 0.574199 0.980071 -0.682419
H18   H     H_    0.294157 0.598522 0.970830 0.400468
O51   O     O_3   0.581872 0.723988 0.981524 -0.684501
H19   H     H_    0.606201 0.703115 0.973134 0.400619
O52   O     O_3   0.726800 0.448402 0.084042 -0.660915
H20   H     H_    0.706866 0.432667 0.112206 0.399951
O53   O     O_3   0.552362 0.273108 0.916801 -0.660635
H21   H     H_    0.568403 0.293038 0.888966 0.399976
O54   O     O_3   0.727926 0.550914 0.917871 -0.661264
H22   H     H_    0.708513 0.566830 0.888991 0.402465
O55   O     O_3   0.426079 0.726369 0.021166 -0.682727
H23   H     H_    0.401835 0.705986 0.030859 0.400369
O56   O     O_3   0.276045 0.417922 0.017074 -0.685389
H24   H     H_    0.296899 0.393515 0.025093 0.400490
O57   O     O_3   0.936295 0.773648 0.565353 -0.662847
H25   H     H_    0.916350 0.793603 0.588097 0.400960
O58   O     O_3   0.770335 0.037284 0.592416 -0.662421
H26   H     H_    0.789257 0.049496 0.624941 0.402396
O59   O     O_3   0.068286 0.225836 0.443883 -0.681311
H27   H     H_    0.089295 0.205605 0.423568 0.398546
O60   O     O_3   0.226263 0.959997 0.597614 -0.663207
H28   H     H_    0.206015 0.948838 0.629408 0.398900
O61   O     O_3   0.062540 0.772386 0.434481 -0.662377
H29   H     H_    0.082570 0.791938 0.411654 0.400981
O62   O     O_3   0.228974 0.036313 0.405999 -0.663895
H30   H     H_    0.209822 0.047542 0.372862 0.401847
O63   O     O_3   0.932910 0.227156 0.556679 -0.679920
H31   H     H_    0.911789 0.207339 0.577016 0.399144
O64   O     O_3   0.774562 0.955998 0.404923 -0.662589
H32   H     H_    0.795018 0.944088 0.373735 0.399117
O65   O     O_3   0.443353 0.363676 0.080807 -0.675045
H33   H     H_    0.435672 0.393181 0.065304 0.358473
O66   O     O_3   0.362258 0.576894 0.011820 -0.678859
H34   H     H_    0.387853 0.572006 0.038986 0.354733
O67   O     O_3   0.583014 0.632968 0.001012 -0.706339
H35   H     H_    0.578605 0.603186 0.017986 0.319795
O68   O     O_3   0.635281 0.441755 0.077291 -0.683468
H36   H     H_    0.608268 0.431810 0.056441 0.335521
O69   O     O_3   0.558842 0.364742 0.923560 -0.683916
H37   H     H_    0.568436 0.391918 0.944404 0.335184
O70   O     O_3   0.636407 0.555888 0.918159 -0.674675
H38   H     H_    0.607093 0.564016 0.933875 0.359007
O71   O     O_3   0.423099 0.637657 0.989959 -0.678762
H39   H     H_    0.427717 0.612048 0.962646 0.354227
O72   O     O_3   0.366968 0.416928 0.997508 -0.706109
H40   H     H_    0.396786 0.421482 0.980819 0.320311
O73   O     O_3   0.931662 0.865515 0.560276 -0.690063
H41   H     H_    0.927793 0.895292 0.542856 0.330809
O74   O     O_3   0.861585 0.043397 0.593810 -0.669803
H42   H     H_    0.887936 0.057940 0.577500 0.357033
O75   O     O_3   0.073653 0.134224 0.455084 -0.699722
H43   H     H_    0.076900 0.106612 0.478612 0.311500
O76   O     O_3   0.135018 0.951133 0.589985 -0.678923
H44   H     H_    0.110298 0.936112 0.569492 0.339716
O77   O     O_3   0.067832 0.864134 0.439623 -0.689882
H45   H     H_    0.071947 0.893802 0.457097 0.331462
O78   O     O_3   0.137590 0.041488 0.404074 -0.669721
H46   H     H_    0.111432 0.056990 0.419925 0.359123
O79   O     O_3   0.926891 0.135693 0.545375 -0.697037
H47   H     H_    0.923441 0.108129 0.521933 0.312123
O80   O     O_3   0.866100 0.948576 0.412295 -0.679241
H48   H     H_    0.891640 0.934795 0.432992 0.338890

loop_
_geom_bond_atom_site_label_1
_geom_bond_atom_site_label_2
_ccdc_geom_bond_type
O77   H45   S    
C27   O59   S    
C81   C126  A    
C76   O24   A    
C71   O43   A    
C83   C128  A    
C33   O65   S    
C15   C151  A    
O67   H35   S    
C25   O57   S    
O65   H33   S    
C96   F32   S    
C45   O77   S    
C31   C47   A    
C92   C119  A    
Cu11  O42   S    
C88   C123  A    
C22   C60   A    
C87   C124  A    
Cu9   O36   S    
C22   C38   A    
C154  C170  A    
Cu12  O48   S    
C157  C169  A    
C18   C58   A    
C5    O13   A    
C108  F10   S    
Cu7   O29   S    
C144  C160  A    
C94   F30   S    
C138  C154  A    
C126  C136  A    
C98   C109  A    
C82   C98   A    
C142  C158  A    
C100  F2    S    
C89   C105  A    
C4    O4    A    
Cu5   Cu7   S    
C40   O72   S    
Cu7   O11   S    
Cu3   O3    S    
O60   H28   S    
C84   C100  A    
C90   C117  A    
C91   C107  A    
C68   O36   A    
C25   C41   A    
Cu10  O38   S    
C148  H12   S    
C6    C174  S    
O49   H17   S    
C79   C130  S    
C28   C44   A    
C29   C45   A    
C82   C125  A    
C146  C162  A    
O50   H18   S    
C105  F11   S    
C5    O9    A    
C86   C121  A    
C106  F12   S    
C142  H6    S    
C137  C153  A    
C107  F9    S    
O53   H21   S    
C140  C156  A    
C87   C103  A    
C69   O41   A    
C20   O52   S    
C95   F31   S    
C153  F33   S    
C145  H9    S    
C158  F38   S    
C41   O73   S    
C8    O12   A    
Cu4   O4    S    
C76   C133  S    
C77   O25   A    
C73   O17   A    
C3    O3    A    
C72   O44   A    
C75   O23   A    
C32   C62   A    
C19   C35   A    
C158  C172  A    
C145  C161  A    
C151  C167  A    
Cu2   O2    S    
C102  F8    S    
Cu4   O20   S    
C93   C114  A    
C69   O47   A    
O66   H34   S    
Cu8   O16   S    
C28   O60   S    
C116  C130  A    
C100  C111  A    
O59   H27   S    
O78   H46   S    
Cu11  Cu12  S    
C10   C138  A    
C78   O28   A    
C71   O45   A    
C104  C107  A    
C52   C65   S    
C77   C132  S    
C39   C51   A    
C146  H10   S    
O73   H41   S    
C80   O32   A    
O74   H42   S    
C13   C145  A    
C163  C175  A    
O55   H23   S    
C75   C134  S    
C168  C174  A    
C10   C58   S    
C165  F45   S    
C150  C166  A    
C101  F7    S    
Cu2   O6    S    
C23   O55   S    
Cu4   O8    S    
C122  C134  A    
Cu11  O43   S    
C92   C108  A    
Cu9   O33   S    
C12   C142  A    
Cu1   Cu3   S    
C119  C131  A    
C22   O54   S    
C2    O2    A    
C50   C67   S    
C36   C52   A    
C38   O70   S    
C45   C53   A    
Cu7   O13   S    
C66   O34   A    
C87   F23   S    
C160  F40   S    
C88   C104  A    
C94   C113  A    
C3    O7    A    
C29   C61   A    
C77   O27   A    
C49   C66   S    
C73   O19   A    
C1    O5    A    
C148  C164  A    
C31   C63   A    
C75   O21   A    
C149  C165  A    
C111  F13   S    
Cu6   O30   S    
C10   C144  A    
C113  C126  A    
C19   C59   A    
C156  C172  A    
C115  C128  A    
C92   F28   S    
C117  C122  A    
C139  C155  A    
C95   C116  A    
C18   O50   S    
C89   F25   S    
C104  F6    S    
C91   F27   S    
C41   C53   A    
C37   C49   A    
C6    O16   A    
C37   O69   S    
C44   O76   S    
C31   O63   S    
C86   C102  A    
Cu7   O27   S    
C26   C42   A    
C167  C175  A    
C43   C55   A    
C101  C106  A    
C80   C129  S    
C4    C172  S    
C5    C173  S    
C30   C46   A    
C163  F43   S    
C8    C176  S    
C144  H8    S    
C124  C134  A    
C94   C110  A    
Cu11  O41   S    
C147  C163  A    
C125  C135  A    
C141  H5    S    
C11   C143  A    
C67   O35   A    
C85   F21   S    
C154  F34   S    
Cu12  O45   S    
C117  C131  A    
Cu6   Cu8   S    
C118  C132  A    
C42   O74   S    
C56   C69   S    
C14   C152  A    
C16   C150  A    
Cu1   O17   S    
C93   C109  A    
C30   C64   A    
C114  C130  A    
C19   O51   S    
C147  H11   S    
C109  F15   S    
C110  F16   S    
O75   H43   S    
C65   O39   A    
C159  C171  A    
C123  C133  A    
C127  C135  A    
C139  H3    S    
C128  C136  A    
Cu10  O39   S    
Cu8   O12   S    
C33   C49   A    
C74   O20   A    
C168  F48   S    
C102  C105  A    
C11   C139  A    
Cu8   O32   S    
C9    C137  A    
C54   C71   S    
C43   O75   S    
C116  C127  A    
Cu5   O15   S    
O80   H48   S    
C12   C140  A    
C20   C60   A    
C70   O46   A    
C120  C123  A    
C97   F3    S    
O56   H24   S    
C83   C99   A    
C21   O53   S    
C32   C48   A    
C17   C33   A    
C11   C59   S    
C53   C70   S    
C98   F4    S    
C152  C168  A    
C166  F46   S    
O52   H20   S    
C79   O29   A    
O72   H40   S    
O69   H37   S    
Cu4   O24   S    
Cu3   O21   S    
Cu12  O47   S    
C23   C59   A    
O64   H32   S    
C80   O30   A    
Cu1   O23   S    
C161  C173  A    
C44   C56   A    
O68   H36   S    
C6    O10   A    
C73   C136  S    
C143  H7    S    
C74   C135  S    
C32   O64   S    
C81   F17   S    
C30   O62   S    
C85   C122  A    
C25   C61   A    
C83   F19   S    
C90   C106  A    
C27   C63   A    
C70   O42   A    
C28   C64   A    
C17   O49   S    
C150  H14   S    
C164  F44   S    
Cu3   O5    S    
C161  F41   S    
C47   O79   S    
Cu10  O37   S    
Cu2   Cu4   S    
C143  C159  A    
C78   O26   A    
C74   O18   A    
C2    O8    A    
C16   C148  A    
C90   F26   S    
O62   H30   S    
C42   C54   A    
C15   C147  A    
O70   H38   S    
Cu9   Cu10  S    
C40   C50   A    
Cu1   O1    S    
C164  C176  A    
C29   O61   S    
C88   F24   S    
O61   H29   S    
C159  F39   S    
C8    O14   A    
C79   O31   A    
O58   H26   S    
C20   C36   A    
C27   C43   A    
C21   C37   A    
C24   C58   A    
O51   H19   S    
C153  C169  A    
C152  H16   S    
C7    O11   A    
C17   C57   A    
C14   C62   S    
Cu10  O40   S    
O54   H22   S    
C34   O66   S    
O63   H31   S    
C93   F29   S    
C67   O37   A    
Cu9   O35   S    
C119  C124  A    
C48   C54   A    
C96   C112  A    
C113  C129  A    
C86   F22   S    
C38   C52   A    
C165  C173  A    
C4    O6    A    
O76   H44   S    
Cu5   O25   S    
C7    C175  S    
C96   C115  A    
C103  C108  A    
C1    O1    A    
C46   O78   S    
C55   C72   S    
C7    O15   A    
C84   C127  A    
C103  F5    S    
C65   O33   A    
C138  H2    S    
C149  H13   S    
C24   O56   S    
Cu6   O26   S    
C35   O67   S    
C34   C50   A    
C84   F20   S    
C76   O22   A    
C157  F37   S    
Cu8   O28   S    
C114  C125  A    
C9    C141  A    
C66   O38   A    
C39   O71   S    
Cu3   O19   S    
C118  C121  A    
C78   C131  S    
C21   C57   A    
Cu11  O44   S    
Cu5   O31   S    
Cu9   O34   S    
C72   O48   A    
Cu12  O46   S    
C18   C34   A    
C26   O58   S    
C137  H1    S    
C2    C170  S    
Cu6   O14   S    
C140  H4    S    
C48   O80   S    
C36   O68   S    
C155  F35   S    
C112  F14   S    
C156  F36   S    
C85   C101  A    
C47   C55   A    
C115  C129  A    
C141  C157  A    
C15   C63   S    
C167  F47   S    
C120  C132  A    
C151  H15   S    
C46   C56   A    
Cu5   O9    S    
C162  C174  A    
O79   H47   S    
C14   C146  A    
C166  C176  A    
C82   F18   S    
Cu1   O7    S    
C26   C62   A    
C13   C149  A    
C99   F1    S    
C95   C111  A    
C35   C51   A    
C97   C110  A    
C3    C171  S    
C81   C97   A    
C68   O40   A    
C23   C39   A    
C99   C112  A    
C1    C169  S    
C24   C40   A    
C9    C57   S    
C51   C68   S    
O57   H25   S    
Cu2   O22   S    
C12   C60   S    
C155  C171  A    
C13   C61   S    
C89   C118  A    
Cu6   O10   S    
C160  C170  A    
C91   C120  A    
Cu2   O18   S    
C16   C64   S    
C121  C133  A    
O71   H39   S    
C162  F42   S    
