data_mof_unit_6704.cif
_audit_creation_date              2012-12-11T17:12:43-0500
_audit_creation_method            fapswitch 2.2
_symmetry_space_group_name_H-M    P1
_symmetry_Int_Tables_number       1
_space_group_crystal_system       triclinic
_cell_length_a                    17.232124
_cell_length_b                    6.889065
_cell_length_c                    14.369737
_cell_angle_alpha                 89.930676
_cell_angle_beta                  110.146726
_cell_angle_gamma                 90.110103
_cell_volume                      1601.49816533

loop_
_atom_site_label
_atom_site_type_symbol
_atom_type_description
_atom_site_fract_x
_atom_site_fract_y
_atom_site_fract_z
_atom_type_partial_charge
O1    O     O_R   0.314130 0.635770 0.168990 -0.520737
O2    O     O_R   0.685870 0.364230 0.831010 -0.520738
O3    O     O_R   0.185870 0.135770 0.331010 -0.535826
O4    O     O_R   0.814130 0.864230 0.668990 -0.535826
O5    O     O_R   0.146800 0.302460 0.139760 -0.533479
O6    O     O_R   0.853200 0.697540 0.860240 -0.533479
O7    O     O_R   0.353200 0.802460 0.360240 -0.530276
O8    O     O_R   0.646800 0.197540 0.639760 -0.530276
C1    C     C_R   0.114022 0.475774 0.112800 0.725960
C2    C     C_R   0.885977 0.524226 0.887199 0.725960
C3    C     C_R   0.385973 0.975876 0.387198 0.736824
C4    C     C_R   0.614027 0.024123 0.612802 0.736823
O9    O     O_R   0.311100 0.305780 0.157130 -0.549001
O10   O     O_R   0.688900 0.694220 0.842870 -0.549001
O11   O     O_R   0.188900 0.805780 0.342870 -0.540913
O12   O     O_R   0.811100 0.194220 0.657130 -0.540913
O13   O     O_R   0.351340 0.139640 0.348510 -0.539876
O14   O     O_R   0.648660 0.860360 0.651490 -0.539875
O15   O     O_R   0.148660 0.639640 0.151490 -0.531565
O16   O     O_R   0.851340 0.360360 0.848510 -0.531565
C5    C     C_R   0.333964 0.474774 0.137428 0.765978
C6    C     C_R   0.666035 0.525226 0.862572 0.765978
C7    C     C_R   0.166946 0.974441 0.363594 0.769453
C8    C     C_R   0.833054 0.025559 0.636406 0.769453
C9    C     C_1   0.533589 0.008863 0.533057 -0.090471
C10   C     C_1   0.466411 0.991137 0.466943 -0.090471
C11   C     C_1   0.966418 0.508991 0.966950 -0.083722
C12   C     C_1   0.033582 0.491009 0.033050 -0.083722
O17   O     O_3   0.263010 0.470920 0.312770 -0.374337
O18   O     O_3   0.736990 0.529080 0.687230 -0.374337
O19   O     O_3   0.236990 0.970920 0.187230 -0.366600
O20   O     O_3   0.763010 0.029080 0.812770 -0.366600
V1    V     V_3+5 0.247590 0.194450 0.238360 1.568364
V2    V     V_3+5 0.752410 0.805550 0.761640 1.568364
V3    V     V_3+5 0.252410 0.694450 0.261640 1.580539
V4    V     V_3+5 0.747590 0.305550 0.738360 1.580539
C13   C     C_R   0.116917 0.981627 0.428941 -0.270284
C14   C     C_R   0.883083 0.018373 0.571059 -0.270285
C15   C     C_R   0.383264 0.483755 0.071251 -0.261732
C16   C     C_R   0.616736 0.516245 0.928748 -0.261733
C17   C     C_R   0.894894 0.058071 0.408185 0.521141
C18   C     C_R   0.105106 0.941929 0.591815 0.521141
C19   C     C_R   0.605703 0.551653 0.092138 0.517755
C20   C     C_R   0.394297 0.448345 0.907861 0.517754
C21   C     C_R   0.845117 0.041018 0.467931 -0.228060
C22   C     C_R   0.154883 0.958983 0.532069 -0.228060
C23   C     C_R   0.652870 0.566962 0.029366 -0.229469
C24   C     C_R   0.347129 0.433036 0.970634 -0.229469
C25   C     C_R   0.969628 0.003663 0.613625 0.412591
C26   C     C_R   0.030372 0.996337 0.386375 0.412591
C27   C     C_R   0.533530 0.456538 0.890503 0.413324
C28   C     C_R   0.466469 0.543463 0.109496 0.413324
C29   C     C_R   0.018999 0.985674 0.552263 -0.147127
C30   C     C_R   0.981001 0.014326 0.447737 -0.147127
C31   C     C_R   0.481611 0.475850 0.948655 -0.143432
C32   C     C_R   0.518389 0.524150 0.051344 -0.143433
Cl1   Cl    Cl    0.986745 0.959579 0.256232 -0.540034
Cl2   Cl    Cl    0.013255 0.040419 0.743768 -0.540035
Cl3   Cl    Cl    0.499444 0.662644 0.226264 -0.553554
Cl4   Cl    Cl    0.500555 0.337359 0.773734 -0.553554
C33   C     C_2   0.246842 0.946012 0.576269 0.651915
H1    H     H_    0.283055 0.897847 0.532129 -0.040273
O21   O     O_2   0.283679 0.996381 0.661603 -0.420280
C34   C     C_2   0.753158 0.053989 0.423731 0.651918
H2    H     H_    0.716945 0.102151 0.467871 -0.040275
O22   O     O_2   0.716320 0.003623 0.338396 -0.420280
C35   C     C_2   0.258141 0.376220 0.930428 0.662675
H3    H     H_    0.215279 0.428521 0.965039 -0.034108
O23   O     O_2   0.232239 0.265001 0.860356 -0.425776
C36   C     C_2   0.741859 0.623776 0.069572 0.662677
H4    H     H_    0.784721 0.571475 0.034961 -0.034110
O24   O     O_2   0.767762 0.734989 0.139645 -0.425776
Cl5   Cl    Cl    0.850692 0.177709 0.292374 -0.423452
Cl6   Cl    Cl    0.149308 0.822292 0.707626 -0.423452
Cl7   Cl    Cl    0.661072 0.522750 0.220863 -0.412130
Cl8   Cl    Cl    0.338927 0.477244 0.779136 -0.412129

loop_
_geom_bond_atom_site_label_1
_geom_bond_atom_site_label_2
_ccdc_geom_bond_type
C2    C11   S    
C16   C23   A    
C31   C32   A    
O1    C5    A    
O3    C7    A    
C14   C25   A    
C29   C30   A    
O7    C3    A    
C26   C30   A    
O20   V4    S    
C18   C29   A    
O8    V4    S    
O4    C8    A    
O3    V1    S    
O17   V1    S    
C20   Cl8   S    
C18   C22   A    
C33   O21   D    
C14   C21   A    
C1    O15   A    
C2    O16   A    
O5    V1    S    
O2    C6    A    
C8    C14   S    
O19   V1    S    
C36   H4    S    
O11   C7    A    
C15   C28   A    
O12   C8    A    
O13   V1    S    
O11   V3    S    
C19   Cl7   S    
O4    V2    S    
C18   Cl6   S    
O18   V2    S    
C22   C33   S    
C35   H3    S    
C3    C10   S    
C9    C10   T    
C7    C13   S    
C25   Cl2   S    
O6    V2    S    
C35   O23   D    
O20   V2    S    
C23   C36   S    
O5    C1    A    
C28   Cl3   S    
C5    C15   S    
O8    C4    A    
C6    C16   S    
O9    C5    A    
O14   V2    S    
O19   V3    S    
O1    V3    S    
O2    V4    S    
C3    O13   A    
C26   Cl1   S    
O7    V3    S    
O10   V2    S    
C16   C27   A    
O17   V3    S    
C21   C34   S    
O18   V4    S    
C4    C9    S    
C34   H2    S    
O10   C6    A    
O15   V3    S    
O12   V4    S    
C13   C26   A    
C20   C31   A    
C25   C29   A    
C27   C31   A    
C24   C35   S    
C33   H1    S    
C17   C30   A    
O6    C2    A    
C17   Cl5   S    
O16   V4    S    
C28   C32   A    
C19   C32   A    
O9    V1    S    
C4    O14   A    
C11   C12   T    
C17   C21   A    
C36   O24   D    
C27   Cl4   S    
C13   C22   A    
C19   C23   A    
C20   C24   A    
C1    C12   S    
C34   O22   D    
C15   C24   A    
