data_mof_unit_26640.cif
_audit_creation_date              2012-12-10T17:28:38-0500
_audit_creation_method            fapswitch 2.2
_symmetry_space_group_name_H-M    P1
_symmetry_Int_Tables_number       1
_space_group_crystal_system       triclinic
_cell_length_a                    10.376982
_cell_length_b                    12.243867
_cell_length_c                    12.729945
_cell_angle_alpha                 93.697843
_cell_angle_beta                  89.420542
_cell_angle_gamma                 86.251444
_cell_volume                      1610.40815268

loop_
_atom_site_label
_atom_site_type_symbol
_atom_type_description
_atom_site_fract_x
_atom_site_fract_y
_atom_site_fract_z
_atom_type_partial_charge
C1    C     C_R   0.501296 0.522118 0.699430 0.985805
C2    C     C_R   0.575698 0.456109 0.120412 0.026081
C3    C     C_R   0.431338 0.519351 0.982677 0.032255
C4    C     C_R   0.559256 0.488585 0.017540 0.085765
C5    C     C_R   0.385607 0.950811 0.397724 0.005768
C6    C     C_R   0.615371 0.050219 0.603190 -0.008650
C7    C     C_R   0.395948 0.836025 0.409342 0.140164
C8    C     C_R   0.603738 0.164430 0.591130 0.203698
C9    C     C_R   0.549861 0.858294 0.544323 0.436615
C10   C     C_R   0.450325 0.141064 0.456368 0.462289
C11   C     C_R   0.542733 0.976323 0.538240 -0.149001
C12   C     C_R   0.496240 0.478109 0.300520 0.917010
C13   C     C_R   0.458417 0.023265 0.463081 -0.101144
C14   C     C_R   0.741096 0.497879 0.485669 0.904365
C15   C     C_R   0.261230 0.502729 0.519782 0.941324
C16   C     C_R   0.921670 0.291489 0.451966 0.151132
C17   C     C_R   0.085756 0.707273 0.568707 0.077165
C18   C     C_R   0.980353 0.200564 0.496866 0.081602
C19   C     C_R   0.025973 0.801044 0.527530 0.048627
C20   C     C_R   0.072832 0.213181 0.575788 0.027814
C21   C     C_R   0.933859 0.790243 0.447920 0.076454
C22   C     C_R   0.116900 0.316980 0.600989 0.368060
C23   C     C_R   0.471238 0.466753 0.190227 -0.085492
C24   C     C_R   0.890663 0.686711 0.418764 0.356754
C25   C     C_R   0.065196 0.407670 0.548608 -0.052481
C26   C     C_R   0.939570 0.594668 0.470500 -0.039588
C27   C     C_R   0.954641 0.397648 0.487689 -0.059001
C28   C     C_R   0.049979 0.603359 0.531372 -0.008152
C29   C     C_R   0.124130 0.507144 0.550158 -0.103723
C30   C     C_R   0.881060 0.494342 0.465823 -0.150952
C31   C     C_R   0.522716 0.535234 0.809683 -0.034474
C32   C     C_R   0.667866 0.493363 0.949384 0.100668
C33   C     C_R   0.324210 0.518357 0.053504 0.071131
C34   C     C_R   0.647993 0.513635 0.844193 -0.023980
C35   C     C_R   0.345956 0.494053 0.158002 0.038323
C36   C     C_R   0.416260 0.547329 0.877308 0.020147
Cl1   Cl    Cl    0.227943 0.333369 0.704403 -0.687474
Cl2   Cl    Cl    0.788593 0.671859 0.308795 -0.684633
Cl3   Cl    Cl    0.345316 0.207654 0.369283 -0.569562
Cl4   Cl    Cl    0.652263 0.789748 0.631566 -0.644535
H1    H     H_    0.782877 0.891145 0.407399 0.233326
H2    H     H_    0.818930 0.345340 0.326615 0.170016
H3    H     H_    0.131470 0.758709 0.717601 0.179447
H4    H     H_    0.253384 0.761387 0.628212 0.208042
H5    H     H_    0.903442 0.059938 0.525571 0.223383
H6    H     H_    0.025934 0.049715 0.432683 0.243359
H7    H     H_    0.161279 0.910916 0.548936 0.187568
H8    H     H_    0.044453 0.917656 0.644533 0.199077
H9    H     H_    0.730797 0.464045 0.215369 0.215768
H10   H     H_    0.685798 0.334620 0.182293 0.193083
H11   H     H_    0.260442 0.658133 0.878140 0.208102
H12   H     H_    0.905699 0.874070 0.317371 0.219864
H13   H     H_    0.229477 0.526173 0.834061 0.262784
H14   H     H_    0.174002 0.444100 0.208897 0.212811
H15   H     H_    0.197300 0.578714 0.239566 0.187690
H16   H     H_    0.818525 0.567526 0.794558 0.208751
H17   H     H_    0.801633 0.431277 0.767323 0.187097
H18   H     H_    0.845232 0.411211 0.944232 0.189167
H19   H     H_    0.846393 0.548694 0.974615 0.196035
H20   H     H_    0.139352 0.476184 0.032697 0.207035
H21   H     H_    0.154407 0.611766 0.066246 0.186625
H22   H     H_    0.650461 0.229353 0.734811 0.199691
H23   H     H_    0.224799 0.112489 0.614696 0.229249
H24   H     H_    0.774427 0.213518 0.646435 0.171379
H25   H     H_    0.344548 0.770192 0.266570 0.177172
H26   H     H_    0.223390 0.785488 0.358546 0.158217
H27   H     H_    0.105580 0.132640 0.707717 0.220754
H28   H     H_    0.208476 0.969958 0.331970 0.182653
H29   H     H_    0.334570 0.957123 0.244495 0.198410
H30   H     H_    0.650147 0.977578 0.740900 0.250766
H31   H     H_    0.778210 0.965037 0.650298 0.241747
H32   H     H_    0.754712 0.242225 0.387827 0.218596
N1    N     N_R   0.523130 0.207800 0.519340 -0.144846
N2    N     N_3   0.062463 0.906895 0.563479 -0.467060
N3    N     N_3   0.698345 0.411845 0.154671 -0.421945
N4    N     N_3   0.295555 0.586833 0.834730 -0.448498
N5    N     N_3   0.241664 0.499408 0.233895 -0.431152
N6    N     N_3   0.754005 0.509326 0.769982 -0.436274
N7    N     N_3   0.797760 0.478310 0.986537 -0.412906
N8    N     N_3   0.194091 0.543200 0.021118 -0.485247
N9    N     N_3   0.676275 0.237168 0.656177 -0.376323
N10   N     N_3   0.321496 0.763372 0.345863 -0.384528
N11   N     N_R   0.476870 0.792200 0.480660 -0.118077
N12   N     N_3   0.883316 0.884677 0.397784 -0.445255
N13   N     N_3   0.124723 0.119806 0.626929 -0.467924
N14   N     N_3   0.302408 0.991878 0.318014 -0.377848
N15   N     N_3   0.701226 0.015138 0.683643 -0.471889
N16   N     N_3   0.840701 0.272678 0.362496 -0.414725
N17   N     N_3   0.177382 0.716433 0.652215 -0.431803
N18   N     N_3   0.942982 0.095264 0.461231 -0.427787
O1    O     O_R   0.506170 0.421700 0.658830 -0.575924
O2    O     O_R   0.493830 0.578300 0.341170 -0.565628
O3    O     O_R   0.491330 0.609310 0.646410 -0.575472
O4    O     O_R   0.508670 0.390690 0.353590 -0.592782
O5    O     O_R   0.690650 0.406190 0.506220 -0.636560
O6    O     O_R   0.309350 0.593810 0.493780 -0.615048
O7    O     O_R   0.675800 0.593810 0.493800 -0.520146
O8    O     O_R   0.324200 0.406190 0.506200 -0.535637
Zn1   Zn    Zn3+2 0.509910 0.374730 0.508290 1.021294
Zn2   Zn    Zn3+2 0.490090 0.625270 0.491710 1.036147

loop_
_geom_bond_atom_site_label_1
_geom_bond_atom_site_label_2
_ccdc_geom_bond_type
C7    N11   A    
H28   N14   S    
C12   C23   S    
H3    N17   S    
O4    Zn1   S    
C28   C29   A    
C19   C21   A    
C24   C26   A    
H15   N5    S    
C10   N1    A    
O5    Zn1   S    
C11   C13   A    
C3    C33   A    
H21   N8    S    
C1    C31   S    
H16   N6    S    
H12   N12   S    
C36   N4    S    
C17   C19   A    
C22   C25   A    
C24   Cl2   S    
H9    N3    S    
C5    C13   A    
H14   N5    S    
C16   C27   A    
C1    O1    A    
H23   N13   S    
C27   C30   A    
C12   O4    A    
C14   C30   S    
H30   N15   S    
H32   N16   S    
C15   C29   S    
C25   C29   A    
H27   N13   S    
C8    N9    S    
C18   N18   S    
H4    N17   S    
H8    N2    S    
C17   N17   S    
H11   N4    S    
H19   N7    S    
C15   O6    A    
C5    C7    A    
C6    C8    A    
H1    N12   S    
C35   N5    S    
C9    Cl4   S    
C6    N15   S    
C10   Cl3   S    
C32   C34   A    
C2    C4    A    
H26   N10   S    
C21   N12   S    
C20   N13   S    
C31   C34   A    
H5    N18   S    
C9    C11   A    
O3    Zn2   S    
C4    C32   A    
H18   N7    S    
C9    N11   A    
H31   N15   S    
C5    N14   S    
C16   C18   A    
H22   N9    S    
C20   C22   A    
C26   C30   A    
C23   C35   A    
N11   Zn2   S    
H13   N4    S    
H2    N16   S    
C15   O8    A    
C3    C4    A    
C14   O5    A    
C6    C11   A    
O7    Zn2   S    
O2    Zn2   S    
C14   O7    A    
N1    Zn1   S    
H20   N8    S    
C17   C28   A    
H17   N6    S    
C12   O2    A    
C19   N2    S    
H7    N2    S    
C10   C13   A    
C33   N8    S    
H6    N18   S    
C25   C27   A    
C26   C28   A    
H10   N3    S    
C34   N6    S    
C32   N7    S    
C22   Cl1   S    
H25   N10   S    
C3    C36   A    
O6    Zn2   S    
C8    N1    A    
C33   C35   A    
C18   C20   A    
H24   N9    S    
C2    N3    S    
C7    N10   S    
C1    O3    A    
O8    Zn1   S    
C21   C24   A    
C2    C23   A    
C16   N16   S    
C31   C36   A    
O1    Zn1   S    
H29   N14   S    
