data_mof_unit_30709.cif
_audit_creation_date              2012-12-10T17:16:44-0500
_audit_creation_method            fapswitch 2.2
_symmetry_space_group_name_H-M    P1
_symmetry_Int_Tables_number       1
_space_group_crystal_system       triclinic
_cell_length_a                    23.513951
_cell_length_b                    12.986463
_cell_length_c                    11.737675
_cell_angle_alpha                 100.344197
_cell_angle_beta                  92.123434
_cell_angle_gamma                 92.483826
_cell_volume                      3519.01688223

loop_
_atom_site_label
_atom_site_type_symbol
_atom_type_description
_atom_site_fract_x
_atom_site_fract_y
_atom_site_fract_z
_atom_type_partial_charge
C1    C     C_R   0.498233 0.298787 0.477973 0.825272
C2    C     C_R   0.499662 0.700891 0.522636 0.820245
C3    C     C_R   0.239169 0.557584 0.426825 -0.253917
C4    C     C_R   0.757545 0.424907 0.423437 -0.253093
C5    C     C_R   0.298716 0.562011 0.430035 0.369233
C6    C     C_R   0.698069 0.423558 0.422229 0.375481
C7    C     C_R   0.328787 0.507274 0.504934 -0.349858
C8    C     C_R   0.670960 0.502732 0.495438 -0.288511
C9    C     C_R   0.298462 0.456950 0.582284 0.269731
C10   C     C_R   0.703869 0.582773 0.568293 0.227776
C11   C     C_R   0.239966 0.468812 0.591990 0.389486
C12   C     C_R   0.763061 0.574660 0.581406 0.369498
C13   C     C_R   0.209297 0.512790 0.508639 0.086517
C14   C     C_R   0.790320 0.498824 0.504140 0.126167
C15   C     C_R   0.497428 0.814852 0.538799 -0.210137
C16   C     C_R   0.496264 0.184233 0.464255 -0.223225
C17   C     C_R   0.492043 0.010146 0.345644 0.342904
C18   C     C_R   0.490071 0.987065 0.658581 0.362954
C19   C     C_R   0.494303 0.119534 0.353424 0.336345
C20   C     C_R   0.492706 0.877304 0.650056 0.357969
C21   C     C_R   0.495962 0.139742 0.564582 -0.285124
C22   C     C_R   0.498452 0.860065 0.439862 -0.331588
C23   C     C_R   0.391151 0.501556 0.501580 0.855733
C24   C     C_R   0.608753 0.501572 0.498402 0.893027
C25   C     C_R   0.494639 0.031636 0.557612 -0.032636
C26   C     C_R   0.495654 0.967175 0.447472 -0.049589
C27   C     C_R   0.430294 0.445960 0.034061 -0.319592
C28   C     C_R   0.572046 0.540656 0.962519 -0.324891
C29   C     C_R   0.439301 0.443081 0.152065 0.002873
C30   C     C_R   0.563088 0.542639 0.844535 -0.028270
C31   C     C_R   0.533512 0.516368 0.149939 0.600582
C32   C     C_R   0.465030 0.497210 0.854677 0.618626
C33   C     C_R   0.527004 0.513512 0.028348 -0.074948
C34   C     C_R   0.473694 0.485033 0.971923 -0.066277
C35   C     C_R   0.881874 0.588472 0.493695 0.665012
C36   C     C_R   0.117973 0.417281 0.503105 0.659285
C37   C     C_R   0.878557 0.411466 0.523254 0.575155
C38   C     C_R   0.120659 0.602898 0.516000 0.547988
C39   C     C_R   0.938593 0.411283 0.527234 -0.149767
C40   C     C_R   0.061332 0.604737 0.529668 -0.162547
C41   C     C_R   0.969970 0.506053 0.523861 -0.143054
C42   C     C_R   0.030040 0.508356 0.524064 -0.137430
C43   C     C_R   0.941290 0.597691 0.514820 -0.184135
C44   C     C_R   0.058534 0.413824 0.514567 -0.164758
C45   C     C_R   0.968101 0.319558 0.533535 0.358062
C46   C     C_R   0.032113 0.699754 0.547154 0.397124
C47   C     C_R   0.026983 0.318859 0.516987 0.348890
C48   C     C_R   0.972565 0.695406 0.528560 0.377366
Cu1   Cu    Cu3+1 0.504210 0.507730 0.615930 0.977487
Cu2   Cu    Cu3+1 0.495790 0.492270 0.384070 0.980418
H1    H     H_    0.599071 0.563833 0.797780 0.178192
H2    H     H_    0.405207 0.412459 0.197530 0.175273
H3    H     H_    0.389454 0.417493 0.991905 0.203555
H4    H     H_    0.614608 0.557934 0.000525 0.193620
H5    H     H_    0.216274 0.592174 0.362590 0.206988
H6    H     H_    0.778273 0.367093 0.362853 0.192678
H7    H     H_    0.500813 0.810982 0.355382 0.213058
H8    H     H_    0.496609 0.189841 0.649052 0.228249
N1    N     N_R   0.851629 0.499057 0.506056 -0.432187
N2    N     N_R   0.147839 0.510936 0.507440 -0.435989
N3    N     N_R   0.510550 0.519360 0.790130 -0.225079
N4    N     N_R   0.489450 0.480640 0.209870 -0.226312
O1    O     O_R   0.502990 0.354470 0.582000 -0.592892
O2    O     O_R   0.497010 0.645530 0.418000 -0.619955
O3    O     O_R   0.495870 0.341410 0.386200 -0.541291
O4    O     O_R   0.504130 0.658590 0.613800 -0.541409
O5    O     O_R   0.421440 0.506500 0.597920 -0.529099
O6    O     O_R   0.578560 0.493500 0.402080 -0.516673
O7    O     O_R   0.414320 0.493440 0.402120 -0.572575
O8    O     O_R   0.585680 0.506560 0.597880 -0.601264
O9    O     O_2   0.854237 0.667376 0.459642 -0.506609
O10   O     O_2   0.146010 0.327709 0.486038 -0.493967
O11   O     O_2   0.847121 0.324936 0.534876 -0.540463
O12   O     O_2   0.150961 0.691886 0.509106 -0.556828
O13   O     O_3   0.939450 0.226494 0.544233 -0.577889
C49   C     C_3   0.932025 0.223233 0.662857 0.135919
H9    H     H_    0.890911 0.179158 0.668063 0.183448
H10   H     H_    0.928492 0.302188 0.717839 0.115334
C50   C     C_3   0.979900 0.165203 0.711997 -0.352903
H11   H     H_    0.985925 0.090155 0.652240 0.244541
H12   H     H_    0.020279 0.214086 0.720241 0.246841
C51   C     C_3   0.966386 0.142049 0.831325 -0.966419
H13   H     H_    0.959475 0.215960 0.892188 0.264060
H14   H     H_    0.002598 0.103362 0.866362 0.266678
H15   H     H_    0.927648 0.088912 0.825084 0.256828
O14   O     O_3   0.060315 0.798092 0.573976 -0.565556
C52   C     C_3   0.091598 0.811662 0.682441 0.126895
H16   H     H_    0.134455 0.846478 0.670211 0.205115
H17   H     H_    0.098435 0.737706 0.715801 0.101384
C53   C     C_3   0.063035 0.887305 0.775479 -0.421247
H18   H     H_    0.050926 0.957546 0.740176 0.244000
H19   H     H_    0.024375 0.847280 0.802080 0.195398
C54   C     C_3   0.102619 0.922195 0.882816 -0.902290
H20   H     H_    0.115514 0.853197 0.919644 0.254451
H21   H     H_    0.080142 0.975119 0.949487 0.257717
H22   H     H_    0.141273 0.965293 0.860515 0.258867
O15   O     O_3   0.409946 0.493543 0.808894 -0.543240
C55   C     C_3   0.389259 0.596337 0.829031 0.153322
H23   H     H_    0.361902 0.605258 0.752797 0.174012
H24   H     H_    0.423277 0.660449 0.838402 0.132623
C56   C     C_3   0.352007 0.613199 0.933785 -0.908981
H25   H     H_    0.378741 0.625794 0.015368 0.254152
H26   H     H_    0.327090 0.683802 0.933130 0.208506
H27   H     H_    0.321889 0.544470 0.931072 0.275393
O16   O     O_3   0.585542 0.549820 0.206444 -0.558089
C57   C     C_3   0.591908 0.660832 0.227343 0.073751
H28   H     H_    0.580732 0.691099 0.317489 0.177588
H29   H     H_    0.565023 0.699201 0.168271 0.124210
C58   C     C_3   0.654087 0.694904 0.216540 -0.834600
H30   H     H_    0.665332 0.683612 0.124446 0.231024
H31   H     H_    0.661266 0.779437 0.254376 0.209709
H32   H     H_    0.682655 0.648845 0.263157 0.264382
O17   O     O_3   0.054183 0.226129 0.514636 -0.543237
C59   C     C_3   0.046376 0.164462 0.402608 0.108312
H33   H     H_    0.065655 0.205605 0.336766 0.143288
H34   H     H_    0.000419 0.145348 0.378312 0.165717
C60   C     C_3   0.075514 0.061908 0.400812 -0.696178
H35   H     H_    0.056544 0.018544 0.464784 0.264221
H36   H     H_    0.069899 0.012614 0.313098 0.191815
H37   H     H_    0.121781 0.077844 0.422875 0.259152
O18   O     O_3   0.946148 0.786175 0.514739 -0.518426
C61   C     C_3   0.923183 0.832919 0.620137 0.117185
H38   H     H_    0.957048 0.879315 0.676898 0.131066
H39   H     H_    0.902797 0.774586 0.666920 0.141856
C62   C     C_3   0.878573 0.908703 0.595798 -0.699864
H40   H     H_    0.842604 0.866158 0.540568 0.275507
H41   H     H_    0.861762 0.948257 0.678680 0.172771
H42   H     H_    0.897879 0.969087 0.550913 0.249671
O19   O     O_3   0.326607 0.616492 0.355596 -0.588009
C63   C     C_3   0.351069 0.712597 0.418745 0.096759
H43   H     H_    0.388429 0.734812 0.371715 0.167470
H44   H     H_    0.367666 0.706967 0.507610 0.109626
C64   C     C_3   0.308624 0.799586 0.425441 -0.356027
H45   H     H_    0.296970 0.812106 0.336486 0.221388
H46   H     H_    0.269289 0.776171 0.465884 0.249362
C65   C     C_3   0.333715 0.902160 0.497759 -0.953307
H47   H     H_    0.344739 0.891354 0.587558 0.253015
H48   H     H_    0.301958 0.963358 0.501411 0.264513
H49   H     H_    0.372552 0.929446 0.458829 0.251246
O20   O     O_3   0.666754 0.347043 0.345437 -0.582997
C66   C     C_3   0.650700 0.263381 0.401921 0.060840
H50   H     H_    0.604946 0.243018 0.379911 0.157294
H51   H     H_    0.655060 0.282406 0.498761 0.118653
C67   C     C_3   0.684795 0.167987 0.357259 -0.337864
H52   H     H_    0.679301 0.147895 0.261258 0.219531
H53   H     H_    0.730762 0.186878 0.380637 0.238567
C68   C     C_3   0.665326 0.073530 0.409191 -0.924514
H54   H     H_    0.671445 0.091622 0.505115 0.262922
H55   H     H_    0.690828 0.005691 0.375102 0.256991
H56   H     H_    0.619667 0.051803 0.385708 0.253264
O21   O     O_3   0.325405 0.393320 0.647197 -0.503758
C69   C     C_3   0.326284 0.292646 0.577922 0.139333
H57   H     H_    0.349196 0.294898 0.496848 0.106765
H58   H     H_    0.282178 0.258271 0.555041 0.168391
C70   C     C_3   0.357420 0.221420 0.644755 -0.773932
H59   H     H_    0.333060 0.209361 0.720957 0.247190
H60   H     H_    0.361895 0.144868 0.586950 0.188557
H61   H     H_    0.400370 0.256895 0.674820 0.269437
O22   O     O_3   0.679236 0.674088 0.617656 -0.577846
C71   C     C_3   0.689393 0.748088 0.544598 0.108490
H62   H     H_    0.667152 0.721340 0.458609 0.137161
H63   H     H_    0.735797 0.761298 0.532688 0.192206
C72   C     C_3   0.666945 0.852909 0.596431 -0.844539
H64   H     H_    0.683738 0.877451 0.687362 0.263237
H65   H     H_    0.681230 0.912699 0.545800 0.215228
H66   H     H_    0.619735 0.847209 0.591851 0.234707
O23   O     O_3   0.212535 0.429246 0.678226 -0.554217
C73   C     C_3   0.202438 0.513528 0.768163 0.068614
H67   H     H_    0.168997 0.562660 0.739548 0.128610
H68   H     H_    0.242058 0.563637 0.795360 0.135603
C74   C     C_3   0.181804 0.469891 0.872662 -0.306079
H69   H     H_    0.141716 0.421202 0.847488 0.225972
H70   H     H_    0.214513 0.419433 0.901158 0.231327
C75   C     C_3   0.170947 0.557829 0.973379 -0.932168
H71   H     H_    0.210848 0.606133 0.001533 0.262273
H72   H     H_    0.155832 0.523663 0.047720 0.265160
H73   H     H_    0.137849 0.608629 0.947239 0.252913
O24   O     O_3   0.795249 0.648548 0.660181 -0.591847
C76   C     C_3   0.786563 0.629567 0.773112 0.068673
H74   H     H_    0.799265 0.549273 0.780925 0.131051
H75   H     H_    0.741109 0.638004 0.795133 0.175283
C77   C     C_3   0.823215 0.709446 0.859794 -0.351210
H76   H     H_    0.868938 0.699416 0.841944 0.206561
H77   H     H_    0.812588 0.789995 0.849585 0.227813
C78   C     C_3   0.813425 0.696196 0.984289 -0.893710
H78   H     H_    0.768175 0.708272 0.004841 0.252549
H79   H     H_    0.840819 0.754951 0.044981 0.265420
H80   H     H_    0.824453 0.616557 0.996886 0.259496
O25   O     O_3   0.480489 0.827259 0.742675 -0.627800
C79   C     C_3   0.517534 0.857832 0.842553 0.060395
H81   H     H_    0.505582 0.805439 0.903805 0.166461
H82   H     H_    0.510820 0.938118 0.888721 0.177270
C80   C     C_3   0.580700 0.845231 0.819153 -0.364272
H83   H     H_    0.586296 0.769939 0.759663 0.269519
H84   H     H_    0.596029 0.911832 0.779205 0.210418
C81   C     C_3   0.616209 0.847350 0.931229 -0.905220
H85   H     H_    0.611403 0.922173 0.992213 0.257954
H86   H     H_    0.661854 0.840450 0.911427 0.262535
H87   H     H_    0.602623 0.780711 0.973175 0.256592
O26   O     O_3   0.488030 0.163884 0.254559 -0.597394
C82   C     C_3   0.531292 0.135001 0.175886 0.083688
H88   H     H_    0.514438 0.069286 0.107292 0.186474
H89   H     H_    0.570495 0.110155 0.217618 0.131414
C83   C     C_3   0.547571 0.228368 0.118766 -0.325074
H90   H     H_    0.508764 0.256371 0.079594 0.228408
H91   H     H_    0.566766 0.293419 0.185542 0.264887
C84   C     C_3   0.589936 0.199180 0.024384 -0.884751
H92   H     H_    0.629627 0.172647 0.061718 0.252472
H93   H     H_    0.600780 0.268764 0.985044 0.269656
H94   H     H_    0.571073 0.135680 0.955362 0.273201
O27   O     O_3   0.485778 0.945408 0.238098 -0.607187
C85   C     C_3   0.426967 0.926356 0.208849 0.070420
H95   H     H_    0.404343 0.000741 0.214908 0.166687
H96   H     H_    0.407117 0.877289 0.266496 0.147386
C86   C     C_3   0.419065 0.867362 0.084902 -0.831195
H97   H     H_    0.442414 0.793946 0.074516 0.245308
H98   H     H_    0.373085 0.847510 0.063262 0.211617
H99   H     H_    0.435301 0.917264 0.024632 0.234569
O28   O     O_3   0.482695 0.051584 0.763993 -0.605476
C87   C     C_3   0.425049 0.043266 0.792991 0.036395
H100  H     H_    0.414679 0.966979 0.819470 0.173975
H101  H     H_    0.395556 0.050368 0.719192 0.152310
C88   C     C_3   0.414417 0.129942 0.894471 -0.808253
H102  H     H_    0.426846 0.207659 0.873495 0.262296
H103  H     H_    0.368549 0.128056 0.913735 0.207037
H104  H     H_    0.439696 0.118400 0.972438 0.249169

loop_
_geom_bond_atom_site_label_1
_geom_bond_atom_site_label_2
_ccdc_geom_bond_type
C12   O24   S    
C52   H16   S    
C16   C21   A    
Cu1   O1    S    
C70   H60   S    
Cu2   O2    S    
C82   H88   S    
C23   O7    A    
C68   H54   S    
C49   C50   S    
C74   H69   S    
C84   H93   S    
C22   H7    S    
C87   H101  S    
O24   C76   S    
C82   H89   S    
C88   H104  S    
C24   O8    A    
C39   C41   A    
C13   N2    S    
O27   C85   S    
C40   C46   A    
C14   N1    S    
C74   H70   S    
C19   O26   S    
C54   H20   S    
C17   C26   A    
C68   H55   S    
Cu2   O7    S    
C49   H10   S    
C32   N3    A    
O19   C63   S    
C65   H49   S    
C78   H79   S    
C54   H21   S    
C27   C29   A    
C57   H28   S    
C32   O15   S    
C35   N1    A    
C41   C42   A    
C23   O5    A    
Cu1   Cu2   S    
C77   H76   S    
C21   C25   A    
C79   C80   S    
C17   C19   A    
C75   H71   S    
C3    H5    S    
C73   C74   S    
C78   H78   S    
C72   H64   S    
O26   C82   S    
C80   H84   S    
C84   H94   S    
C1    O3    A    
O21   C69   S    
C83   C84   S    
C35   C43   A    
C43   C48   A    
C41   C43   A    
C3    C13   A    
C44   C47   A    
C39   C45   A    
C76   C77   S    
C73   H68   S    
C35   O9    S    
C56   H26   S    
C38   C40   A    
C80   H83   S    
C27   H3    S    
C4    H6    S    
C70   H61   S    
C11   O23   S    
C20   O25   S    
C31   O16   S    
C31   N4    A    
C18   C25   A    
C42   C44   A    
C67   C68   S    
C18   O28   S    
C1    O1    A    
C87   H100  S    
C2    O2    A    
O15   C55   S    
C77   H77   S    
C45   C47   A    
C27   C34   A    
C15   C20   A    
C74   C75   S    
C46   C48   A    
C52   C53   S    
Cu1   N3    S    
Cu1   O4    S    
C84   H92   S    
C30   H1    S    
C56   H25   S    
C72   H66   S    
O20   C66   S    
C88   H102  S    
C65   H48   S    
C86   H99   S    
O28   C87   S    
C50   H12   S    
C28   H4    S    
O14   C52   S    
C67   H52   S    
C78   H80   S    
C6    C8    A    
C2    O4    A    
C25   C26   A    
C58   H32   S    
C77   C78   S    
C71   H63   S    
C63   H44   S    
O13   C49   S    
C71   C72   S    
C79   H81   S    
C83   H90   S    
C62   H42   S    
C67   H53   S    
C66   H51   S    
C53   H19   S    
O22   C71   S    
C69   C70   S    
C17   O27   S    
C80   C81   S    
C68   H56   S    
C31   C33   A    
C33   C34   A    
C1    C16   S    
C49   H9    S    
C2    C15   S    
C9    C11   A    
C75   H73   S    
O18   C61   S    
C37   N1    A    
C10   C12   A    
C64   C65   S    
C38   N2    A    
C4    C6    A    
C73   H67   S    
C85   H96   S    
C28   C33   A    
C51   H13   S    
C56   H27   S    
C51   H14   S    
Cu1   O8    S    
C52   H17   S    
C62   H40   S    
Cu2   N4    S    
C82   C83   S    
C5    O19   S    
C66   C67   S    
C63   C64   S    
C61   H39   S    
C51   H15   S    
O23   C73   S    
C53   C54   S    
C5    C7    A    
O17   C59   S    
C38   O12   S    
C47   O17   S    
C37   O11   S    
C29   N4    A    
C9    O21   S    
C79   H82   S    
Cu1   O5    S    
C81   H87   S    
C85   C86   S    
C81   H86   S    
C69   H58   S    
C81   H85   S    
C3    C5    A    
C50   C51   S    
C59   H34   S    
C88   H103  S    
C59   H33   S    
C76   H74   S    
C54   H22   S    
C55   C56   S    
O16   C57   S    
C55   H24   S    
C45   O13   S    
C71   H62   S    
C60   H37   S    
C61   C62   S    
C60   H36   S    
C63   H43   S    
C12   C14   A    
C21   H8    S    
C37   C39   A    
C4    C14   A    
C60   H35   S    
C83   H91   S    
C11   C13   A    
C53   H18   S    
C64   H45   S    
C57   H29   S    
C16   C19   A    
C7    C23   S    
C58   H31   S    
C40   C42   A    
C8    C24   S    
C28   C30   A    
C18   C20   A    
C86   H97   S    
C6    O20   S    
O25   C79   S    
Cu2   O3    S    
C75   H72   S    
C66   H50   S    
C86   H98   S    
C36   C44   A    
C24   O6    A    
C15   C22   A    
C50   H11   S    
C7    C9    A    
C85   H95   S    
C8    C10   A    
C55   H23   S    
C22   C26   A    
C30   N3    A    
C70   H59   S    
C62   H41   S    
C64   H46   S    
C36   N2    A    
C65   H47   S    
C72   H65   S    
C69   H57   S    
C59   C60   S    
C48   O18   S    
C46   O14   S    
C61   H38   S    
C58   H30   S    
Cu2   O6    S    
C10   O22   S    
C57   C58   S    
C87   C88   S    
C36   O10   S    
C32   C34   A    
C76   H75   S    
C29   H2    S    
