data_mof_unit_27437.cif
_audit_creation_date              2012-12-11T15:23:30-0500
_audit_creation_method            fapswitch 2.2
_symmetry_space_group_name_H-M    P1
_symmetry_Int_Tables_number       1
_space_group_crystal_system       triclinic
_cell_length_a                    6.929866
_cell_length_b                    17.518152
_cell_length_c                    19.304626
_cell_angle_alpha                 109.566889
_cell_angle_beta                  90.086749
_cell_angle_gamma                 90.54996
_cell_volume                      2208.08465711

loop_
_atom_site_label
_atom_site_type_symbol
_atom_type_description
_atom_site_fract_x
_atom_site_fract_y
_atom_site_fract_z
_atom_type_partial_charge
O1    O     O_R   0.505810 0.439670 0.562310 -0.547406
O2    O     O_R   0.169070 0.404920 0.411210 -0.527380
O3    O     O_R   0.005550 0.560330 0.437690 -0.516344
C1    C     C_R   0.338680 0.381975 0.382786 0.799276
O4    O     O_R   0.175650 0.430000 0.560110 -0.551158
O5    O     O_R   0.012170 0.585580 0.587650 -0.544882
C2    C     C_R   0.344479 0.415059 0.581930 0.675038
O6    O     O_R   0.499180 0.414420 0.412350 -0.524266
O7    O     O_3   0.341430 0.551020 0.508860 -0.363396
V1    V     V_3+5 0.063930 0.490540 0.498360 1.499455
O8    O     O_R   0.682850 0.595080 0.588790 -0.548754
C3    C     C_R   0.852624 0.618521 0.616862 0.666303
O9    O     O_R   0.676280 0.570000 0.439890 -0.530558
C4    C     C_R   0.845341 0.582157 0.415711 0.805654
V2    V     V_3+5 0.564760 0.509460 0.501640 1.503114
O10   O     O_3   0.837130 0.448980 0.491140 -0.371583
C5    C     C_R   0.759576 0.873674 0.179225 -0.191194
C6    C     C_R   0.914689 0.865392 0.130709 -0.072665
C7    C     C_R   0.060788 0.809965 0.129207 -0.205548
C8    C     C_R   0.055268 0.763041 0.176043 0.015654
C9    C     C_R   0.896525 0.771258 0.224214 0.056630
C10   C     C_R   0.750080 0.827452 0.226100 0.074998
C11   C     C_R   0.201032 0.706403 0.174868 0.336500
C12   C     C_R   0.181157 0.656755 0.217884 -0.087604
C13   C     C_R   0.025023 0.664286 0.266249 0.006533
C14   C     C_R   0.882932 0.723000 0.270187 -0.004336
C15   C     C_R   0.726169 0.733074 0.319400 0.064591
C16   C     C_R   0.583145 0.790819 0.321503 0.277630
C17   C     C_R   0.595528 0.836728 0.274762 -0.203912
C18   C     C_R   0.009755 0.615107 0.311233 0.275874
C19   C     C_R   0.858332 0.628088 0.363288 -0.127681
C20   C     C_R   0.717235 0.685916 0.365710 -0.178380
H1    H     H_    0.646733 0.916736 0.180959 0.121591
H2    H     H_    0.174691 0.802446 0.089365 0.129408
H3    H     H_    0.295529 0.614204 0.214558 0.203017
H4    H     H_    0.601209 0.694354 0.404884 0.187029
H5    H     H_    0.483213 0.879978 0.276527 0.153566
C21   C     C_3   0.811189 0.817005 0.741606 -0.077981
C22   C     C_3   0.980676 0.767711 0.696544 -0.097827
H6    H     H_    0.058742 0.781854 0.652074 0.146765
H7    H     H_    0.750345 0.872711 0.735268 0.170644
C23   C     C_3   0.867404 0.688880 0.687506 -0.029486
C24   C     C_3   0.697772 0.737357 0.731736 -0.133654
C25   C     C_3   0.790327 0.732607 0.803282 -0.157366
C26   C     C_3   0.959826 0.683332 0.758244 -0.150133
C27   C     C_3   0.073238 0.762972 0.768096 -0.103229
C28   C     C_3   0.903620 0.811411 0.812333 -0.021842
H8    H     H_    0.543117 0.726431 0.716217 0.119037
H9    H     H_    0.712278 0.718554 0.847801 0.118916
H10   H     H_    0.020772 0.627671 0.764622 0.114673
H11   H     H_    0.227871 0.773997 0.783618 0.119937
C29   C     C_3   0.422564 0.226543 0.307928 -0.190993
C30   C     C_3   0.266104 0.189349 0.248021 -0.156542
H12   H     H_    0.167034 0.138607 0.246443 0.156356
H13   H     H_    0.453807 0.206607 0.355602 0.136211
C31   C     C_3   0.413766 0.188800 0.187574 -0.148632
C32   C     C_3   0.565589 0.226048 0.246844 0.360880
C33   C     C_3   0.505104 0.311541 0.251476 0.275641
C34   C     C_3   0.349461 0.274562 0.191664 -0.190789
C35   C     C_3   0.202066 0.275778 0.252733 -0.090179
C36   C     C_3   0.358044 0.312194 0.311798 -0.128667
H14   H     H_    0.320382 0.294511 0.143838 0.173416
H15   H     H_    0.052668 0.298549 0.256083 0.198391
C37   C     C_R   0.274077 0.109464 0.807495 0.289471
C38   C     C_R   0.415178 0.129040 0.864119 -0.147814
C39   C     C_R   0.547348 0.191987 0.870578 -0.150492
C40   C     C_R   0.540703 0.237120 0.822654 0.089003
C41   C     C_R   0.386967 0.223351 0.771117 -0.037802
C42   C     C_R   0.246342 0.161446 0.765140 0.021965
C43   C     C_R   0.684410 0.295889 0.824925 0.291934
C44   C     C_R   0.674993 0.340158 0.776760 -0.209602
C45   C     C_R   0.521610 0.328879 0.727031 0.060295
C46   C     C_R   0.375940 0.271180 0.724683 0.084749
C47   C     C_R   0.219655 0.261392 0.675672 0.063216
C48   C     C_R   0.075504 0.204489 0.673247 -0.209486
C49   C     C_R   0.085744 0.154979 0.716882 0.340187
C50   C     C_R   0.511760 0.374672 0.679626 -0.189412
C51   C     C_R   0.354622 0.365694 0.631192 -0.076776
C52   C     C_R   0.207930 0.309439 0.630256 -0.191767
H16   H     H_    0.657406 0.204419 0.912814 0.181567
H17   H     H_    0.787884 0.384076 0.778632 0.156778
H18   H     H_    0.624937 0.418482 0.681403 0.118998
H19   H     H_    0.086307 0.301874 0.593058 0.127597
H20   H     H_    0.951500 0.199057 0.637517 0.161778
O11   O     O_R   0.271890 0.085690 0.087580 -0.540356
O12   O     O_R   0.595690 0.070020 0.939870 -0.535698
O13   O     O_R   0.758900 0.914390 0.912370 -0.540421
C53   C     C_R   0.426986 0.082917 0.916307 0.773412
O14   O     O_R   0.602020 0.095100 0.088770 -0.542867
O15   O     O_R   0.765280 0.939660 0.062330 -0.545193
C54   C     C_R   0.432523 0.118308 0.117044 0.708947
O16   O     O_R   0.265520 0.060430 0.937620 -0.516047
O17   O     O_3   0.429560 0.949050 0.991100 -0.379665
V3    V     V_3+5 0.707160 0.009450 0.001650 1.480249
O18   O     O_R   0.094540 0.929890 0.060190 -0.550566
C55   C     C_R   0.925404 0.914933 0.081806 0.692742
O19   O     O_R   0.088200 0.904800 0.911290 -0.533642
C56   C     C_R   0.918436 0.881531 0.883113 0.737068
V4    V     V_3+5 0.206300 0.990390 0.998440 1.474432
O20   O     O_3   0.934030 0.050940 0.008900 -0.359962
O21   O     O_3   0.755639 0.199531 0.244666 -0.646842
H21   H     H_    0.807984 0.200677 0.197280 0.293191
Br1   Br    Br    0.680627 0.398198 0.250998 -0.493254
Br2   Br    Br    0.166315 0.000803 0.777628 -0.507059
Br3   Br    Br    0.902393 0.316923 0.890675 -0.538771
Br4   Br    Br    0.855893 0.091004 0.712779 -0.484091
O22   O     O_3   0.364820 0.696557 0.132318 -0.628415
H22   H     H_    0.404647 0.749826 0.129638 0.286314
Br5   Br    Br    0.186792 0.526038 0.296681 -0.496178
Br6   Br    Br    0.366087 0.810341 0.386867 -0.550073

loop_
_geom_bond_atom_site_label_1
_geom_bond_atom_site_label_2
_ccdc_geom_bond_type
C25   H9    S    
C9    C14   A    
O17   V3    S    
C10   C17   A    
C6    C55   S    
C46   C47   A    
O18   C55   A    
C4    C19   S    
C1    O6    A    
O19   C56   A    
O11   C54   A    
C50   C51   A    
C29   C30   S    
C14   C15   A    
O21   H21   S    
C28   C56   S    
C35   H15   S    
C20   H4    S    
C16   C17   A    
C29   C36   S    
O5    C3    A    
C21   C22   S    
O12   C53   A    
C48   H20   S    
V2    O10   S    
O13   V3    S    
C31   C32   S    
C42   C49   A    
C6    C7    A    
O14   V3    S    
C3    C23   S    
O12   V3    S    
O8    V2    S    
C31   C54   S    
C19   C20   A    
C41   C42   A    
O22   H22   S    
C43   C44   A    
O1    V2    S    
O14   C54   A    
C24   H8    S    
O17   V4    S    
C25   C28   S    
O13   C56   A    
C33   C36   S    
C39   C40   A    
C34   C35   S    
O9    C4    A    
C5    H1    S    
O19   V4    S    
C30   C35   S    
O15   V3    S    
C22   C23   S    
C12   H3    S    
C47   C48   A    
C18   Br5   S    
C40   C41   A    
C53   O16   A    
C12   C13   A    
C21   H7    S    
C22   H6    S    
O4    C2    A    
C51   C52   A    
C16   Br6   S    
C13   C14   A    
C30   H12   S    
C27   H11   S    
C7    H2    S    
C35   C36   S    
C23   C26   S    
O2    C1    A    
C48   C49   A    
C45   C50   A    
O11   V4    S    
V4    O20   S    
C8    C11   A    
V3    O20   S    
C11   C12   A    
C11   O22   S    
C5    C6    A    
C37   C42   A    
C21   C28   S    
O3    C4    A    
C22   C27   S    
O6    V2    S    
C47   C52   A    
C2    C51   S    
C24   C25   S    
C33   C34   S    
C23   C24   S    
O2    V1    S    
C32   O21   S    
C25   C26   S    
C38   C53   S    
O7    V1    S    
C30   C31   S    
C13   C18   A    
C37   Br2   S    
C27   C28   S    
C34   H14   S    
C49   Br4   S    
C15   C20   A    
O1    C2    A    
C45   C46   A    
C43   Br3   S    
O5    V1    S    
O8    C3    A    
C29   H13   S    
O15   C55   A    
C33   Br1   S    
C39   H16   S    
C5    C10   A    
C31   C34   S    
C40   C43   A    
C37   C38   A    
C7    C8    A    
O9    V2    S    
C41   C46   A    
O4    V1    S    
O3    V1    S    
V1    O10   S    
C52   H19   S    
C32   C33   S    
C18   C19   A    
C50   H18   S    
C1    C36   S    
O18   V4    S    
O7    V2    S    
C29   C32   S    
C26   C27   S    
C21   C24   S    
C44   C45   A    
C8    C9    A    
C38   C39   A    
C17   H5    S    
C15   C16   A    
C26   H10   S    
C9    C10   A    
O16   V4    S    
C44   H17   S    
