data_mof_unit_10629.cif
_audit_creation_date              2012-12-11T16:53:37-0500
_audit_creation_method            fapswitch 2.2
_symmetry_space_group_name_H-M    P1
_symmetry_Int_Tables_number       1
_space_group_crystal_system       triclinic
_cell_length_a                    14.857819
_cell_length_b                    14.777867
_cell_length_c                    16.927066
_cell_angle_alpha                 108.970106
_cell_angle_beta                  106.35487
_cell_angle_gamma                 108.129208
_cell_volume                      3022.25576581

loop_
_atom_site_label
_atom_site_type_symbol
_atom_type_description
_atom_site_fract_x
_atom_site_fract_y
_atom_site_fract_z
_atom_type_partial_charge
C1    C     C_R   0.088799 0.282646 0.069786 -0.128402
C2    C     C_R   0.065266 0.478460 0.252344 -0.146060
C3    C     C_R   0.220776 0.798296 0.188173 -0.149721
C4    C     C_R   0.936429 0.451804 0.734607 -0.123649
C5    C     C_R   0.744371 0.470710 0.054255 -0.123541
C6    C     C_R   0.237095 0.803736 0.274833 0.057732
C7    C     C_R   0.718320 0.548767 0.040888 0.069705
C8    C     C_R   0.974603 0.416679 0.253901 0.068889
C9    C     C_R   0.997671 0.808792 0.951145 0.052632
C10   C     C_R   0.525367 0.656394 0.046196 0.165254
C11   C     C_R   0.473844 0.600198 0.085302 0.032680
C12   C     C_R   0.029561 0.466585 0.725361 0.054625
C13   C     C_R   0.530336 0.567880 0.143042 -0.201960
C14   C     C_R   0.623262 0.566427 0.140558 -0.197524
C15   C     C_R   0.658024 0.595800 0.079333 0.034116
C16   C     C_R   0.721558 0.213504 0.823097 -0.130995
C17   C     C_R   0.616112 0.653723 0.042691 0.160394
C18   C     C_3   0.584968 0.648698 0.948433 -0.526066
C19   C     C_3   0.486467 0.652599 0.952851 -0.520765
C20   C     C_R   0.967956 0.374285 0.320579 0.124644
C21   C     C_R   0.039689 0.421945 0.638842 0.131484
C22   C     C_R   0.145602 0.439063 0.553942 -0.226274
C23   C     C_R   0.665016 0.215862 0.743941 0.064097
C24   C     C_R   0.138388 0.455573 0.637153 -0.172370
C25   C     C_R   0.949323 0.356995 0.555400 -0.278292
C26   C     C_R   0.955550 0.345738 0.472585 0.186460
C27   C     C_R   0.054270 0.391877 0.472723 0.194703
C28   C     C_R   0.301295 0.595325 0.003970 -0.161647
C29   C     C_R   0.059760 0.402179 0.395262 -0.294907
C30   C     C_R   0.870152 0.317194 0.316797 -0.168751
C31   C     C_R   0.864117 0.301389 0.392101 -0.225484
C32   C     C_R   0.556042 0.141759 0.677393 0.129768
C33   C     C_R   0.277280 0.899881 0.361659 0.137801
C34   C     C_R   0.360962 0.561531 0.054369 0.075987
C35   C     C_R   0.380912 0.091475 0.448448 -0.232611
C36   C     C_R   0.312459 0.001459 0.364758 -0.181530
C37   C     C_R   0.297006 0.891409 0.444379 -0.278475
C38   C     C_R   0.371383 0.979549 0.527231 0.187300
C39   C     C_R   0.417305 0.079323 0.528277 0.195253
C40   C     C_R   0.726465 0.309857 0.746330 -0.140910
C41   C     C_R   0.507086 0.161203 0.604992 -0.282722
C42   C     C_R   0.503834 0.046239 0.680037 -0.174370
C43   C     C_R   0.410525 0.966121 0.605835 -0.224560
C44   C     C_R   0.083294 0.120306 0.144708 0.151331
C45   C     C_R   0.216297 0.701642 0.265157 -0.122116
C46   C     C_R   0.999205 0.102432 0.068113 0.041522
C47   C     C_R   0.908211 0.004544 0.025902 -0.205671
C48   C     C_R   0.897906 0.935423 0.067343 -0.180339
C49   C     C_R   0.978067 0.962508 0.150916 0.027721
C50   C     C_R   0.072834 0.051331 0.184766 0.149154
C51   C     C_3   0.136971 0.140190 0.280239 -0.471345
C52   C     C_R   0.296048 0.497085 0.078903 -0.119299
C53   C     C_3   0.148603 0.216039 0.237001 -0.529383
C54   C     C_R   0.110864 0.537004 0.812441 -0.122566
C55   C     C_R   0.915270 0.197723 0.992524 -0.122015
C56   C     C_R   0.753550 0.568632 0.978093 -0.141263
C57   C     C_R   0.002037 0.186597 0.038044 0.058421
C58   C     C_3   0.191489 0.861389 0.011206 -1.084922
C59   C     C_R   0.892378 0.394435 0.175623 -0.143459
C60   C     C_R   0.083321 0.797743 0.997926 0.319467
C61   C     C_R   0.912329 0.715334 0.925343 -0.224953
H1    H     H_    0.167588 0.307893 0.117994 0.096455
H2    H     H_    0.637498 0.721162 0.948460 0.185796
H3    H     H_    0.857586 0.402573 0.681518 0.094922
H4    H     H_    0.568305 0.571376 0.893377 0.202516
H5    H     H_    0.482908 0.727780 0.956359 0.190418
H6    H     H_    0.415001 0.577910 0.900278 0.200164
H7    H     H_    0.136002 0.442502 0.398316 0.117707
H8    H     H_    0.797799 0.291206 0.258964 0.113341
H9    H     H_    0.222058 0.472518 0.554596 0.127343
H10   H     H_    0.787820 0.263898 0.390499 0.127185
H11   H     H_    0.210007 0.501438 0.699970 0.115691
H12   H     H_    0.750743 0.627452 0.954692 0.108343
H13   H     H_    0.872853 0.325364 0.554769 0.118958
H14   H     H_    0.543551 0.235524 0.602881 0.115731
H15   H     H_    0.692847 0.160233 0.850872 0.084659
H16   H     H_    0.537737 0.029951 0.736136 0.114605
H17   H     H_    0.413691 0.168268 0.448811 0.124504
H18   H     H_    0.374987 0.890322 0.606376 0.127391
H19   H     H_    0.294662 0.011305 0.302520 0.113015
H20   H     H_    0.265693 0.814629 0.443990 0.118390
H21   H     H_    0.842574 0.984305 0.964289 0.125270
H22   H     H_    0.825393 0.863980 0.037479 0.124291
H23   H     H_    0.812238 0.335563 0.147199 0.084518
H24   H     H_    0.091011 0.148215 0.321647 0.204991
H25   H     H_    0.211855 0.138878 0.314702 0.189410
H26   H     H_    0.109401 0.268028 0.253242 0.207868
H27   H     H_    0.329355 0.661151 0.988413 0.104902
H28   H     H_    0.230287 0.258292 0.246994 0.184876
H29   H     H_    0.702838 0.346349 0.703633 0.086786
H30   H     H_    0.319511 0.468927 0.129032 0.083101
H31   H     H_    0.193792 0.566089 0.831564 0.093215
H32   H     H_    0.834304 0.145674 0.971319 0.088802
H33   H     H_    0.220681 0.674814 0.317547 0.094244
H34   H     H_    0.833862 0.690307 0.876600 0.114807
H35   H     H_    0.188995 0.864997 0.946152 0.261404
H36   H     H_    0.224454 0.943864 0.066674 0.248859
H37   H     H_    0.242895 0.823648 0.029300 0.254035
H38   H     H_    0.144461 0.497328 0.294509 0.083980
H39   H     H_    0.228033 0.863006 0.170744 0.123131
H40   H     H_    0.729696 0.435959 0.099084 0.094087
H41   H     H_    0.497356 0.531477 0.180661 0.124877
H42   H     H_    0.658574 0.529067 0.176533 0.127490
N1    N     N_R   0.055640 0.348550 0.045600 -0.039667
N2    N     N_R   0.811290 0.303400 0.871650 -0.038377
N3    N     N_R   0.205180 0.552990 0.997660 -0.038304
N4    N     N_R   0.814810 0.361830 0.823710 -0.038309
N5    N     N_R   0.201660 0.494570 0.045600 -0.039259
N6    N     N_R   0.068420 0.560530 0.871650 -0.037601
N7    N     N_R   0.948050 0.295860 0.997660 -0.039359
N8    N     N_R   0.185190 0.638170 0.176290 -0.040714
N9    N     N_R   0.798340 0.505430 0.954400 -0.037830
N10   N     N_R   0.931580 0.439470 0.128350 -0.036721
N11   N     N_R   0.051950 0.704140 0.002340 -0.055645
N12   N     N_R   0.944360 0.651450 0.954400 -0.051347
N13   N     N_R   0.039170 0.492150 0.176290 -0.036747
N14   N     N_R   0.188710 0.696600 0.128350 -0.038549
N15   N     N_R   0.794820 0.447010 0.002340 -0.041097
N16   N     N_R   0.960830 0.507850 0.823710 -0.040094
Ni1   Ni    Ni4+2 0.119330 0.493420 0.109950 0.205999
Ni2   Ni    Ni4+2 0.880670 0.506580 0.890050 0.208422
Ni3   Ni    Ni4+2 0.872590 0.372590 0.000000 0.209392
Ni4   Ni    Ni4+2 0.127410 0.627410 0.000000 0.211508

loop_
_geom_bond_atom_site_label_1
_geom_bond_atom_site_label_2
_ccdc_geom_bond_type
N9    N15   A    
N12   Ni2   S    
C6    C45   A    
C27   C29   A    
N5    Ni1   S    
C60   N11   A    
C35   C36   A    
C58   H37   S    
C55   H32   S    
C3    C6    A    
C1    H1    S    
C51   H24   S    
N11   N12   A    
C39   C41   A    
C20   C30   A    
C18   H4    S    
C54   H31   S    
N2    N4    A    
C24   H11   S    
C26   C27   A    
C8    C20   S    
C9    C61   A    
C18   C19   S    
C8    C59   A    
C30   C31   A    
C18   H2    S    
C10   C17   A    
C43   H18   S    
C23   C40   A    
C33   C36   A    
C19   H5    S    
C25   H13   S    
N15   Ni3   S    
C47   H21   S    
C58   H35   S    
C3    N14   A    
C2    N13   A    
C44   C53   S    
N10   Ni3   S    
C28   N3    A    
N3    Ni4   S    
C28   H27   S    
C32   C41   A    
C4    N16   A    
C19   H6    S    
C4    C12   A    
N10   N13   A    
C31   H10   S    
C28   C34   A    
C26   C31   A    
C13   C14   A    
C37   H20   S    
C58   H36   S    
C7    C56   A    
C48   H22   S    
C45   H33   S    
C3    H39   S    
C51   H25   S    
C44   C46   A    
C50   C51   S    
C20   C29   A    
N16   Ni2   S    
C5    H40   S    
C59   H23   S    
C36   H19   S    
C5    C7    A    
N6    Ni4   S    
C25   C26   A    
C12   C21   S    
C33   C37   A    
N13   Ni1   S    
C54   N6    A    
N8    Ni1   S    
C51   C53   S    
C35   C39   A    
C61   N12   A    
C37   C38   A    
C1    C57   A    
C41   H14   S    
C29   H7    S    
C47   C48   A    
C10   C19   S    
C59   N10   A    
C61   H34   S    
C17   C18   S    
C53   H26   S    
C1    N1    A    
C16   N2    A    
C40   N4    A    
N11   Ni4   S    
C48   C49   A    
C2    H38   S    
C16   C23   A    
C22   C27   A    
C55   C57   A    
C46   C57   S    
C53   H28   S    
C22   C24   A    
C42   C43   A    
N4    Ni2   S    
C30   H8    S    
N6    N16   A    
C44   C50   A    
C15   C17   A    
C21   C25   A    
C46   C47   A    
C56   H12   S    
C16   H15   S    
C11   C34   S    
C2    C8    A    
C45   N8    A    
C4    H3    S    
C35   H17   S    
C34   C52   A    
C6    C33   S    
C5    N15   A    
N8    N14   A    
C9    C60   A    
C23   C32   S    
N14   Ni4   S    
C38   C43   A    
C55   N7    A    
N7    Ni3   S    
N1    N7    A    
C11   C13   A    
C14   H42   S    
C38   C39   A    
N3    N5    A    
C7    C15   S    
C56   N9    A    
N2    Ni3   S    
C10   C11   A    
N9    Ni2   S    
C52   N5    A    
C42   H16   S    
C49   C50   A    
C21   C24   A    
C32   C42   A    
C14   C15   A    
C52   H30   S    
C40   H29   S    
C13   H41   S    
C58   C60   S    
C22   H9    S    
C12   C54   A    
N1    Ni1   S    
