data_mof_unit_59126.cif
_audit_creation_date              2012-12-10T20:32:39-0500
_audit_creation_method            fapswitch 2.2
_symmetry_space_group_name_H-M    P1
_symmetry_Int_Tables_number       1
_space_group_crystal_system       triclinic
_cell_length_a                    11.505343
_cell_length_b                    10.658139
_cell_length_c                    9.986944
_cell_angle_alpha                 89.780702
_cell_angle_beta                  88.51279
_cell_angle_gamma                 91.397456
_cell_volume                      1223.86560533

loop_
_atom_site_label
_atom_site_type_symbol
_atom_type_description
_atom_site_fract_x
_atom_site_fract_y
_atom_site_fract_z
_atom_type_partial_charge
C1    C     C_R   0.494760 0.260685 0.499977 0.878330
C2    C     C_R   0.497408 0.128271 0.496418 -0.143976
C3    C     C_R   0.602535 0.068893 0.463686 -0.001872
C4    C     C_R   0.604283 0.938778 0.464145 -0.176872
C5    C     C_R   0.503209 0.870671 0.500035 -0.057965
C6    C     C_R   0.399056 0.929951 0.523425 -0.006081
C7    C     C_3   0.316957 0.923476 0.642501 -0.245721
C8    C     C_3   0.299959 0.064174 0.619544 0.261274
C9    C     C_R   0.418997 0.432677 0.073617 -0.020411
C10   C     C_R   0.584083 0.565048 0.065282 0.490112
C11   C     C_R   0.581596 0.564833 0.922869 -0.131419
C12   C     C_R   0.282397 0.502967 0.501073 0.920069
C13   C     C_R   0.410349 0.443471 0.932865 0.134643
C14   C     C_3   0.368550 0.309740 0.922547 0.100566
C15   C     C_3   0.406138 0.292266 0.067697 0.115524
C16   C     C_R   0.502910 0.739070 0.500035 0.869483
C17   C     C_R   0.717749 0.500688 0.498578 0.894365
C18   C     C_1   0.161836 0.507056 0.501805 -0.028312
C19   C     C_1   0.059516 0.507859 0.499493 0.080949
C20   C     C_1   0.940796 0.506310 0.496639 0.069644
C21   C     C_1   0.838429 0.503781 0.495981 -0.094844
C22   C     C_R   0.393511 0.058217 0.512177 0.041964
H1    H     H_    0.416929 0.255677 0.846241 0.156759
H2    H     H_    0.684998 0.891365 0.444249 0.156105
H3    H     H_    0.324556 0.125244 0.704052 0.114554
H4    H     H_    0.649028 0.612249 0.863180 0.202637
N1    N     N_R   0.499240 0.499140 0.142800 -0.143690
N2    N     N_R   0.499240 0.499180 0.857150 -0.146399
O1    O     O_R   0.500010 0.316790 0.614690 -0.620298
O2    O     O_R   0.500000 0.316760 0.385350 -0.573367
O3    O     O_R   0.334450 0.500030 0.614670 -0.571036
O4    O     O_R   0.334440 0.500000 0.385330 -0.629660
O5    O     O_R   0.500000 0.683240 0.614650 -0.638308
O6    O     O_R   0.499990 0.683210 0.385310 -0.554646
O7    O     O_R   0.665560 0.500000 0.614670 -0.616276
O8    O     O_R   0.665550 0.499970 0.385330 -0.520732
Zn1   Zn    Zn3+2 0.500010 0.500020 0.653130 1.014510
Zn2   Zn    Zn3+2 0.499990 0.499980 0.346870 1.088329
C23   C     C_1   0.709956 0.138729 0.436655 0.265287
N3    N     N_1   0.796086 0.194314 0.414956 -0.123294
C24   C     C_1   0.318439 0.241575 0.164121 0.416034
N4    N     N_1   0.248959 0.200863 0.238838 -0.052810
S1    S     S_3+6 0.541946 0.209178 0.076576 0.033605
O9    O     O_2   0.597859 0.195475 0.939794 -0.287350
O10   O     O_2   0.626640 0.277524 0.163882 -0.248938
O11   O     O_3   0.514215 0.065107 0.140999 -0.537525
H5    H     H_    0.591318 0.026363 0.147132 0.402534
C25   C     C_1   0.215711 0.838882 0.624620 0.379093
N5    N     N_1   0.135082 0.773568 0.611762 -0.173335
C26   C     C_1   0.375061 0.897465 0.769304 0.212663
N6    N     N_1   0.420707 0.877195 0.868747 -0.100980
S2    S     S_3+6 0.162639 0.103401 0.549731 0.061017
O12   O     O_2   0.067969 0.087640 0.655406 -0.227966
O13   O     O_2   0.168023 0.236865 0.502409 -0.316788
O14   O     O_3   0.132756 0.009874 0.419033 -0.537525
H6    H     H_    0.054679 0.034574 0.390571 0.395170
S3    S     S_3+6 0.714981 0.631150 0.128577 0.078796
O15   O     O_2   0.793543 0.525948 0.163610 -0.236975
O16   O     O_2   0.776234 0.710536 0.022397 -0.288269
O17   O     O_3   0.693944 0.722968 0.261973 -0.559263
H7    H     H_    0.772956 0.740929 0.295312 0.360932
S4    S     S_3+6 0.212828 0.300668 0.902317 0.044183
O18   O     O_2   0.171253 0.166806 0.920941 -0.252087
O19   O     O_2   0.152703 0.381792 0.004340 -0.274645
O20   O     O_3   0.178291 0.349730 0.749621 -0.507411
H8    H     H_    0.092154 0.349035 0.750760 0.407916

loop_
_geom_bond_atom_site_label_1
_geom_bond_atom_site_label_2
_ccdc_geom_bond_type
C14   H1    S    
C2    C22   A    
C8    C22   S    
S1    O9    D    
C13   N2    A    
S4    O18   D    
C17   O8    A    
O4    Zn2   S    
C16   O5    A    
C24   N4    T    
C8    S2    S    
C19   C20   S    
C11   H4    S    
S2    O14   S    
O14   H6    S    
C7    C25   S    
O8    Zn2   S    
C2    C3    A    
C9    C15   S    
C10   N1    A    
C7    C8    S    
C13   C14   S    
C12   O4    A    
C8    H3    S    
S1    O10   D    
O2    Zn2   S    
S3    O15   D    
C6    C7    S    
N2    Zn1   S    
C11   N2    A    
C15   C24   S    
C1    O1    A    
C25   N5    T    
O7    Zn1   S    
S2    O13   D    
C26   N6    T    
O20   H8    S    
C12   O3    A    
C5    C6    A    
C4    H2    S    
S1    O11   S    
C17   C21   S    
S3    O16   D    
O1    Zn1   S    
C10   C11   A    
N1    Zn2   S    
C15   S1    S    
C3    C4    A    
C14   S4    S    
C4    C5    A    
C10   S3    S    
C20   C21   T    
C9    N1    A    
C1    C2    S    
O11   H5    S    
C12   C18   S    
C23   N3    T    
C3    C23   S    
C9    C13   A    
C14   C15   S    
C18   C19   T    
C5    C16   S    
S4    O19   D    
C17   O7    A    
S4    O20   S    
C16   O6    A    
O6    Zn2   S    
O5    Zn1   S    
O3    Zn1   S    
C7    C26   S    
S2    O12   D    
O17   H7    S    
S3    O17   S    
C1    O2    A    
C6    C22   A    
