data_mof_unit_7710.cif
_audit_creation_date              2012-12-11T15:53:54-0500
_audit_creation_method            fapswitch 2.2
_symmetry_space_group_name_H-M    P1
_symmetry_Int_Tables_number       1
_space_group_crystal_system       triclinic
_cell_length_a                    10.684325
_cell_length_b                    10.756862
_cell_length_c                    17.139514
_cell_angle_alpha                 80.040538
_cell_angle_beta                  99.473165
_cell_angle_gamma                 118.75694
_cell_volume                      1693.30278416

loop_
_atom_site_label
_atom_site_type_symbol
_atom_type_description
_atom_site_fract_x
_atom_site_fract_y
_atom_site_fract_z
_atom_type_partial_charge
C1    C     C_R   0.384331 0.284222 0.631708 0.561389
C2    C     C_R   0.440700 0.790987 0.697477 -0.149685
C3    C     C_R   0.454983 0.793533 0.778904 -0.039803
C4    C     C_3   0.095825 0.462764 0.788557 -0.264116
C5    C     C_3   0.095110 0.456348 0.700796 -0.263674
C6    C     C_R   0.339220 0.669383 0.661723 0.002251
C7    C     C_1   0.822242 0.655873 0.706275 -0.050706
C8    C     C_1   0.850678 0.684905 0.773605 -0.047732
C9    C     C_1   0.364286 0.234321 0.714161 -0.060720
C10   C     C_1   0.333072 0.187394 0.781333 -0.051297
C11   C     C_1   0.338240 0.663939 0.277500 -0.064618
C12   C     C_R   0.370621 0.652474 0.586808 0.544147
C13   C     C_1   0.324670 0.673118 0.206946 -0.077922
C14   C     C_R   0.857906 0.677205 0.164238 0.067364
C15   C     C_R   0.936882 0.632115 0.224957 0.001347
C16   C     C_R   0.919057 0.624697 0.303452 -0.002072
C17   C     C_R   0.757631 0.727634 0.262681 -0.159499
C18   C     C_R   0.772521 0.731289 0.182801 0.085130
C19   C     C_3   0.942555 0.493647 0.238088 -0.254329
C20   C     C_3   0.923847 0.486041 0.324497 -0.269687
C21   C     C_R   0.825449 0.667250 0.323207 -0.000208
C22   C     C_R   0.319295 0.159463 0.162343 0.012871
C23   C     C_R   0.775770 0.617995 0.627210 0.539468
C24   C     C_R   0.200576 0.139913 0.196596 -0.010778
C25   C     C_R   0.201642 0.139138 0.276721 0.026707
C26   C     C_R   0.446960 0.178762 0.294133 -0.117527
C27   C     C_R   0.444789 0.177120 0.212222 0.118348
C28   C     C_3   0.115729 0.219756 0.174128 -0.241309
C29   C     C_3   0.108586 0.212817 0.262315 0.021455
C30   C     C_R   0.328322 0.167736 0.326117 -0.032481
C31   C     C_R   0.892457 0.702551 0.855657 0.544847
C32   C     C_R   0.315816 0.709899 0.897021 0.548505
C33   C     C_R   0.286340 0.118453 0.858234 0.552589
C34   C     C_R   0.351765 0.227477 0.399606 0.553247
C35   C     C_R   0.890068 0.691529 0.084510 0.580739
C36   C     C_R   0.312701 0.701047 0.123957 0.535387
C37   C     C_R   0.286943 0.110255 0.084235 0.543498
C38   C     C_R   0.366552 0.653714 0.360430 0.550560
C39   C     C_R   0.771250 0.622984 0.399801 0.552528
C40   C     C_R   0.347775 0.679907 0.825176 0.005420
C41   C     C_R   0.254022 0.555344 0.789743 -0.008957
C42   C     C_R   0.253664 0.548458 0.710057 0.018209
Cr1   Cr    Cr6+3 0.608440 0.389080 0.519680 1.003757
Cr2   Cr    Cr6+3 0.288640 0.400090 0.490760 0.988124
Cr3   Cr    Cr6+3 0.602940 0.710800 0.489510 1.001603
Cr4   Cr    Cr6+3 0.052530 0.947560 0.964210 0.991971
Cr5   Cr    Cr6+3 0.059970 0.626800 0.992920 0.995205
Cr6   Cr    Cr6+3 0.373320 0.938440 0.995370 1.006288
H1    H     H_    0.516727 0.882754 0.662469 0.146834
H2    H     H_    0.850076 0.409758 0.206107 0.176000
H3    H     H_    0.820840 0.394624 0.342106 0.159479
H4    H     H_    0.019989 0.496763 0.365219 0.148064
H5    H     H_    0.547130 0.205503 0.331005 0.142097
H6    H     H_    0.011200 0.158887 0.140478 0.137919
H7    H     H_    0.180529 0.330043 0.146215 0.113512
H8    H     H_    0.157609 0.320702 0.282671 0.169161
H9    H     H_    0.036759 0.518477 0.799404 0.172823
H10   H     H_    0.069799 0.358739 0.824723 0.147854
H11   H     H_    0.065754 0.348050 0.686596 0.157867
H12   H     H_    0.038249 0.510525 0.661213 0.150621
H13   H     H_    0.681724 0.758674 0.276425 0.145773
H14   H     H_    0.047799 0.505302 0.228807 0.150661
O1    O     O_R   0.754020 0.497590 0.609930 -0.527203
O2    O     O_R   0.295080 0.533620 0.397890 -0.519858
O3    O     O_R   0.485280 0.746620 0.388440 -0.518617
O4    O     O_R   0.720550 0.696220 0.420010 -0.513225
O5    O     O_3   0.500010 0.499990 0.499980 -0.261950
O6    O     O_R   0.163320 0.092900 0.874450 -0.512569
O7    O     O_R   0.934650 0.822080 0.882840 -0.501784
O8    O     O_R   0.915520 0.604140 0.893670 -0.530710
O9    O     O_R   0.191760 0.638110 0.923230 -0.507538
O10   O     O_R   0.406180 0.826930 0.920660 -0.512335
O11   O     O_R   0.358620 0.062870 0.901950 -0.495019
O12   O     O_R   0.481420 0.271390 0.600630 -0.499505
O13   O     O_R   0.163910 0.085460 0.050210 -0.534970
O14   O     O_R   0.935200 0.815170 0.045770 -0.502933
O15   O     O_R   0.916120 0.596690 0.069430 -0.531666
O16   O     O_R   0.192310 0.631200 0.086170 -0.503166
O17   O     O_R   0.406770 0.819480 0.096420 -0.533395
O18   O     O_R   0.359170 0.055960 0.064880 -0.498318
O19   O     O_3   0.161940 0.837600 0.984160 -0.244525
O20   O     O_R   0.263810 0.254550 0.589590 -0.506964
O21   O     O_R   0.300820 0.531200 0.560890 -0.511408
O22   O     O_R   0.491480 0.744020 0.564270 -0.522772
O23   O     O_R   0.726290 0.693800 0.583010 -0.493278
O24   O     O_R   0.747830 0.500190 0.434090 -0.522902
O25   O     O_R   0.475680 0.273800 0.437630 -0.502663
O26   O     O_R   0.257620 0.257160 0.413750 -0.530228
N1    N     N_2   0.574434 0.213482 0.180217 -0.528780
H15   H     H_    0.579210 0.246910 0.120189 0.263528
C43   C     C_3   0.639963 0.122269 0.210107 -0.298595
H16   H     H_    0.740527 0.162977 0.181678 0.137923
H17   H     H_    0.565665 0.011390 0.196603 0.187133
H18   H     H_    0.668544 0.123282 0.275220 0.149954
N2    N     N_2   0.964064 0.118796 0.285006 -0.541551
H19   H     H_    0.916365 0.019398 0.265228 0.263146
C44   C     C_3   0.942014 0.113133 0.366725 -0.271377
H20   H     H_    0.996175 0.057035 0.406831 0.175882
H21   H     H_    0.825558 0.052698 0.374111 0.126351
H22   H     H_    0.982731 0.222380 0.383313 0.157099
C45   C     C_R   0.576628 0.923338 0.810327 0.056796
C46   C     C_R   0.585972 0.058389 0.783524 -0.069830
C47   C     C_R   0.694160 0.179525 0.816914 -0.097125
C48   C     C_R   0.795275 0.166943 0.876185 -0.135104
C49   C     C_R   0.790881 0.034167 0.900352 -0.114791
C50   C     C_R   0.681096 0.912174 0.868292 -0.052827
H23   H     H_    0.507374 0.068818 0.738111 0.119029
H24   H     H_    0.698874 0.282810 0.797326 0.125254
H25   H     H_    0.877074 0.260042 0.903427 0.105255
H26   H     H_    0.871551 0.025779 0.944743 0.138440
H27   H     H_    0.675823 0.809041 0.889365 0.122603
N3    N     N_2   0.684302 0.766549 0.121680 -0.515457
H28   H     H_    0.578138 0.713500 0.132638 0.262194
C51   C     C_3   0.735275 0.917606 0.100832 -0.285378
H29   H     H_    0.738918 0.966822 0.153021 0.119316
H30   H     H_    0.662953 0.936729 0.051588 0.173885
H31   H     H_    0.843936 0.967977 0.080880 0.162035

loop_
_geom_bond_atom_site_label_1
_geom_bond_atom_site_label_2
_ccdc_geom_bond_type
C5    C42   S    
C16   C21   A    
C41   C42   A    
C14   C18   A    
N2    H19   S    
C49   H26   S    
Cr2   O21   S    
N3    C51   S    
C44   H20   S    
Cr1   O1    S    
C7    C8    T    
C32   O10   A    
Cr2   O2    S    
C15   C19   S    
C26   C27   A    
C45   C46   A    
C1    O12   A    
Cr6   O17   S    
C28   C29   S    
C18   N3    S    
C20   H3    S    
Cr2   O20   S    
C6    C12   S    
C48   H25   S    
C4    C41   S    
C19   H14   S    
C15   C16   A    
C45   C50   A    
Cr6   O19   S    
C12   O22   A    
Cr4   O13   S    
Cr4   O7    S    
C17   H13   S    
C31   O8    A    
C19   C20   S    
C4    H9    S    
Cr3   O5    S    
C47   H24   S    
N1    C43   S    
C9    C10   T    
C3    C45   S    
Cr1   O12   S    
C23   O1    A    
C37   O13   A    
Cr1   O24   S    
C2    C6    A    
Cr6   O10   S    
Cr4   O14   S    
C48   C49   A    
C44   H21   S    
C28   H7    S    
C51   H29   S    
C32   O9    A    
C38   O2    A    
C50   H27   S    
C25   C29   S    
C37   O18   A    
C35   O14   A    
C30   C34   S    
C1    C9    S    
C24   C25   A    
C13   C36   S    
C43   H16   S    
C29   N2    S    
C5    H11   S    
Cr5   O19   S    
C1    O20   A    
C22   C37   S    
C35   O15   A    
C17   C21   A    
C12   O21   A    
Cr3   O4    S    
C11   C38   S    
Cr3   O23   S    
Cr5   O8    S    
Cr4   O6    S    
C2    H1    S    
C43   H17   S    
Cr4   O19   S    
C21   C39   S    
C38   O3    A    
C16   C20   S    
C17   C18   A    
C46   H23   S    
C34   O26   A    
Cr5   O9    S    
C33   O11   A    
C40   C41   A    
C3    C40   A    
C26   C30   A    
C22   C27   A    
Cr3   O3    S    
C39   O4    A    
C22   C24   A    
Cr3   O22   S    
Cr5   O15   S    
C26   H5    S    
C14   C35   S    
C44   H22   S    
C25   C30   A    
C28   H6    S    
C5    H12   S    
C8    C31   S    
Cr6   O11   S    
C24   C28   S    
C4    C5    S    
C36   O17   A    
C51   H30   S    
N2    C44   S    
C29   H8    S    
C49   C50   A    
C39   O24   A    
Cr1   O25   S    
Cr6   O18   S    
C2    C3    A    
C23   O23   A    
C20   H4    S    
C36   O16   A    
C43   H18   S    
C11   C13   T    
C19   H2    S    
C7    C23   S    
C27   N1    S    
C10   C33   S    
N3    H28   S    
C34   O25   A    
C32   C40   S    
C46   C47   A    
C51   H31   S    
C31   O7    A    
Cr1   O5    S    
C6    C42   A    
C4    H10   S    
C47   C48   A    
C14   C15   A    
Cr2   O5    S    
Cr5   O16   S    
N1    H15   S    
Cr2   O26   S    
C33   O6    A    
