data_mof_unit_23457.cif
_audit_creation_date              2013-03-05T15:41:00-0500
_audit_creation_method            fapswitch 2.2
_symmetry_space_group_name_H-M    P1
_symmetry_Int_Tables_number       1
_space_group_crystal_system       triclinic
_cell_length_a                    28.171214
_cell_length_b                    7.187917
_cell_length_c                    17.192239
_cell_angle_alpha                 90.000313
_cell_angle_beta                  101.812323
_cell_angle_gamma                 89.996472
_cell_volume                      3407.57474897

loop_
_atom_site_label
_atom_site_type_symbol
_atom_site_description
_atom_site_fract_x
_atom_site_fract_y
_atom_site_fract_z
_atom_type_partial_charge
O1    O     O_R   0.000700 0.436510 0.857920 -0.562671
O2    O     O_R   0.999300 0.563490 0.142080 -0.562763
O3    O     O_R   0.999300 0.936510 0.642080 -0.562757
O4    O     O_R   0.000700 0.063490 0.357920 -0.562661
O5    O     O_R   0.930080 0.766380 0.721890 -0.554222
O6    O     O_R   0.069920 0.233620 0.278110 -0.555870
O7    O     O_R   0.069920 0.266380 0.778110 -0.555668
O8    O     O_R   0.930080 0.733620 0.221890 -0.554864
C1    C     C_R   0.910738 0.597694 0.706992 0.876642
C2    C     C_R   0.089283 0.402125 0.292687 0.876495
C3    C     C_R   0.089298 0.097858 0.792691 0.875445
C4    C     C_R   0.910767 0.902294 0.206954 0.878338
O9    O     O_R   0.996180 0.766230 0.862310 -0.537694
O10   O     O_R   0.003820 0.233770 0.137690 -0.536596
O11   O     O_R   0.003820 0.266230 0.637690 -0.537247
O12   O     O_R   0.996180 0.733770 0.362310 -0.537597
O13   O     O_R   0.065870 0.936460 0.783500 -0.522442
O14   O     O_R   0.934130 0.063540 0.216500 -0.524581
O15   O     O_R   0.934130 0.436460 0.716500 -0.523580
O16   O     O_R   0.065870 0.563540 0.283500 -0.522868
C5    C     C_R   0.998476 0.596456 0.894499 0.888104
C6    C     C_R   0.001517 0.403543 0.105499 0.888524
C7    C     C_R   0.001523 0.096454 0.605502 0.889336
C8    C     C_R   0.998481 0.903543 0.394500 0.887554
O17   O     O_3   0.022790 0.603020 0.723980 -0.280640
O18   O     O_3   0.977210 0.396980 0.276020 -0.281250
O19   O     O_3   0.977210 0.103020 0.776020 -0.280395
O20   O     O_3   0.022790 0.896980 0.223980 -0.280597
V1    V     V_3+5 0.995770 0.877900 0.754830 1.242928
V2    V     V_3+5 0.004230 0.122100 0.245170 1.241264
V3    V     V_3+5 0.004230 0.377900 0.745170 1.242199
V4    V     V_3+5 0.995770 0.622100 0.254830 1.241410
C9    C     C_2   0.001680 0.082714 0.519552 -0.189737
C10   C     C_2   0.998323 0.917283 0.480450 -0.190712
C11   C     C_2   0.998314 0.582715 0.980448 -0.190853
C12   C     C_2   0.001669 0.417282 0.019548 -0.189009
C13   C     C_R   0.682281 0.895451 0.026944 0.646226
C14   C     C_R   0.318447 0.148095 0.965663 0.655678
C15   C     C_R   0.318364 0.351337 0.465942 0.655825
C16   C     C_R   0.682136 0.606445 0.528187 0.647223
O21   O     O_2   0.710082 0.811304 0.982189 -0.444925
O22   O     O_2   0.290264 0.242967 0.006522 -0.444132
O23   O     O_2   0.290184 0.256051 0.506665 -0.444234
O24   O     O_2   0.709985 0.690791 0.483568 -0.444100
N1    N     N_R   0.703239 0.950713 0.102386 -0.440116
N2    N     N_R   0.297327 0.069271 0.894462 -0.439541
N3    N     N_R   0.297233 0.430894 0.394904 -0.439644
N4    N     N_R   0.703060 0.550555 0.603552 -0.440044
C17   C     C_R   0.676219 0.028919 0.151397 0.675952
C18   C     C_R   0.324304 0.975161 0.849744 0.666620
C19   C     C_R   0.324197 0.525641 0.350366 0.665625
C20   C     C_R   0.676031 0.471752 0.652397 0.677702
C21   C     C_R   0.776282 0.787903 0.180004 0.390024
C22   C     C_R   0.222887 0.225763 0.817926 0.393272
C23   C     C_R   0.222911 0.276189 0.317220 0.392920
C24   C     C_R   0.776339 0.715850 0.679235 0.390099
C25   C     C_R   0.827193 0.780657 0.204148 -0.168082
C26   C     C_R   0.171891 0.227376 0.794827 -0.159961
C27   C     C_R   0.171932 0.274367 0.293984 -0.162650
C28   C     C_R   0.827296 0.722560 0.703015 -0.163160
C29   C     C_R   0.835585 0.054255 0.124784 0.322883
C30   C     C_R   0.166022 0.946668 0.871238 0.324999
C31   C     C_R   0.165841 0.551666 0.372400 0.324074
C32   C     C_R   0.835198 0.442830 0.627080 0.324216
C33   C     C_R   0.784941 0.064640 0.102586 -0.063850
C34   C     C_R   0.216775 0.942247 0.892859 -0.059864
C35   C     C_R   0.216590 0.556193 0.394226 -0.061667
C36   C     C_R   0.784542 0.432926 0.605322 -0.061586
C37   C     C_R   0.755093 0.933551 0.129047 0.137187
C38   C     C_R   0.245391 0.079907 0.867630 0.137524
C39   C     C_R   0.245301 0.420242 0.368057 0.137825
C40   C     C_R   0.754915 0.567229 0.630217 0.137132
C41   C     C_R   0.603092 0.992420 0.048712 -0.112094
C42   C     C_R   0.397823 0.041818 0.948077 -0.108280
C43   C     C_R   0.397716 0.458470 0.448620 -0.108268
C44   C     C_R   0.602934 0.508938 0.549702 -0.111954
C45   C     C_R   0.631901 0.921089 0.997104 -0.123135
C46   C     C_R   0.369227 0.133291 0.995200 -0.120884
C47   C     C_R   0.369146 0.365923 0.495474 -0.120598
C48   C     C_R   0.631754 0.581097 0.498280 -0.123222
C49   C     C_R   0.609269 0.876259 0.918085 0.355822
C50   C     C_R   0.392537 0.210046 0.068923 0.363787
C51   C     C_R   0.392483 0.287917 0.568920 0.364436
C52   C     C_R   0.609132 0.626936 0.419370 0.355803
C53   C     C_R   0.625753 0.049420 0.125887 -0.024379
C54   C     C_R   0.374877 0.960980 0.875234 -0.032036
C55   C     C_R   0.374761 0.540002 0.375931 -0.031523
C56   C     C_R   0.625573 0.451226 0.626792 -0.023779
C57   C     C_R   0.857277 0.912486 0.177690 -0.211451
C58   C     C_R   0.142981 0.089738 0.820436 -0.214345
C59   C     C_R   0.142932 0.410246 0.320535 -0.213330
C60   C     C_R   0.857177 0.587533 0.678078 -0.212899
H1    H     H_    0.768349 0.173130 0.062281 0.155230
H2    H     H_    0.234403 0.833372 0.931955 0.155840
H3    H     H_    0.234136 0.663771 0.434130 0.156168
H4    H     H_    0.767763 0.322248 0.566423 0.154469
C61   C     C_R   0.477442 0.943403 0.923953 0.042442
C62   C     C_R   0.523464 0.086812 0.074683 0.043493
C63   C     C_R   0.523319 0.413420 0.575333 0.043661
C64   C     C_R   0.477308 0.558238 0.424857 0.042436
C65   C     C_R   0.472217 0.106218 0.047910 -0.022969
C66   C     C_R   0.528992 0.942358 0.947002 -0.024331
C67   C     C_R   0.528855 0.559607 0.448001 -0.024288
C68   C     C_R   0.472102 0.393580 0.548397 -0.022830
C69   C     C_R   0.449311 0.030442 0.973486 0.060423
C70   C     C_R   0.551692 0.007391 0.023351 0.060085
C71   C     C_R   0.551546 0.493810 0.524233 0.060152
C72   C     C_R   0.449191 0.470150 0.474133 0.060433
C73   C     C_R   0.452840 0.856857 0.853247 -0.098511
C74   C     C_R   0.547727 0.143440 0.151451 -0.092655
C75   C     C_R   0.547544 0.356339 0.652056 -0.092717
C76   C     C_R   0.452696 0.645339 0.354288 -0.098031
C77   C     C_R   0.402712 0.865842 0.829540 0.017886
C78   C     C_R   0.597673 0.125407 0.176186 0.030920
C79   C     C_R   0.597477 0.374569 0.676917 0.031173
C80   C     C_R   0.402578 0.635989 0.330468 0.018679
O25   O     O_2   0.302225 0.896406 0.780495 -0.445492
O26   O     O_2   0.698125 0.086033 0.224752 -0.451964
O27   O     O_2   0.697920 0.414122 0.725683 -0.450319
O28   O     O_2   0.302109 0.604990 0.281252 -0.446741
C81   C     C_R   0.558782 0.883749 0.894848 -0.141635
C82   C     C_R   0.442886 0.198188 0.093410 -0.132474
C83   C     C_R   0.442813 0.300161 0.593534 -0.132398
C84   C     C_R   0.558654 0.619319 0.396051 -0.141042
H5    H     H_    0.154426 0.337153 0.756161 0.161954
H6    H     H_    0.843579 0.671049 0.243976 0.157759
H7    H     H_    0.843894 0.834286 0.741406 0.160894
H8    H     H_    0.154562 0.165801 0.254521 0.160105
H9    H     H_    0.385801 0.797078 0.774798 0.176262
H10   H     H_    0.614213 0.170621 0.235696 0.166619
H11   H     H_    0.613993 0.329000 0.736388 0.165662
H12   H     H_    0.385661 0.705121 0.275813 0.175733
H13   H     H_    0.004389 0.211712 0.487839 0.118895
H14   H     H_    0.995614 0.788285 0.512163 0.118958
H15   H     H_    0.995604 0.711715 0.012160 0.119565
H16   H     H_    0.004375 0.288281 0.987834 0.119075
N5    N     N_R   0.864176 0.182659 0.089683 0.102708
O29   O     O_R   0.850450 0.355136 0.078280 -0.339624
O30   O     O_R   0.898879 0.121204 0.056923 -0.359801
N6    N     N_R   0.138731 0.810891 0.904979 0.103727
O31   O     O_R   0.153666 0.639300 0.913154 -0.335829
O32   O     O_R   0.104266 0.864216 0.940075 -0.358814
N7    N     N_R   0.138413 0.685556 0.406918 0.103314
O33   O     O_R   0.153369 0.856912 0.416646 -0.335010
O34   O     O_R   0.103673 0.630332 0.440999 -0.359015
N8    N     N_R   0.863494 0.310752 0.593317 0.103392
O35   O     O_R   0.849827 0.137686 0.584969 -0.340813
O36   O     O_R   0.897651 0.368593 0.558481 -0.359445
N9    N     N_R   0.636723 0.834102 0.858597 0.130148
O37   O     O_R   0.624193 0.694229 0.810799 -0.348242
O38   O     O_R   0.666901 0.956804 0.841234 -0.239571
N10   N     N_R   0.365945 0.297081 0.121687 0.125034
O39   O     O_R   0.376304 0.466920 0.145296 -0.350116
O40   O     O_R   0.339430 0.195625 0.158842 -0.245214
N11   N     N_R   0.365945 0.198615 0.621170 0.124795
O41   O     O_R   0.376057 0.027539 0.643123 -0.350395
O42   O     O_R   0.339701 0.298438 0.659432 -0.246732
N12   N     N_R   0.636593 0.670361 0.360042 0.130423
O43   O     O_R   0.624157 0.811401 0.312865 -0.347825
O44   O     O_R   0.666634 0.547867 0.342089 -0.238212
N13   N     N_R   0.250610 0.371657 0.790155 0.131364
O45   O     O_R   0.229774 0.484889 0.734430 -0.282105
O46   O     O_R   0.296152 0.398189 0.821722 -0.321935
N14   N     N_R   0.747104 0.647073 0.207400 0.131073
O47   O     O_R   0.703968 0.606832 0.167295 -0.322783
O48   O     O_R   0.764961 0.548217 0.269992 -0.266643
N15   N     N_R   0.747429 0.860134 0.705072 0.131377
O49   O     O_R   0.766214 0.968182 0.764133 -0.271273
O50   O     O_R   0.703394 0.893544 0.666998 -0.321662
N16   N     N_R   0.250773 0.132371 0.288434 0.131601
O51   O     O_R   0.295816 0.101197 0.321854 -0.321747
O52   O     O_R   0.230436 0.024978 0.230107 -0.279415
H17   H     H_    0.471281 0.776129 0.815654 0.082757
H18   H     H_    0.529195 0.199065 0.195165 0.075468
H19   H     H_    0.528976 0.300285 0.695642 0.075039
H20   H     H_    0.471114 0.726743 0.316889 0.082592
H21   H     H_    0.543923 0.852713 0.833333 0.106804
H22   H     H_    0.457888 0.263733 0.149313 0.101873
H23   H     H_    0.457849 0.233491 0.649175 0.101301
H24   H     H_    0.543819 0.651179 0.334618 0.106771

loop_
_geom_bond_atom_site_label_1
_geom_bond_atom_site_label_2
_geom_bond_distance
_ccdc_geom_bond_type
O17   V3    1.761414 S    
C41   C45   1.415479 A    
N12   O44   1.301387 A    
O1    C5    1.318057 A    
C62   C74   1.416151 A    
C23   C27   1.409732 A    
N11   O42   1.301220 A    
C18   O25   1.349663 S    
O13   V1    1.980295 S    
O3    C7    1.318055 A    
C11   C12   1.359705 D    
C76   C80   1.388856 A    
C48   C52   1.414635 A    
C21   C37   1.416215 A    
N13   O45   1.301749 A    
O4    V2    2.005940 S    
N15   O50   1.300970 A    
C68   C83   1.412823 A    
C79   H11   1.083680 S    
C33   C37   1.399484 A    
O7    C3    1.331182 A    
N5    O30   1.301346 A    
C36   H4    1.083594 S    
C25   C57   1.407477 A    
C54   C77   1.397067 A    
C75   H19   1.076103 S    
C32   C36   1.401021 A    
O9    V1    2.012496 S    
N14   O47   1.301083 A    
N4    C40   1.443713 S    
C14   O22   1.347982 S    
N4    C20   1.366635 A    
N9    O38   1.301427 A    
O16   V4    1.980244 S    
O4    C8    1.318067 A    
C73   H17   1.077821 S    
C51   N11   1.432801 S    
N16   O51   1.300759 A    
C10   H14   1.086220 S    
N7    O33   1.301452 A    
O1    V3    2.005934 S    
O19   V1    1.761352 S    
O2    V4    2.005933 S    
O3    V1    2.005940 S    
C16   N4    1.369283 A    
C1    O15   1.326623 A    
C2    O16   1.327931 A    
C24   C40   1.416861 A    
C80   H12   1.083331 S    
O2    C6    1.318051 A    
C16   C48   1.418926 A    
O14   V2    1.980295 S    
N1    C17   1.366729 A    
C66   C81   1.412018 A    
C44   C56   1.410420 A    
C23   N16   1.445208 S    
O5    V1    1.989716 S    
C61   C66   1.424926 A    
C73   C77   1.388832 A    
C34   H2    1.083573 S    
C61   C69   1.421570 A    
O11   C7    1.336031 A    
C63   C68   1.429357 A    
O15   V3    1.980244 S    
C43   C72   1.428951 A    
O12   C8    1.336025 A    
C35   H3    1.083557 S    
C78   H10   1.083663 S    
C31   C59   1.417515 A    
O10   V2    2.012497 S    
C67   C84   1.411961 A    
C12   H16   1.086218 S    
C1    C60   1.490660 S    
N13   O46   1.300716 A    
N15   O49   1.301649 A    
C29   C57   1.418274 A    
C19   O28   1.349666 S    
N8    O36   1.301329 A    
C28   C60   1.407848 A    
C65   C69   1.418529 A    
C84   H24   1.077905 S    
C31   C35   1.402189 A    
C64   C72   1.421538 A    
O7    V3    1.989629 S    
C30   C34   1.402092 A    
N1    C37   1.443971 S    
O8    V4    1.989626 S    
C17   C53   1.407108 A    
C4    C57   1.489567 S    
C20   C56   1.407121 A    
N6    O31   1.301441 A    
C83   H23   1.076211 S    
C19   C55   1.405921 A    
C25   H6    1.083143 S    
C52   N12   1.435037 S    
O18   V4    1.761415 S    
N3    C19   1.365764 A    
C14   C46   1.420640 A    
C7    C9    1.481881 S    
C27   H8    1.082980 S    
C13   C45   1.418905 A    
O6    V2    1.989716 S    
C64   C67   1.424966 A    
C8    C10   1.481890 S    
C24   C28   1.410647 A    
C49   C81   1.397406 A    
C36   C40   1.399242 A    
C15   C47   1.420567 A    
O5    C1    1.332523 A    
C9    H13   1.086219 S    
C61   C73   1.414260 A    
C46   C50   1.414679 A    
C17   O26   1.349529 S    
C22   C38   1.417531 A    
C45   C49   1.414672 A    
O8    C4    1.332148 A    
C63   C75   1.416111 A    
C9    C10   1.359700 D    
O9    C5    1.336023 A    
C27   C59   1.407933 A    
C42   C54   1.411542 A    
C26   C58   1.408117 A    
C41   C53   1.410352 A    
C55   C80   1.397085 A    
C77   H9    1.083275 S    
C43   C55   1.411549 A    
C76   H20   1.077800 S    
N10   O40   1.301240 A    
C2    C59   1.490163 S    
C64   C76   1.414296 A    
C44   C71   1.428202 A    
N12   O43   1.300754 A    
C52   C84   1.397310 A    
N3    C39   1.443192 S    
C13   N1    1.369349 A    
C74   C78   1.390122 A    
C68   C72   1.418519 A    
N2    C38   1.443241 S    
C63   C71   1.422722 A    
C15   N3    1.369399 A    
N8    O35   1.301445 A    
C22   C26   1.410018 A    
N7    O34   1.301321 A    
C82   H22   1.076108 S    
C3    O13   1.328095 A    
C21   C25   1.410063 A    
C32   N8    1.436332 S    
C28   H7    1.083002 S    
C11   H15   1.086223 S    
C44   C48   1.415517 A    
N6    O32   1.301318 A    
O6    C2    1.330971 A    
C81   H21   1.078057 S    
C21   N14   1.442499 S    
O11   V3    2.012488 S    
C5    C11   1.481893 S    
O12   V4    2.012489 S    
C62   C65   1.429492 A    
C6    C12   1.481880 S    
N5    O29   1.301472 A    
N2    C18   1.365779 A    
C65   C82   1.412900 A    
C62   C70   1.422797 A    
C51   C83   1.396961 A    
O10   C6    1.336025 A    
C56   C79   1.397142 A    
O20   V2    1.761353 S    
N9    O37   1.300765 A    
C42   C69   1.428990 A    
C47   C51   1.414608 A    
C3    C58   1.490871 S    
C29   N5    1.436615 S    
C41   C70   1.428231 A    
C34   C38   1.400128 A    
C74   H18   1.076027 S    
N16   O52   1.301727 A    
C49   N9    1.435194 S    
C30   C58   1.417576 A    
C24   N15   1.443675 S    
N14   O48   1.301639 A    
C33   H1    1.083562 S    
C66   C70   1.416612 A    
C35   C39   1.400151 A    
C22   N13   1.445815 S    
C13   O21   1.348307 S    
C50   N10   1.433035 S    
C14   N2    1.369415 A    
C53   C78   1.397090 A    
C18   C54   1.405909 A    
C20   O27   1.349517 S    
C29   C33   1.401357 A    
C16   O24   1.348301 S    
N10   O39   1.300681 A    
C15   O23   1.347995 S    
C26   H5    1.082895 S    
C75   C79   1.390131 A    
C42   C46   1.415885 A    
C4    O14   1.326388 A    
N11   O41   1.300642 A    
C31   N7    1.436347 S    
C67   C71   1.416659 A    
C32   C60   1.418361 A    
C30   N6    1.436226 S    
C43   C47   1.415860 A    
C50   C82   1.397083 A    
C23   C39   1.417129 A    
