data_mof_unit_28831.cif
_audit_creation_date              2013-03-05T15:51:58-0500
_audit_creation_method            fapswitch 2.2
_symmetry_space_group_name_H-M    P1
_symmetry_Int_Tables_number       1
_space_group_crystal_system       triclinic
_cell_length_a                    23.406219
_cell_length_b                    7.301078
_cell_length_c                    15.1055
_cell_angle_alpha                 90.251931
_cell_angle_beta                  108.665323
_cell_angle_gamma                 89.704971
_cell_volume                      2445.57537963

loop_
_atom_site_label
_atom_site_type_symbol
_atom_site_description
_atom_site_fract_x
_atom_site_fract_y
_atom_site_fract_z
_atom_type_partial_charge
O1    O     O_R   0.711000 0.648610 0.341170 -0.586040
O2    O     O_R   0.289000 0.351390 0.658830 -0.586083
O3    O     O_R   0.789000 0.148610 0.158830 -0.577348
O4    O     O_R   0.211000 0.851390 0.841170 -0.577377
O5    O     O_R   0.829650 0.322030 0.336650 -0.573220
O6    O     O_R   0.170350 0.677970 0.663350 -0.573257
O7    O     O_R   0.670350 0.822030 0.163350 -0.585205
O8    O     O_R   0.329650 0.177970 0.836650 -0.585253
C1    C     C_R   0.854303 0.485588 0.356738 0.970196
C2    C     C_R   0.145697 0.514412 0.643262 0.970225
C3    C     C_R   0.645699 0.985917 0.143259 0.970267
C4    C     C_R   0.354300 0.014083 0.856741 0.970259
O9    O     O_R   0.713950 0.319280 0.352070 -0.580891
O10   O     O_R   0.286050 0.680720 0.647930 -0.580854
O11   O     O_R   0.786050 0.819280 0.147930 -0.590905
O12   O     O_R   0.213950 0.180720 0.852070 -0.590862
O13   O     O_R   0.672470 0.142870 0.174360 -0.565013
O14   O     O_R   0.327530 0.857130 0.825640 -0.564978
O15   O     O_R   0.827530 0.642870 0.325640 -0.576495
O16   O     O_R   0.172470 0.357130 0.674360 -0.576448
C5    C     C_R   0.701668 0.488016 0.375511 1.001279
C6    C     C_R   0.298331 0.511983 0.624488 1.001283
C7    C     C_R   0.798330 0.986873 0.124450 1.001736
C8    C     C_R   0.201670 0.013126 0.875549 1.001702
O17   O     O_3   0.736530 0.478650 0.191680 -0.291041
O18   O     O_3   0.263470 0.521350 0.808320 -0.291045
O19   O     O_3   0.763470 0.978650 0.308320 -0.289611
O20   O     O_3   0.236530 0.021350 0.691680 -0.289612
V1    V     V_3+5 0.752500 0.206170 0.260820 1.254062
V2    V     V_3+5 0.247500 0.793830 0.739180 1.254066
V3    V     V_3+5 0.747500 0.706170 0.239180 1.234818
V4    V     V_3+5 0.252500 0.293830 0.760820 1.234818
C9    C     C_R   0.829502 0.991978 0.055001 -0.228267
C10   C     C_R   0.170487 0.008011 0.944985 -0.228221
C11   C     C_R   0.670457 0.498969 0.444829 -0.228250
C12   C     C_R   0.329532 0.501019 0.555156 -0.228279
C13   C     C_R   0.823720 0.989290 0.892852 -0.146190
C14   C     C_R   0.176248 0.010554 0.107122 -0.146167
C15   C     C_R   0.675703 0.544583 0.605310 -0.145136
C16   C     C_R   0.324270 0.455275 0.394675 -0.145152
C17   C     C_R   0.795832 0.973009 0.960833 -0.223341
C18   C     C_R   0.204148 0.026902 0.039158 -0.223395
C19   C     C_R   0.703492 0.543804 0.536782 -0.220237
C20   C     C_R   0.296490 0.456106 0.463215 -0.220184
C21   C     C_R   0.892397 0.018657 0.082510 0.266195
C22   C     C_R   0.107592 0.981347 0.917448 0.266323
C23   C     C_R   0.608150 0.462943 0.419498 0.267245
C24   C     C_R   0.391836 0.537072 0.580462 0.267136
C25   C     C_R   0.922531 0.005194 0.014182 -0.044760
C26   C     C_R   0.077442 0.994690 0.985765 -0.044820
C27   C     C_R   0.577566 0.493312 0.486251 -0.042523
C28   C     C_R   0.422411 0.506602 0.513705 -0.042464
C29   C     C_R   0.886434 0.007784 0.918611 0.153129
C30   C     C_R   0.113534 0.992044 0.081342 0.153107
C31   C     C_R   0.613410 0.517338 0.581114 0.154296
C32   C     C_R   0.386562 0.482521 0.418851 0.154311
C33   C     C_R   0.986670 0.990978 0.036213 0.074548
C34   C     C_R   0.013301 0.008856 0.963723 0.074489
C35   C     C_R   0.513251 0.499494 0.463427 0.076899
C36   C     C_R   0.486723 0.500388 0.536524 0.076952
C37   C     C_R   0.975104 0.048851 0.872703 -0.085837
C38   C     C_R   0.024859 0.950938 0.127230 -0.085741
C39   C     C_R   0.525338 0.486249 0.629531 -0.084056
C40   C     C_R   0.474630 0.513603 0.370420 -0.084106
C41   C     C_R   0.913004 0.036063 0.849539 -0.210948
C42   C     C_R   0.086959 0.963705 0.150403 -0.210845
C43   C     C_R   0.587132 0.506937 0.651558 -0.211971
C44   C     C_R   0.412835 0.492885 0.348402 -0.212040
H1    H     H_    0.885430 0.054274 0.777253 0.136908
H2    H     H_    0.114528 0.945463 0.222688 0.136890
H3    H     H_    0.614800 0.509075 0.724459 0.136122
H4    H     H_    0.385164 0.490719 0.275503 0.136137
H5    H     H_    0.252582 0.045082 0.060156 0.126190
H6    H     H_    0.747398 0.954821 0.939854 0.126182
H7    H     H_    0.248474 0.430590 0.443775 0.126795
H8    H     H_    0.751510 0.569303 0.556239 0.126798
H9    H     H_    0.796248 0.986144 0.819882 0.124623
H10   H     H_    0.203713 0.013655 0.180096 0.124621
H11   H     H_    0.702886 0.568026 0.677372 0.124184
H12   H     H_    0.297081 0.431788 0.322620 0.124187
H13   H     H_    0.992059 0.091686 0.817759 0.175199
H14   H     H_    0.007891 0.908112 0.182165 0.175091
H15   H     H_    0.508966 0.458048 0.687013 0.174117
H16   H     H_    0.490990 0.541822 0.312931 0.174208
C45   C     C_1   0.416802 0.006681 0.918674 -0.222335
C46   C     C_1   0.583198 0.993319 0.081326 -0.222296
C47   C     C_1   0.083194 0.507474 0.581313 -0.219515
C48   C     C_1   0.916806 0.492526 0.418688 -0.219577
C49   C     C_1   0.469156 0.002252 0.969923 0.095936
C50   C     C_1   0.530844 0.997748 0.030078 0.095958
C51   C     C_1   0.030843 0.502649 0.530072 0.100405
C52   C     C_1   0.969157 0.497350 0.469929 0.100380
N1    N     N_R   0.077216 0.914671 0.824590 0.213048
O21   O     O_R   0.047178 0.762056 0.812874 -0.401519
O22   O     O_R   0.081294 0.001641 0.751804 -0.418996
N2    N     N_R   0.922787 0.085501 0.175333 0.213094
O23   O     O_R   0.918674 0.998803 0.248172 -0.418970
O24   O     O_R   0.952887 0.237980 0.186965 -0.401519
N3    N     N_R   0.420733 0.628974 0.667659 0.212920
O25   O     O_R   0.418031 0.562287 0.746002 -0.421205
O26   O     O_R   0.448066 0.784006 0.668329 -0.400286
N4    N     N_R   0.579259 0.371207 0.332251 0.212874
O27   O     O_R   0.551960 0.216078 0.331501 -0.400306
O28   O     O_R   0.581942 0.438147 0.253943 -0.421214

loop_
_geom_bond_atom_site_label_1
_geom_bond_atom_site_label_2
_geom_bond_distance
_ccdc_geom_bond_type
O17   V3    1.793356 S    
O1    C5    1.331191 A    
N1    O21   1.301495 A    
C47   C51   1.222669 T    
O19   V1    1.796748 S    
C9    C21   1.410138 A    
O3    C7    1.332795 A    
C10   C18   1.394773 A    
O15   V3    1.964343 S    
C25   C33   1.433244 A    
C33   C38   1.410281 A    
O7    C3    1.319370 A    
C35   C40   1.410313 A    
C26   C30   1.420496 A    
C4    C45   1.463520 S    
C36   C39   1.410285 A    
C40   C44   1.385416 A    
O9    V1    2.043150 S    
C14   C18   1.387681 A    
C1    C48   1.463760 S    
O4    C8    1.332786 A    
C25   C29   1.420460 A    
C3    C46   1.463521 S    
O1    V3    2.032686 S    
O13   V1    1.966177 S    
O2    V4    2.032689 S    
O3    V1    2.028063 S    
C40   H16   1.076317 S    
C28   C36   1.433221 A    
C17   H6    1.083712 S    
C1    O15   1.319442 A    
C15   C31   1.400102 A    
C48   C52   1.222670 T    
C2    O16   1.319442 A    
C7    C9    1.457681 S    
N2    O24   1.301423 A    
O2    C6    1.331190 A    
C16   H12   1.084055 S    
C10   C22   1.410098 A    
C11   C19   1.394809 A    
C16   C20   1.387651 A    
C43   H3    1.084327 S    
C44   H4    1.084327 S    
C13   C29   1.400129 A    
C34   C37   1.410310 A    
O11   C7    1.333537 A    
C38   H14   1.076397 S    
C11   C23   1.410082 A    
C35   C36   1.429507 A    
O12   C8    1.333534 A    
C23   N4    1.438469 S    
O10   V2    2.043153 S    
O5    V1    1.992919 S    
C39   C43   1.385391 A    
C2    C47   1.463759 S    
O7    V3    1.989296 S    
C38   C42   1.385414 A    
O8    V4    1.989300 S    
C46   C50   1.222530 T    
C51   C52   1.439502 S    
C45   C49   1.222531 T    
O18   V4    1.793358 S    
C23   C27   1.427176 A    
C14   H10   1.084074 S    
C16   C32   1.400095 A    
C32   C44   1.391564 A    
C13   H9    1.084067 S    
C8    C10   1.457701 S    
C39   H15   1.076344 S    
C26   C34   1.433265 A    
C20   H7    1.083720 S    
O5    C1    1.320181 A    
C31   C43   1.391560 A    
N3    O25   1.301845 A    
C14   C30   1.400113 A    
C21   C25   1.427170 A    
O8    C4    1.319370 A    
N2    O23   1.301948 A    
O9    C5    1.335440 A    
N4    O28   1.301911 A    
O14   V2    1.966179 S    
O6    V2    1.992917 S    
C12   C20   1.394839 A    
C27   C35   1.433270 A    
C29   C41   1.391587 A    
O16   V4    1.964340 S    
C19   H8    1.083716 S    
C24   N3    1.438495 S    
C3    O13   1.319364 A    
C18   H5    1.083697 S    
N3    O26   1.301464 A    
O6    C2    1.320183 A    
C15   C19   1.387634 A    
O11   V3    2.051789 S    
C30   C42   1.391612 A    
O12   V4    2.051790 S    
C6    C12   1.457661 S    
C22   C26   1.427225 A    
C9    C17   1.394801 A    
O10   C6    1.335447 A    
O20   V2    1.796750 S    
C5    C11   1.457655 S    
C37   H13   1.076350 S    
C33   C34   1.429528 A    
C42   H2    1.084348 S    
C22   N1    1.438463 S    
C41   H1    1.084348 S    
C12   C24   1.410079 A    
C27   C31   1.420493 A    
C13   C17   1.387680 A    
N4    O27   1.301502 A    
C37   C41   1.385452 A    
C24   C28   1.427158 A    
N1    O22   1.301952 A    
C4    O14   1.319364 A    
C49   C50   1.439279 S    
C21   N2    1.438506 S    
O4    V2    2.028060 S    
C28   C32   1.420456 A    
C15   H11   1.084063 S    
