data_mof_unit_58230.cif
_audit_creation_date              2012-12-11T16:24:14-0500
_audit_creation_method            fapswitch 2.2
_symmetry_space_group_name_H-M    P1
_symmetry_Int_Tables_number       1
_space_group_crystal_system       triclinic
_cell_length_a                    14.697004
_cell_length_b                    14.699351
_cell_length_c                    33.379419
_cell_angle_alpha                 95.954877
_cell_angle_beta                  96.146912
_cell_angle_gamma                 61.226506
_cell_volume                      6273.17733134

loop_
_atom_site_label
_atom_site_type_symbol
_atom_type_description
_atom_site_fract_x
_atom_site_fract_y
_atom_site_fract_z
_atom_type_partial_charge
C1    C     C_R   0.390372 0.701200 0.446172 0.565467
C2    C     C_1   0.316117 0.343823 0.228805 0.160795
C3    C     C_1   0.319838 0.346745 0.264992 0.148992
C4    C     C_R   0.405048 0.385425 0.433985 0.561773
C5    C     C_R   0.293532 0.299777 0.101328 0.010591
C6    C     C_R   0.757509 0.372510 0.409332 0.021418
C7    C     C_R   0.774742 0.441605 0.388494 0.067046
C8    C     C_R   0.799667 0.417812 0.348015 0.219525
C9    C     C_R   0.809178 0.324991 0.328253 0.012134
C10   C     C_R   0.805469 0.249821 0.349999 0.061044
C11   C     C_R   0.781441 0.272612 0.390909 0.104199
C12   C     C_R   0.328777 0.347440 0.308274 -0.029713
C13   C     C_R   0.831150 0.297713 0.203801 0.368955
C14   C     C_R   0.815744 0.310901 0.284366 0.372955
C15   C     C_R   0.836704 0.384233 0.144504 0.234876
C16   C     C_R   0.701342 0.409728 0.447288 0.572108
C17   C     C_R   0.862845 0.378356 0.104732 0.217544
C18   C     C_R   0.893122 0.199233 0.096065 0.232327
C19   C     C_R   0.866410 0.205688 0.135703 0.060780
C20   C     C_R   0.843657 0.296265 0.160652 -0.043374
C21   C     C_R   0.901345 0.282304 0.081399 -0.050381
C22   C     C_R   0.368898 0.760428 0.409450 0.017397
C23   C     C_R   0.412285 0.264228 0.327328 0.254400
C24   C     C_R   0.276031 0.786936 0.384775 0.066520
C25   C     C_R   0.268974 0.813847 0.345002 0.221498
C26   C     C_R   0.353512 0.815476 0.329703 0.014792
C27   C     C_R   0.440029 0.804108 0.355791 0.058802
C28   C     C_R   0.393226 0.702107 0.561235 0.588840
C29   C     C_R   0.446415 0.779657 0.396175 0.101108
C30   C     C_R   0.350263 0.829964 0.205207 0.405586
C31   C     C_R   0.354057 0.820659 0.285985 0.365541
C32   C     C_R   0.261136 0.830694 0.137007 0.066464
C33   C     C_R   0.242690 0.856139 0.096389 0.205872
C34   C     C_R   0.432429 0.270706 0.369146 0.061621
C35   C     C_R   0.391938 0.888058 0.103116 0.188860
C36   C     C_R   0.409958 0.862645 0.143717 0.072569
C37   C     C_R   0.341072 0.839919 0.161247 0.041574
C38   C     C_R   0.301305 0.895792 0.080350 0.003177
C39   C     C_R   0.371474 0.368244 0.585597 -0.016659
C40   C     C_R   0.406774 0.388605 0.549052 0.600342
C41   C     C_R   0.306084 0.451999 0.611753 0.205159
C42   C     C_R   0.300971 0.434492 0.651665 0.235444
C43   C     C_R   0.358108 0.333822 0.665446 -0.002255
C44   C     C_R   0.410768 0.248596 0.638389 0.061380
C45   C     C_R   0.398519 0.259551 0.165449 0.209759
C46   C     C_R   0.416235 0.265435 0.598216 0.225556
C47   C     C_R   0.346666 0.311831 0.787576 0.419489
C48   C     C_R   0.362046 0.318767 0.708303 0.409268
C49   C     C_R   0.223423 0.355752 0.840135 0.212886
C50   C     C_R   0.203659 0.347298 0.879316 0.057135
C51   C     C_R   0.389583 0.271951 0.899078 0.061587
C52   C     C_R   0.702507 0.412713 0.562651 0.587435
C53   C     C_R   0.408989 0.280392 0.859499 0.056708
C54   C     C_R   0.326250 0.317579 0.829867 0.057603
C55   C     C_R   0.287470 0.300412 0.908436 0.052955
C56   C     C_R   0.389605 0.241409 0.123375 0.057903
C57   C     C_R   0.757236 0.379012 0.602970 -0.012887
C58   C     C_R   0.813585 0.427826 0.623409 0.280384
C59   C     C_R   0.838939 0.419622 0.665095 0.099761
C60   C     C_R   0.811664 0.359629 0.686333 0.001533
C61   C     C_R   0.767236 0.301166 0.665823 0.104882
C62   C     C_R   0.741213 0.309141 0.624143 0.180900
C63   C     C_R   0.909330 0.224931 0.818702 0.226298
C64   C     C_R   0.368022 0.362697 0.392520 -0.054348
C65   C     C_R   0.933202 0.204009 0.859628 0.188986
C66   C     C_R   0.846451 0.390709 0.877746 0.206573
C67   C     C_R   0.213100 0.387400 0.121379 0.190177
C68   C     C_R   0.822932 0.410720 0.836637 0.229232
C69   C     C_R   0.858340 0.327871 0.807332 -0.032508
C70   C     C_1   0.841864 0.346787 0.765178 0.151642
C71   C     C_1   0.829219 0.355828 0.729414 0.104542
C72   C     C_R   0.908342 0.287182 0.889568 -0.065194
C73   C     C_R   0.374363 0.757047 0.601955 -0.007128
C74   C     C_R   0.271294 0.813031 0.614387 0.083263
C75   C     C_R   0.253654 0.838237 0.655628 0.228415
C76   C     C_R   0.274430 0.438577 0.373430 0.218927
C77   C     C_R   0.338337 0.809963 0.684206 -0.002225
C78   C     C_R   0.222436 0.403686 0.163577 0.062446
C79   C     C_R   0.439916 0.765630 0.671896 0.224129
C80   C     C_R   0.458386 0.740463 0.630871 0.206977
C81   C     C_R   0.334661 0.939727 0.822752 0.103105
C82   C     C_R   0.323648 0.968016 0.863978 0.102768
C83   C     C_R   0.265520 0.840128 0.870113 0.285234
C84   C     C_R   0.275925 0.812337 0.828677 0.123547
C85   C     C_R   0.308263 0.864016 0.804975 0.002589
C86   C     C_1   0.313955 0.841681 0.762216 0.055566
C87   C     C_1   0.322299 0.827052 0.726498 0.130278
C88   C     C_R   0.256936 0.432100 0.331248 0.230757
C89   C     C_R   0.312951 0.336545 0.185483 0.029922
C90   C     C_R   0.286734 0.920043 0.887839 0.030444
C91   C     C_R   0.961557 0.264690 0.045400 0.573320
C92   C     C_R   0.273314 0.260907 0.059923 0.580050
C93   C     C_R   0.260537 0.957443 0.043575 0.585270
C94   C     C_R   0.961739 0.267957 0.930714 0.585833
C95   C     C_R   0.270579 0.264099 0.945195 0.598895
C96   C     C_R   0.256050 0.965286 0.928947 0.602017
Cl1   Cl    Cl    0.843816 0.493973 0.084918 -0.344520
Cl2   Cl    Cl    0.478911 0.156158 0.564227 -0.491126
Cl3   Cl    Cl    0.222208 0.539877 0.684688 -0.391911
Cl4   Cl    Cl    0.496787 0.152088 0.298639 -0.441514
Cl5   Cl    Cl    0.118005 0.412221 0.803613 -0.510680
Cl6   Cl    Cl    0.997153 0.072090 0.871551 -0.435140
Cl7   Cl    Cl    0.947247 0.121005 0.781174 -0.427805
Cl8   Cl    Cl    0.687011 0.230974 0.600473 -0.519798
Cl9   Cl    Cl    0.856165 0.498207 0.597542 -0.383087
Cl10  Cl    Cl    0.751431 0.540097 0.821723 -0.412396
Cl11  Cl    Cl    0.796566 0.496765 0.914047 -0.394149
Cl12  Cl    Cl    0.816358 0.506914 0.321709 -0.462488
Cl13  Cl    Cl    0.545430 0.737849 0.708395 -0.458075
Cl14  Cl    Cl    0.588402 0.685950 0.617516 -0.413411
Cl15  Cl    Cl    0.225631 0.773618 0.899339 -0.400484
Cl16  Cl    Cl    0.125157 0.902659 0.671427 -0.471616
Cl17  Cl    Cl    0.176038 0.541466 0.401303 -0.452798
Cl18  Cl    Cl    0.099349 0.479157 0.095196 -0.451583
Cl19  Cl    Cl    0.146213 0.532141 0.306888 -0.390755
Cl20  Cl    Cl    0.802612 0.500698 0.174994 -0.394794
Cl21  Cl    Cl    0.914380 0.084957 0.066028 -0.405717
Cl22  Cl    Cl    0.146402 0.835377 0.066525 -0.422006
Cl23  Cl    Cl    0.516552 0.182371 0.193160 -0.519335
Cl24  Cl    Cl    0.153443 0.843949 0.314096 -0.497339
Cl25  Cl    Cl    0.486574 0.906979 0.081863 -0.509054
Cl26  Cl    Cl    0.230490 0.580715 0.596396 -0.448492
Cr1   Cr    Cr6+3 0.576280 0.580550 0.506370 1.152743
Cr2   Cr    Cr6+3 0.346780 0.572400 0.496520 1.169957
Cr3   Cr    Cr6+3 0.576960 0.347070 0.497150 1.131748
Cr4   Cr    Cr6+3 0.087320 0.083240 0.984860 1.210442
Cr5   Cr    Cr6+3 0.087720 0.316210 0.996740 1.193096
Cr6   Cr    Cr6+3 0.317350 0.090340 0.995890 1.148591
H1    H     H_    0.501981 0.091869 0.115548 0.309416
H2    H     H_    0.171582 0.733139 0.381236 0.325222
H3    H     H_    0.584340 0.786279 0.410390 0.281689
H4    H     H_    0.500637 0.831058 0.446596 0.244755
H5    H     H_    0.553505 0.757437 0.316698 0.283088
H6    H     H_    0.496469 0.886343 0.331518 0.289626
H7    H     H_    0.200405 0.733215 0.138924 0.293538
H8    H     H_    0.118179 0.860308 0.151163 0.291746
H9    H     H_    0.565980 0.804646 0.154289 0.314431
H10   H     H_    0.494415 0.933087 0.167909 0.292810
H11   H     H_    0.070289 0.337269 0.869165 0.242149
H12   H     H_    0.538231 0.181990 0.108131 0.280063
H13   H     H_    0.053356 0.458307 0.883880 0.313382
H14   H     H_    0.431635 0.101468 0.635633 0.288374
H15   H     H_    0.541510 0.112072 0.647704 0.301003
H16   H     H_    0.509269 0.278664 0.933201 0.257164
H17   H     H_    0.527502 0.156396 0.920253 0.256183
H18   H     H_    0.543556 0.288929 0.866584 0.262099
H19   H     H_    0.558365 0.167746 0.853966 0.256989
H20   H     H_    0.666634 0.259046 0.684650 0.271420
H21   H     H_    0.787039 0.158830 0.676142 0.311308
H22   H     H_    0.580403 0.200038 0.394877 0.284079
H23   H     H_    0.841215 0.173723 0.435787 0.240943
H24   H     H_    0.497050 0.162731 0.411629 0.266030
H25   H     H_    0.960527 0.420024 0.699775 0.266945
H26   H     H_    0.843919 0.525735 0.707854 0.293530
H27   H     H_    0.420662 0.030401 0.876864 0.270851
H28   H     H_    0.294902 0.117249 0.865282 0.238705
H29   H     H_    0.436621 0.935707 0.785269 0.285079
H30   H     H_    0.311881 0.029577 0.776558 0.267680
H31   H     H_    0.138453 0.811723 0.591328 0.326707
H32   H     H_    0.140586 0.924701 0.587337 0.266909
H33   H     H_    0.192048 0.764637 0.788410 0.291467
H34   H     H_    0.790022 0.129094 0.396436 0.286972
H35   H     H_    0.317639 0.673911 0.797471 0.261443
H36   H     H_    0.072331 0.477817 0.178576 0.307317
H37   H     H_    0.124229 0.557330 0.174128 0.299370
H38   H     H_    0.706047 0.598933 0.391671 0.283291
H39   H     H_    0.833992 0.539043 0.407617 0.292809
H40   H     H_    0.895874 0.113491 0.319641 0.283059
H41   H     H_    0.766627 0.166229 0.305895 0.279102
H42   H     H_    0.920184 0.088243 0.173587 0.264485
H43   H     H_    0.789934 0.145238 0.161465 0.268403
H44   H     H_    0.125245 0.859141 0.398659 0.271769
N1    N     N_R   0.742554 0.369887 0.220551 -0.125086
N2    N     N_R   0.365926 0.896095 0.270830 -0.194889
N3    N     N_R   0.363925 0.900687 0.231109 -0.160861
N4    N     N_R   0.388864 0.367606 0.775439 -0.147786
N5    N     N_3   0.477832 0.162898 0.103052 -0.520105
N6    N     N_3   0.778991 0.196230 0.413951 -0.575089
N7    N     N_3   0.821417 0.152067 0.330393 -0.582189
N8    N     N_3   0.862738 0.118945 0.150199 -0.508958
N9    N     N_3   0.189350 0.784818 0.399922 -0.527235
N10   N     N_3   0.531803 0.772157 0.423827 -0.556740
N11   N     N_3   0.524462 0.811513 0.341144 -0.588669
N12   N     N_R   0.396283 0.371085 0.736343 -0.168427
N13   N     N_3   0.195001 0.800931 0.154506 -0.545301
N14   N     N_3   0.498261 0.860116 0.167658 -0.530867
N15   N     N_3   0.099091 0.379206 0.888698 -0.544465
N16   N     N_3   0.462384 0.145515 0.652529 -0.555802
N17   N     N_3   0.473236 0.231719 0.929670 -0.573437
N18   N     N_3   0.512808 0.246472 0.848530 -0.581198
N19   N     N_3   0.746341 0.235376 0.688091 -0.537717
N20   N     N_3   0.519637 0.182654 0.386677 -0.523494
N21   N     N_3   0.890963 0.474138 0.685598 -0.471415
N22   N     N_3   0.343463 0.050903 0.881029 -0.568956
N23   N     N_R   0.322648 0.260579 0.720524 -0.155969
N24   N     N_3   0.369804 0.991611 0.799068 -0.602384
N25   N     N_3   0.184828 0.843699 0.584888 -0.539042
N26   N     N_3   0.251788 0.732659 0.810968 -0.491076
N27   N     N_3   0.138937 0.486776 0.184779 -0.529543
N28   N     N_3   0.763576 0.537780 0.408023 -0.536946
N29   N     N_R   0.315041 0.257264 0.759602 -0.171838
N30   N     N_R   0.735072 0.376399 0.260202 -0.145791
N31   N     N_R   0.903898 0.237793 0.267623 -0.186158
N32   N     N_R   0.911443 0.231444 0.227944 -0.204029
N33   N     N_R   0.339433 0.754003 0.220472 -0.147518
N34   N     N_R   0.341479 0.749368 0.260147 -0.141042
O1    O     O_R   0.679450 0.499830 0.463150 -0.454524
O2    O     O_R   0.340240 0.172500 0.045430 -0.451181
O3    O     O_R   0.309670 0.000990 0.032050 -0.455894
O4    O     O_R   0.480650 0.664000 0.464630 -0.480334
O5    O     O_R   0.168330 0.982130 0.939200 -0.418374
O6    O     O_R   0.000140 0.178170 0.944610 -0.453788
O7    O     O_R   0.983010 0.336750 0.948660 -0.441506
O8    O     O_R   0.181800 0.312190 0.959860 -0.465469
O9    O     O_R   0.338500 0.175680 0.956950 -0.469463
O10   O     O_R   0.308050 0.003930 0.950020 -0.473691
O11   O     O_3   0.164130 0.163270 0.992500 -0.331145
O12   O     O_R   0.356040 0.477400 0.534170 -0.454946
O13   O     O_R   0.323930 0.675950 0.455370 -0.453264
O14   O     O_R   0.354700 0.475360 0.451930 -0.440068
O15   O     O_R   0.494470 0.320860 0.448390 -0.522849
O16   O     O_R   0.662580 0.357570 0.460050 -0.483065
O17   O     O_R   0.680900 0.502040 0.551870 -0.421476
O18   O     O_R   0.481990 0.666040 0.546870 -0.461456
O19   O     O_R   0.325370 0.678160 0.544080 -0.442285
O20   O     O_R   0.495910 0.323070 0.537100 -0.412427
O21   O     O_R   0.663920 0.359620 0.542290 -0.452687
O22   O     O_3   0.500010 0.500010 0.500010 -0.313145
O23   O     O_R   0.170070 0.978950 0.027680 -0.422897
O24   O     O_R   0.001760 0.175230 0.026640 -0.459024
O25   O     O_R   0.984760 0.333570 0.037150 -0.422418
O26   O     O_R   0.183410 0.309240 0.041890 -0.452244

loop_
_geom_bond_atom_site_label_1
_geom_bond_atom_site_label_2
_ccdc_geom_bond_type
C80   Cl14  S    
C66   C68   A    
N31   N32   A    
Cr2   O14   S    
C94   O6    A    
C22   C29   A    
H8    N13   S    
C27   C29   A    
C18   C21   A    
C95   O9    A    
C41   C42   A    
C5    C56   A    
C16   O16   A    
C35   C36   A    
C66   Cl11  S    
C5    C67   A    
C16   O1    A    
C63   C65   A    
Cr2   O19   S    
C57   C62   A    
C39   C41   A    
C53   C54   A    
C59   N21   S    
C13   N1    A    
C12   C23   A    
C75   Cl16  S    
H17   N17   S    
C32   N13   S    
C10   N7    S    
C22   C24   A    
C36   C37   A    
Cr4   O24   S    
C67   Cl18  S    
Cr4   O5    S    
H37   N27   S    
C85   C86   S    
H3    N10   S    
H16   N17   S    
C92   O26   A    
H19   N18   S    
C4    O15   A    
H29   N24   S    
Cr1   O4    S    
C47   N29   A    
N4    N12   A    
C18   C19   A    
H15   N16   S    
C7    N28   S    
N2    N3    A    
C3    C12   S    
H4    N10   S    
H26   N21   S    
H44   N9    S    
H5    N11   S    
C66   C72   A    
C63   C69   A    
C45   C56   A    
C8    C9    A    
C4    O14   A    
H39   N28   S    
C70   C71   T    
H13   N15   S    
Cr3   O22   S    
C45   C89   A    
C53   N18   S    
C76   C88   A    
C36   N14   S    
C47   N4    A    
C51   N17   S    
H36   N27   S    
C72   C94   S    
C45   Cl23  S    
H20   N19   S    
C23   Cl4   S    
C46   Cl2   S    
Cr2   O13   S    
C59   C60   A    
C96   O5    A    
C69   C70   S    
C67   C78   A    
C68   Cl10  S    
C65   Cl6   S    
H11   N15   S    
C50   N15   S    
C8    Cl12  S    
C9    C10   A    
Cr5   O25   S    
Cr2   O22   S    
H22   N20   S    
C44   C46   A    
C81   C82   A    
C62   Cl8   S    
C56   N5    S    
C77   C79   A    
C78   C89   A    
C15   C20   A    
Cr2   O12   S    
H21   N19   S    
H34   N6    S    
C74   C75   A    
C79   Cl13  S    
C91   O24   A    
C35   Cl25  S    
C35   C38   A    
C24   C25   A    
H35   N26   S    
C31   N34   A    
C55   C95   S    
C29   N10   S    
C6    C11   A    
C48   N12   A    
C12   C88   A    
C86   C87   T    
C68   C69   A    
H23   N6    S    
Cr1   O22   S    
C60   C71   S    
C84   N26   S    
C25   C26   A    
Cr3   O16   S    
C30   N33   A    
Cr1   O17   S    
H30   N24   S    
C30   C37   S    
C91   O25   A    
C60   C61   A    
C51   C53   A    
C41   Cl26  S    
C2    C89   S    
H28   N22   S    
C9    C14   S    
C92   O2    A    
Cr6   O3    S    
C52   O21   A    
C1    C22   S    
C83   C84   A    
C74   N25   S    
C28   O18   A    
C23   C34   A    
C14   N31   A    
Cr4   O23   S    
C34   C64   A    
C76   Cl17  S    
C64   C76   A    
Cr1   O1    S    
C1    O13   A    
C11   N6    S    
C32   C37   A    
C84   C85   A    
C75   C77   A    
C18   Cl21  S    
H32   N25   S    
C44   N16   S    
C47   C54   S    
H33   N26   S    
C63   Cl7   S    
Cr6   O10   S    
C40   O12   A    
C39   C46   A    
C48   N23   A    
C26   C27   A    
C83   Cl15  S    
H43   N8    S    
C42   C43   A    
C33   Cl22  S    
Cr3   O20   S    
H40   N7    S    
C25   Cl24  S    
C30   N3    A    
C39   C40   S    
C52   C57   S    
Cr5   O11   S    
H9    N14   S    
C21   C91   S    
C93   O23   A    
C15   C17   A    
C83   C90   A    
N33   N34   A    
C73   C74   A    
C28   C73   S    
C13   C20   S    
H10   N14   S    
C24   N9    S    
C26   C31   S    
C1    O4    A    
Cr5   O8    S    
Cr5   O7    S    
C50   C55   A    
H2    N9    S    
C96   O10   A    
C28   O19   A    
C19   C20   A    
Cr4   O11   S    
H6    N11   S    
C90   C96   S    
C6    C7    A    
N23   N29   A    
Cr3   O15   S    
C65   C72   A    
H14   N16   S    
Cr1   O18   S    
C4    C64   S    
C33   C38   A    
C82   C90   A    
C13   N32   A    
C58   Cl9   S    
C43   C48   S    
C32   C33   A    
C88   Cl19  S    
C34   N20   S    
C2    C3    T    
C58   C59   A    
H12   N5    S    
H27   N22   S    
Cr4   O6    S    
C42   Cl3   S    
C81   N24   S    
C93   O3    A    
C57   C58   A    
H1    N5    S    
C43   C44   A    
C14   N30   A    
C38   C93   S    
Cr6   O11   S    
Cr5   O26   S    
C73   C80   A    
H7    N13   S    
C51   C55   A    
H18   N18   S    
C40   O20   A    
C61   C62   A    
C27   N11   S    
C82   N22   S    
C5    C92   S    
C7    C8    A    
C10   C11   A    
Cr6   O9    S    
C6    C16   S    
C79   C80   A    
C94   O7    A    
H31   N25   S    
H25   N21   S    
C77   C87   S    
C52   O17   A    
H24   N20   S    
C49   C50   A    
C78   N27   S    
H42   N8    S    
C61   N19   S    
C95   O8    A    
C15   Cl20  S    
N1    N30   A    
Cr6   O2    S    
Cr3   O21   S    
C17   Cl1   S    
C19   N8    S    
H41   N7    S    
C81   C85   A    
H38   N28   S    
C49   C54   A    
C49   Cl5   S    
C31   N2    A    
C17   C21   A    
