data_mof_unit_37192.cif
_audit_creation_date              2012-12-10T21:18:25-0500
_audit_creation_method            fapswitch 2.2
_symmetry_space_group_name_H-M    P1
_symmetry_Int_Tables_number       1
_space_group_crystal_system       triclinic
_cell_length_a                    17.579322
_cell_length_b                    16.927289
_cell_length_c                    10.5047
_cell_angle_alpha                 90.859067
_cell_angle_beta                  93.538059
_cell_angle_gamma                 90.59529
_cell_volume                      3119.37730386

loop_
_atom_site_label
_atom_site_type_symbol
_atom_type_description
_atom_site_fract_x
_atom_site_fract_y
_atom_site_fract_z
_atom_type_partial_charge
C1    C     C_R   0.353656 0.499688 0.499596 0.877490
C2    C     C_R   0.551047 0.251489 0.580245 0.222506
C3    C     C_R   0.545362 0.750470 0.589894 0.200195
C4    C     C_R   0.449048 0.248410 0.420583 0.222567
C5    C     C_R   0.501651 0.876273 0.498752 0.092693
C6    C     C_R   0.498861 0.123262 0.503791 0.096219
C7    C     C_1   0.500692 0.963514 0.500651 -0.041084
C8    C     C_1   0.499749 0.036037 0.502517 -0.038718
C9    C     C_R   0.500919 0.499499 0.257163 0.860298
C10   C     C_R   0.500280 0.500637 0.742881 0.863184
C11   C     C_3   0.431986 0.519602 0.036575 -0.207887
C12   C     C_R   0.646436 0.500523 0.498519 0.874603
C13   C     C_3   0.570870 0.481395 0.963254 -0.208003
C14   C     C_3   0.483397 0.573639 0.960869 -0.144676
C15   C     C_3   0.519544 0.427338 0.039027 -0.131876
C16   C     C_3   0.449345 0.448010 0.950831 -0.157027
C17   C     C_3   0.553547 0.552937 0.049239 -0.157858
C18   C     C_3   0.500736 0.501928 0.877799 0.035134
C19   C     C_3   0.502031 0.498877 0.122245 0.039721
C20   C     C_R   0.848706 0.573740 0.519857 0.117604
C21   C     C_R   0.150578 0.442780 0.414487 0.119428
C22   C     C_R   0.155051 0.565238 0.546379 0.114040
C23   C     C_1   0.965354 0.507661 0.466228 -0.095868
C24   C     C_R   0.843095 0.439943 0.421810 0.112575
C25   C     C_R   0.769969 0.569708 0.530611 -0.232409
C26   C     C_R   0.230160 0.440788 0.426216 -0.236251
C27   C     C_R   0.234431 0.560994 0.555324 -0.210130
C28   C     C_R   0.764227 0.439037 0.432073 -0.209541
C29   C     C_R   0.728400 0.502510 0.488702 -0.107449
C30   C     C_R   0.271328 0.499626 0.495359 -0.101854
C31   C     C_R   0.884665 0.507512 0.467700 0.061655
C32   C     C_R   0.113827 0.505381 0.475715 0.060081
C33   C     C_3   0.895960 0.646543 0.563695 -0.411382
C34   C     C_1   0.032977 0.507060 0.468875 -0.095812
C35   C     C_3   0.850768 0.717865 0.608536 -0.369317
C36   C     C_3   0.903160 0.788128 0.644329 -0.890120
C37   C     C_3   0.103377 0.379898 0.338452 -0.406332
C38   C     C_3   0.148797 0.318898 0.265478 -0.368277
C39   C     C_3   0.095865 0.260979 0.189665 -0.887283
C40   C     C_3   0.112843 0.631935 0.610355 -0.411091
C41   C     C_3   0.163134 0.695121 0.681927 -0.361621
C42   C     C_3   0.114885 0.759166 0.739690 -0.890152
C43   C     C_3   0.884664 0.370666 0.363690 -0.409801
C44   C     C_3   0.834361 0.300928 0.312796 -0.365122
C45   C     C_R   0.455388 0.832496 0.411068 -0.280324
C46   C     C_3   0.882222 0.236327 0.255478 -0.886355
C47   C     C_3   0.393023 0.709192 0.324253 -0.393410
C48   C     C_3   0.312246 0.727222 0.363791 -0.369355
C49   C     C_3   0.251976 0.682230 0.279627 -0.874752
C50   C     C_3   0.610205 0.291504 0.670792 -0.388107
C51   C     C_3   0.691330 0.275404 0.631323 -0.369358
C52   C     C_3   0.750486 0.323757 0.712548 -0.876814
C53   C     C_3   0.586693 0.709398 0.701225 -0.371299
C54   C     C_3   0.655855 0.753650 0.766089 -0.438146
C55   C     C_3   0.698452 0.701340 0.863377 -0.898974
C56   C     C_R   0.550289 0.167564 0.582169 -0.281647
C57   C     C_3   0.391692 0.285274 0.326873 -0.405149
C58   C     C_3   0.403433 0.259535 0.188653 -0.364660
C59   C     C_3   0.344362 0.296633 0.096046 -0.911911
C60   C     C_R   0.545959 0.834688 0.588847 -0.259387
C61   C     C_R   0.447232 0.164517 0.425117 -0.274752
C62   C     C_R   0.452786 0.748765 0.414214 0.227061
H1    H     H_    0.406976 0.406011 0.904486 0.142586
H2    H     H_    0.808683 0.735934 0.531362 0.227288
H3    H     H_    0.820555 0.701703 0.694145 0.234046
H4    H     H_    0.936768 0.629092 0.643049 0.202357
H5    H     H_    0.929315 0.665735 0.482817 0.205259
H6    H     H_    0.060688 0.227458 0.255042 0.264284
H7    H     H_    0.057912 0.292998 0.119969 0.260726
H8    H     H_    0.130303 0.218443 0.136704 0.249599
H9    H     H_    0.184614 0.349911 0.197929 0.225152
H10   H     H_    0.185866 0.284657 0.333600 0.221834
H11   H     H_    0.067685 0.348042 0.405254 0.202258
H12   H     H_    0.596015 0.595279 0.094532 0.135585
H13   H     H_    0.064650 0.410401 0.267815 0.203339
H14   H     H_    0.080741 0.789831 0.663295 0.264585
H15   H     H_    0.076187 0.732940 0.807722 0.259618
H16   H     H_    0.152671 0.803302 0.791927 0.250465
H17   H     H_    0.198243 0.667375 0.760414 0.220520
H18   H     H_    0.201212 0.723545 0.615015 0.220215
H19   H     H_    0.076552 0.661858 0.535625 0.203899
H20   H     H_    0.074907 0.605182 0.679190 0.201867
H21   H     H_    0.912895 0.259743 0.174498 0.263626
H22   H     H_    0.924164 0.213434 0.328929 0.259341
H23   H     H_    0.375528 0.534888 0.071432 0.124707
H24   H     H_    0.844518 0.186761 0.219687 0.250055
H25   H     H_    0.803677 0.275081 0.391907 0.220785
H26   H     H_    0.792288 0.321550 0.237489 0.220507
H27   H     H_    0.916763 0.393339 0.283624 0.204101
H28   H     H_    0.926561 0.348073 0.437630 0.201880
H29   H     H_    0.740116 0.618151 0.572379 0.155938
H30   H     H_    0.261138 0.394962 0.379926 0.142544
H31   H     H_    0.268713 0.604806 0.608991 0.144711
H32   H     H_    0.729663 0.389844 0.395101 0.148554
H33   H     H_    0.419144 0.863689 0.341792 0.143527
H34   H     H_    0.627268 0.466079 0.928200 0.127997
H35   H     H_    0.590216 0.136636 0.645904 0.143119
H36   H     H_    0.579418 0.869061 0.659761 0.141287
H37   H     H_    0.405401 0.130997 0.365914 0.143195
H38   H     H_    0.254184 0.700629 0.178859 0.255344
H39   H     H_    0.261338 0.617559 0.285276 0.264778
H40   H     H_    0.194496 0.695159 0.312480 0.254067
H41   H     H_    0.307090 0.710111 0.464545 0.230331
H42   H     H_    0.300845 0.791473 0.356378 0.215631
H43   H     H_    0.399822 0.730275 0.225784 0.171943
H44   H     H_    0.398597 0.645231 0.320341 0.263081
H45   H     H_    0.468012 0.633187 0.925612 0.129602
H46   H     H_    0.739136 0.387914 0.703664 0.262943
H47   H     H_    0.749180 0.307228 0.814327 0.255696
H48   H     H_    0.808211 0.311974 0.679775 0.254222
H49   H     H_    0.704799 0.211788 0.641996 0.213717
H50   H     H_    0.695446 0.290417 0.529636 0.226509
H51   H     H_    0.602760 0.355179 0.677550 0.261975
H52   H     H_    0.603958 0.269050 0.768612 0.169348
H53   H     H_    0.660660 0.685100 0.939960 0.266021
H54   H     H_    0.718149 0.646502 0.816908 0.251438
H55   H     H_    0.748877 0.733913 0.907114 0.257291
H56   H     H_    0.536450 0.368263 0.073915 0.131119
H57   H     H_    0.695274 0.772203 0.693117 0.229515
H58   H     H_    0.637024 0.806662 0.818592 0.229599
H59   H     H_    0.544997 0.698434 0.774203 0.201045
H60   H     H_    0.608086 0.652578 0.668578 0.255976
H61   H     H_    0.286698 0.273251 0.112894 0.262871
H62   H     H_    0.344857 0.361934 0.108092 0.260691
H63   H     H_    0.357303 0.281365 0.996600 0.253783
H64   H     H_    0.461394 0.277356 0.163643 0.226094
H65   H     H_    0.398365 0.194406 0.176751 0.218638
H66   H     H_    0.333506 0.267552 0.352070 0.172338
H67   H     H_    0.943137 0.773035 0.726027 0.265130
H68   H     H_    0.394678 0.349639 0.330597 0.259768
H69   H     H_    0.936008 0.805405 0.561935 0.260987
H70   H     H_    0.868497 0.839163 0.672847 0.250638
N1    N     N_R   0.500000 0.707230 0.500000 -0.122793
N2    N     N_R   0.500000 0.292770 0.500000 -0.119902
O1    O     O_R   0.389110 0.566570 0.499990 -0.628058
O2    O     O_R   0.610890 0.433430 0.500010 -0.628340
O3    O     O_R   0.610890 0.566570 0.500010 -0.636222
O4    O     O_R   0.389110 0.433430 0.499990 -0.636914
O5    O     O_R   0.499980 0.566530 0.313950 -0.641684
O6    O     O_R   0.500020 0.433470 0.686050 -0.640605
O7    O     O_R   0.500020 0.566530 0.686050 -0.647899
O8    O     O_R   0.499980 0.433470 0.313950 -0.636449
Zn1   Zn    Zn3+2 0.500000 0.588860 0.500000 0.907553
Zn2   Zn    Zn3+2 0.500000 0.411140 0.500000 0.912116

loop_
_geom_bond_atom_site_label_1
_geom_bond_atom_site_label_2
_ccdc_geom_bond_type
C21   C26   A    
C51   H50   S    
C54   H58   S    
C12   C29   S    
C3    C53   S    
C41   C42   S    
C14   C18   S    
C35   C36   S    
C47   C62   S    
C7    C8    T    
C53   C54   S    
C15   C19   S    
C11   C19   S    
C43   H27   S    
C22   C32   A    
C13   C18   S    
C55   H54   S    
C6    C61   A    
C28   C29   A    
C11   H23   S    
C60   H36   S    
C53   H60   S    
C36   H70   S    
C49   H39   S    
C38   C39   S    
C11   C14   S    
C20   C25   A    
C35   H3    S    
C26   H30   S    
C15   C16   S    
C48   H42   S    
C45   C62   A    
C28   H32   S    
C39   H6    S    
C2    C50   S    
C17   C19   S    
C38   H9    S    
O5    Zn1   S    
C9    C19   S    
C47   H43   S    
C4    C57   S    
C35   H2    S    
C16   H1    S    
C44   H25   S    
C3    C60   A    
C47   H44   S    
O1    Zn1   S    
C37   H13   S    
C58   H65   S    
C54   H57   S    
C27   C30   A    
C25   C29   A    
C14   C17   S    
C61   H37   S    
C10   O6    A    
C56   H35   S    
C57   H66   S    
C44   C46   S    
C33   H4    S    
C59   H61   S    
C21   C32   A    
C38   H10   S    
N1    Zn1   S    
C43   H28   S    
C25   H29   S    
C13   H34   S    
C51   C52   S    
C40   H20   S    
C57   H68   S    
C36   H69   S    
C49   H40   S    
C5    C7    S    
C6    C8    S    
C58   C59   S    
C48   H41   S    
C5    C45   A    
C4    C61   A    
C50   H52   S    
C10   O7    A    
C32   C34   S    
C43   C44   S    
C37   C38   S    
C11   C16   S    
C47   C48   S    
C52   H48   S    
C23   C34   T    
C22   C40   S    
C50   C51   S    
C39   H7    S    
C2    N2    A    
C2    C56   A    
C46   H22   S    
C20   C33   S    
C40   C41   S    
C58   H64   S    
C22   C27   A    
C13   C15   S    
C17   H12   S    
O8    Zn2   S    
C27   H31   S    
C45   H33   S    
C14   H45   S    
C62   N1    A    
C4    N2    A    
C55   H55   S    
C59   H62   S    
C37   H11   S    
C54   C55   S    
C48   C49   S    
C51   H49   S    
C5    C60   A    
C40   H19   S    
C24   C28   A    
C6    C56   A    
C41   H17   S    
C9    O8    A    
C42   H16   S    
C59   H63   S    
C42   H14   S    
C15   H56   S    
C13   C17   S    
C50   H51   S    
O6    Zn2   S    
C24   C31   A    
O7    Zn1   S    
O2    Zn2   S    
C33   H5    S    
O4    Zn2   S    
C36   H67   S    
C49   H38   S    
C9    O5    A    
C57   C58   S    
C55   H53   S    
C52   H47   S    
C10   C18   S    
C1    C30   S    
C33   C35   S    
C39   H8    S    
O3    Zn1   S    
N2    Zn2   S    
C46   H21   S    
C21   C37   S    
C52   H46   S    
C42   H15   S    
C16   C18   S    
C12   O2    A    
C1    O1    A    
C24   C43   S    
C12   O3    A    
C41   H18   S    
C53   H59   S    
C3    N1    A    
C44   H26   S    
C20   C31   A    
C1    O4    A    
C23   C31   S    
C46   H24   S    
C26   C30   A    
