data_mof_unit_19474.cif
_audit_creation_date              2013-03-05T15:58:59-0500
_audit_creation_method            fapswitch 2.2
_symmetry_space_group_name_H-M    P1
_symmetry_Int_Tables_number       1
_space_group_crystal_system       triclinic
_cell_length_a                    7.227009
_cell_length_b                    21.408079
_cell_length_c                    23.450304
_cell_angle_alpha                 89.99985
_cell_angle_beta                  89.99741
_cell_angle_gamma                 89.998433
_cell_volume                      3628.14613046

loop_
_atom_site_label
_atom_site_type_symbol
_atom_site_description
_atom_site_fract_x
_atom_site_fract_y
_atom_site_fract_z
_atom_type_partial_charge
O1    O     O_R   0.365470 0.806380 0.442440 -0.570720
O2    O     O_R   0.134530 0.193620 0.942440 -0.570710
O3    O     O_R   0.865470 0.693620 0.557560 -0.570715
O4    O     O_R   0.634530 0.306380 0.057560 -0.570720
O5    O     O_R   0.035730 0.813790 0.557160 -0.587459
O6    O     O_R   0.464270 0.186210 0.057160 -0.587446
O7    O     O_R   0.535730 0.686210 0.442840 -0.587453
O8    O     O_R   0.964270 0.313790 0.942840 -0.587466
C1    C     C_R   0.204272 0.828731 0.575873 0.964825
C2    C     C_R   0.295723 0.171267 0.075872 0.964798
C3    C     C_R   0.704282 0.671275 0.424121 0.964824
C4    C     C_R   0.795726 0.328732 0.924127 0.964787
O9    O     O_R   0.035760 0.813790 0.442850 -0.574059
O10   O     O_R   0.464240 0.186210 0.942850 -0.574071
O11   O     O_R   0.535760 0.686210 0.557150 -0.574066
O12   O     O_R   0.964240 0.313790 0.057150 -0.574135
O13   O     O_R   0.865450 0.693620 0.442430 -0.582208
O14   O     O_R   0.634550 0.306380 0.942430 -0.582191
O15   O     O_R   0.365450 0.806380 0.557570 -0.582203
O16   O     O_R   0.134550 0.193620 0.057570 -0.582198
C5    C     C_R   0.204316 0.828717 0.424137 0.934828
C6    C     C_R   0.295688 0.171285 0.924135 0.934847
C7    C     C_R   0.704314 0.671284 0.575864 0.934823
C8    C     C_R   0.795679 0.328708 0.075869 0.934843
O17   O     O_3   0.198970 0.710570 0.500000 -0.277409
O18   O     O_3   0.301030 0.289430 0.000000 -0.277430
O19   O     O_3   0.698970 0.789430 0.500000 -0.277409
O20   O     O_3   0.801030 0.210570 0.000000 -0.277389
V1    V     V_3+5 0.924120 0.757310 0.500000 1.221528
V2    V     V_3+5 0.575880 0.242690 0.000000 1.221474
V3    V     V_3+5 0.424120 0.742690 0.500000 1.221520
V4    V     V_3+5 0.075880 0.257310 0.000000 1.221405
C9    C     C_3   0.939986 0.541113 0.734114 0.282946
C10   C     C_3   0.559752 0.459065 0.233996 0.282964
C11   C     C_3   0.439973 0.958878 0.265877 0.282925
C12   C     C_3   0.059950 0.041062 0.765928 0.282893
C13   C     C_3   0.595679 0.556226 0.755383 0.105343
C14   C     C_3   0.903755 0.443600 0.255508 0.105556
C15   C     C_3   0.095652 0.943788 0.244632 0.105247
C16   C     C_3   0.404164 0.056273 0.744582 0.105400
C17   C     C_3   0.608590 0.507240 0.804705 -0.510546
C18   C     C_3   0.890815 0.492584 0.304832 -0.510494
C19   C     C_3   0.108555 0.992772 0.195309 -0.510475
C20   C     C_3   0.391242 0.007290 0.695257 -0.510517
H1    H     H_    0.976439 0.522174 0.825603 0.182332
H2    H     H_    0.522534 0.478153 0.325428 0.182152
H3    H     H_    0.476374 0.977801 0.174383 0.182392
H4    H     H_    0.023274 0.022098 0.674453 0.182318
H5    H     H_    0.970064 0.588607 0.750719 0.132685
H6    H     H_    0.529201 0.411618 0.250633 0.132603
H7    H     H_    0.470032 0.911379 0.249277 0.132713
H8    H     H_    0.029729 0.088546 0.749323 0.132672
H9    H     H_    0.455131 0.551632 0.736286 0.139563
H10   H     H_    0.044504 0.448077 0.236518 0.138881
H11   H     H_    0.955116 0.948391 0.263739 0.139631
H12   H     H_    0.544774 0.051710 0.763644 0.139356
H13   H     H_    0.633801 0.530401 0.846443 0.223327
H14   H     H_    0.864885 0.469440 0.346538 0.223417
H15   H     H_    0.133723 0.969609 0.153568 0.223353
H16   H     H_    0.365833 0.030449 0.653529 0.223373
H17   H     H_    0.473731 0.482463 0.808680 0.166584
H18   H     H_    0.025892 0.517195 0.308955 0.166451
H19   H     H_    0.973710 0.017561 0.191346 0.166605
H20   H     H_    0.526160 0.982555 0.691239 0.166534
C21   C     C_1   0.786317 0.374601 0.878561 -0.260170
C22   C     C_1   0.713721 0.625420 0.378542 -0.260044
C23   C     C_1   0.286314 0.125396 0.121436 -0.260089
C24   C     C_1   0.213681 0.874600 0.621441 -0.260078
C25   C     C_3   0.740524 0.541211 0.707388 -0.119834
C26   C     C_3   0.759414 0.458757 0.207409 -0.119695
C27   C     C_3   0.240522 0.958796 0.292616 -0.119848
C28   C     C_3   0.259475 0.041214 0.792609 -0.119785
C29   C     C_3   0.948978 0.495042 0.785999 -0.510985
C30   C     C_3   0.550739 0.505207 0.285828 -0.511157
C31   C     C_3   0.448961 0.004941 0.213985 -0.510938
C32   C     C_3   0.050941 0.994980 0.714052 -0.511008
C33   C     C_3   0.764113 0.458964 0.792742 0.248452
C34   C     C_3   0.735938 0.541053 0.292724 0.247830
C35   C     C_3   0.264114 0.041034 0.207256 0.248458
C36   C     C_3   0.235896 0.958963 0.707259 0.248330
C37   C     C_3   0.721333 0.425716 0.735335 -0.489890
C38   C     C_3   0.779662 0.574237 0.235347 -0.488423
C39   C     C_3   0.221389 0.074290 0.264664 -0.490065
C40   C     C_3   0.278943 0.925726 0.764654 -0.489649
C41   C     C_3   0.692901 0.473898 0.685891 0.469234
C42   C     C_3   0.807818 0.526011 0.185933 0.468699
C43   C     C_3   0.192939 0.026114 0.314114 0.469293
C44   C     C_3   0.307332 0.973915 0.814093 0.469114
C45   C     C_1   0.776849 0.412622 0.840119 0.034446
C46   C     C_1   0.723220 0.587408 0.340093 0.034542
C47   C     C_1   0.276849 0.087375 0.159878 0.034492
C48   C     C_1   0.223157 0.912619 0.659884 0.034492
C49   C     C_1   0.724864 0.587553 0.659909 0.145757
C50   C     C_1   0.775063 0.412408 0.159936 0.145347
C51   C     C_1   0.224864 0.912455 0.340097 0.145801
C52   C     C_1   0.275133 0.087556 0.840089 0.145671
C53   C     C_1   0.714027 0.625484 0.621448 -0.169916
C54   C     C_1   0.785934 0.374490 0.121466 -0.170168
C55   C     C_1   0.214030 0.874521 0.378556 -0.169874
C56   C     C_1   0.285976 0.125485 0.878550 -0.169966
H21   H     H_    0.542953 0.474103 0.674040 0.075944
H22   H     H_    0.957857 0.525622 0.174182 0.075833
H23   H     H_    0.042998 0.025922 0.325976 0.075972
H24   H     H_    0.457310 0.974167 0.825910 0.075939
H25   H     H_    0.836774 0.393294 0.724779 0.228017
H26   H     H_    0.664804 0.606854 0.224692 0.228199
H27   H     H_    0.336867 0.106698 0.275209 0.228008
H28   H     H_    0.163651 0.893256 0.775239 0.228065
H29   H     H_    0.065476 0.461438 0.782221 0.203825
H30   H     H_    0.434684 0.538962 0.281905 0.204023
H31   H     H_    0.565483 0.038534 0.217750 0.203814
H32   H     H_    0.934562 0.961338 0.717869 0.203854
H33   H     H_    0.594191 0.396780 0.739744 0.160266
H34   H     H_    0.907181 0.602965 0.239857 0.160140
H35   H     H_    0.094271 0.103240 0.260264 0.160302
H36   H     H_    0.406177 0.896840 0.760211 0.160222
N1    N     N_R   0.083372 0.527801 0.691197 0.255525
O21   O     O_R   0.150626 0.471873 0.684302 -0.394521
O22   O     O_R   0.149084 0.573220 0.660375 -0.400531
N2    N     N_R   0.416764 0.472436 0.190973 0.255497
O23   O     O_R   0.349856 0.528400 0.183998 -0.394057
O24   O     O_R   0.350911 0.427026 0.160170 -0.400958
N3    N     N_R   0.583376 0.972191 0.308784 0.255528
O25   O     O_R   0.650641 0.028116 0.315669 -0.394545
O26   O     O_R   0.649076 0.926774 0.339611 -0.400488
N4    N     N_R   0.916688 0.027724 0.808878 0.255515
O27   O     O_R   0.849600 0.971780 0.815804 -0.394359
O28   O     O_R   0.850866 0.073140 0.839682 -0.400658
N5    N     N_R   0.611999 0.620469 0.776938 0.255748
O29   O     O_R   0.742163 0.636136 0.812530 -0.397748
O30   O     O_R   0.485498 0.661347 0.764042 -0.367410
N6    N     N_R   0.886766 0.379366 0.277036 0.255790
O31   O     O_R   0.756213 0.363802 0.312535 -0.397723
O32   O     O_R   0.013035 0.338377 0.264213 -0.367613
N7    N     N_R   0.111940 0.879544 0.223076 0.255761
O33   O     O_R   0.242086 0.863869 0.187475 -0.397616
O34   O     O_R   0.985429 0.838674 0.235980 -0.367259
N8    N     N_R   0.387641 0.120514 0.723037 0.255755
O35   O     O_R   0.257359 0.136154 0.687475 -0.397767
O36   O     O_R   0.514070 0.161423 0.735912 -0.367492
O37   O     O_3   0.804168 0.458170 0.638121 -0.559376
C57   C     C_3   0.712756 0.414468 0.602959 -0.097761
H37   H     H_    0.590622 0.436162 0.581975 0.130539
H38   H     H_    0.670518 0.372155 0.627244 0.134223
H39   H     H_    0.809506 0.399353 0.568932 0.174641
O38   O     O_3   0.696830 0.541888 0.138144 -0.559271
C58   C     C_3   0.790036 0.584715 0.102525 -0.097959
H40   H     H_    0.910271 0.561986 0.081397 0.130739
H41   H     H_    0.835568 0.626871 0.126478 0.134325
H42   H     H_    0.693435 0.600267 0.068636 0.174680
O39   O     O_3   0.304208 0.041834 0.361880 -0.559392
C59   C     C_3   0.212965 0.085637 0.396985 -0.097678
H43   H     H_    0.090658 0.064050 0.417968 0.130523
H44   H     H_    0.171027 0.127951 0.372655 0.134210
H45   H     H_    0.309727 0.100727 0.431014 0.174648
O40   O     O_3   0.196192 0.958141 0.861878 -0.559381
C60   C     C_3   0.288024 0.914602 0.897105 -0.097602
H46   H     H_    0.409734 0.936511 0.918137 0.130630
H47   H     H_    0.331021 0.872344 0.872863 0.134187
H48   H     H_    0.191307 0.899352 0.931090 0.174670

loop_
_geom_bond_atom_site_label_1
_geom_bond_atom_site_label_2
_geom_bond_distance
_ccdc_geom_bond_type
O17   V3    1.766506 S    
C39   C43   1.565448 S    
C14   C26   1.570287 S    
O1    C5    1.330167 A    
C60   H46   1.112210 S    
C13   C25   1.570257 S    
O19   V1    1.766471 S    
O13   V1    1.965085 S    
H4    C32   1.113246 S    
O3    C7    1.330167 A    
C58   H40   1.112313 S    
C17   H17   1.113537 S    
C36   C40   1.553907 S    
O15   V3    1.965041 S    
C18   H14   1.112258 S    
C19   H19   1.113532 S    
N7    O33   1.301593 A    
C22   C46   1.216514 T    
C15   N7    1.470000 S    
C2    C23   1.452808 S    
C20   H20   1.113535 S    
O7    C3    1.333669 A    
C11   C31   1.567621 S    
N4    O27   1.302252 A    
C8    C54   1.452203 S    
C44   O40   1.419439 S    
H1    C29   1.113245 S    
O40   C60   1.411278 S    
C58   H41   1.112793 S    
C14   C18   1.564061 S    
C25   C49   1.495573 S    
N1    O22   1.301297 A    
C17   C33   1.552422 S    
O4    C8    1.330136 A    
C51   C55   1.216138 T    
N3    O26   1.301292 A    
C27   C51   1.495576 S    
C50   C54   1.216110 T    
C19   C35   1.552414 S    
O1    V3    1.964872 S    
O2    V4    1.964850 S    
O3    V1    1.964860 S    
C41   H21   1.118769 S    
C12   C32   1.567607 S    
C44   H24   1.118782 S    
C1    O15   1.330395 A    
C15   H11   1.114441 S    
C2    O16   1.330401 A    
N6    O31   1.301593 A    
C16   H12   1.114469 S    
C16   N8    1.469996 S    
O2    C6    1.330158 A    
O39   C59   1.411302 S    
O14   V2    1.965054 S    
C33   C37   1.553892 S    
C10   C26   1.571886 S    
C16   C20   1.564053 S    
C35   C47   1.492320 S    
C12   H8    1.110271 S    
C3    C22   1.452841 S    
C19   H15   1.112235 S    
C13   H9    1.114450 S    
O11   C7    1.333633 A    
C11   C27   1.571888 S    
O12   C8    1.333647 A    
C43   O39   1.419406 S    
C32   H32   1.110931 S    
C57   H39   1.109162 S    
O10   V2    1.977173 S    
C42   O38   1.419457 S    
C28   C44   1.564981 S    
N2    O24   1.301304 A    
O5    V1    1.977241 S    
C10   N2    1.472341 S    
C9    N1    1.472346 S    
C37   H25   1.113131 S    
C10   H6    1.110256 S    
O7    V3    1.977166 S    
O8    V4    1.977211 S    
C39   H35   1.112976 S    
N3    O25   1.302253 A    
C58   H42   1.108988 S    
C6    C56   1.452239 S    
C38   H34   1.112995 S    
C41   O37   1.419426 S    
O18   V4    1.766506 S    
C15   C19   1.564038 S    
C15   C27   1.570249 S    
C38   C42   1.565271 S    
C34   C46   1.492357 S    
C14   N6    1.470010 S    
C36   C48   1.492337 S    
C21   C45   1.216495 T    
O5    C1    1.333653 A    
C34   C38   1.554001 S    
C14   H10   1.114517 S    
C59   H45   1.109158 S    
C20   C36   1.552431 S    
O8    C4    1.333645 A    
C33   C45   1.492329 S    
C23   C47   1.216495 T    
O9    C5    1.333627 A    
C29   H29   1.110930 S    
N8    O36   1.301190 A    
C10   C30   1.567603 S    
N6    O32   1.301188 A    
C27   C43   1.565025 S    
C9    C29   1.567612 S    
C7    C53   1.452232 S    
C59   H44   1.112645 S    
C18   C34   1.552437 S    
C60   H48   1.109163 S    
C11   H7    1.110279 S    
C43   H23   1.118756 S    
O12   V4    1.977095 S    
C37   H33   1.112985 S    
C26   C42   1.564908 S    
C49   C53   1.216132 T    
H2    C30   1.113252 S    
C25   C41   1.565004 S    
N2    O23   1.302280 A    
O38   C58   1.411376 S    
O16   V4    1.965063 S    
O9    V1    1.977119 S    
N7    O34   1.301190 A    
C18   H18   1.113531 S    
C3    O13   1.330382 A    
N4    O28   1.301293 A    
C16   C28   1.570269 S    
O6    V2    1.977187 S    
C12   N4    1.472350 S    
C32   C36   1.551295 S    
O6    C2    1.333638 A    
C60   H47   1.112702 S    
O11   V3    1.977140 S    
C9    C25   1.571894 S    
C26   C50   1.495549 S    
C4    C21   1.452820 S    
C31   H31   1.110928 S    
O10   C6    1.333639 A    
O20   V2    1.766471 S    
N5    O29   1.301595 A    
C1    C24   1.452827 S    
C17   H13   1.112241 S    
O37   C57   1.411284 S    
C35   C39   1.553870 S    
C40   C44   1.565394 S    
C31   C35   1.551289 S    
C20   H16   1.112236 S    
C5    C55   1.452227 S    
C52   C56   1.216133 T    
C11   N3    1.472341 S    
C24   C48   1.216503 T    
C39   H27   1.113130 S    
C57   H38   1.112666 S    
C38   H26   1.113104 S    
C13   C17   1.564040 S    
O4    V2    1.964891 S    
N8    O35   1.301586 A    
H3    C31   1.113240 S    
C28   C52   1.495575 S    
C40   H28   1.113129 S    
C59   H43   1.112187 S    
C40   H36   1.112986 S    
C30   C34   1.551304 S    
C4    O14   1.330402 A    
C29   C33   1.551296 S    
C57   H37   1.112189 S    
C30   H30   1.110911 S    
N1    O21   1.302259 A    
C9    H5    1.110276 S    
C13   N5    1.469996 S    
C37   C41   1.565426 S    
C12   C28   1.571889 S    
N5    O30   1.301182 A    
C42   H22   1.118820 S    
