data_mof_unit_45557.cif
_audit_creation_date              2012-12-11T14:21:02-0500
_audit_creation_method            fapswitch 2.2
_symmetry_space_group_name_H-M    P1
_symmetry_Int_Tables_number       1
_space_group_crystal_system       triclinic
_cell_length_a                    11.699019
_cell_length_b                    11.571112
_cell_length_c                    19.497019
_cell_angle_alpha                 90.357809
_cell_angle_beta                  90.945304
_cell_angle_gamma                 59.60731
_cell_volume                      2276.30707055

loop_
_atom_site_label
_atom_site_type_symbol
_atom_type_description
_atom_site_fract_x
_atom_site_fract_y
_atom_site_fract_z
_atom_type_partial_charge
C1    C     C_R   0.640874 0.117100 0.599064 0.552352
C2    C     C_1   0.642674 0.703394 0.667893 0.006367
C3    C     C_1   0.125707 0.198788 0.859358 0.005082
C4    C     C_1   0.172293 0.170026 0.727698 -0.030142
C5    C     C_1   0.149826 0.182196 0.799021 -0.029757
C6    C     C_1   0.196654 0.160543 0.667388 0.003336
C7    C     C_1   0.677141 0.192158 0.860877 0.001425
C8    C     C_1   0.659236 0.166857 0.728897 -0.030628
C9    C     C_1   0.664868 0.181444 0.800270 -0.031261
C10   C     C_1   0.654393 0.148783 0.668440 0.005618
C11   C     C_R   0.669944 0.656521 0.196035 -0.011899
C12   C     C_R   0.612917 0.745872 0.598393 0.546162
C13   C     C_R   0.541968 0.719143 0.223568 0.013267
C14   C     C_R   0.531602 0.697711 0.293043 -0.002403
C15   C     C_R   0.767434 0.604098 0.310588 -0.184836
C16   C     C_R   0.781937 0.592412 0.239831 -0.178210
C17   C     C_R   0.425501 0.776608 0.181311 0.299663
C18   C     C_R   0.322623 0.756658 0.200442 -0.072291
C19   C     C_R   0.314617 0.723690 0.267663 -0.199557
C20   C     C_R   0.415510 0.699127 0.314430 -0.148682
C21   C     C_R   0.641305 0.668678 0.337277 -0.002006
C22   C     C_R   0.187443 0.178246 0.180848 -0.010701
C23   C     C_R   0.242220 0.144926 0.598263 0.552984
C24   C     C_R   0.252043 0.244141 0.205381 -0.012878
C25   C     C_R   0.280448 0.241382 0.277103 0.018642
C26   C     C_R   0.240814 0.053111 0.286258 -0.165372
C27   C     C_R   0.201613 0.071666 0.218148 -0.164347
C28   C     C_R   0.291641 0.308889 0.158509 -0.121317
C29   C     C_R   0.342480 0.386764 0.181328 -0.145821
C30   C     C_R   0.347221 0.406941 0.250684 -0.075425
C31   C     C_R   0.313756 0.340227 0.299101 0.290182
C32   C     C_R   0.271947 0.141135 0.319098 -0.013266
C33   C     C_R   0.725119 0.204153 0.206390 -0.023372
C34   C     C_R   0.642678 0.111931 0.402114 0.573281
C35   C     C_R   0.782463 0.068606 0.229949 0.007293
C36   C     C_R   0.724401 0.044706 0.285121 -0.050876
C37   C     C_R   0.634945 0.277670 0.319504 0.080148
C38   C     C_R   0.655049 0.308403 0.252931 -0.164408
C39   C     C_R   0.902763 0.957058 0.205817 0.163567
C40   C     C_R   0.936853 0.826127 0.221236 0.301303
C41   C     C_R   0.863165 0.805415 0.268347 -0.117242
C42   C     C_R   0.750936 0.913128 0.295981 -0.156574
C43   C     C_R   0.661475 0.147606 0.333873 0.065990
C44   C     C_R   0.080736 0.231376 0.928568 0.548174
C45   C     C_R   0.616234 0.734090 0.404184 0.525529
C46   C     C_R   0.683127 0.604346 0.929737 0.551616
C47   C     C_R   0.707802 0.206751 0.930339 0.551838
C48   C     C_R   0.092991 0.230890 0.121868 0.533633
C49   C     C_R   0.685495 0.607888 0.126366 0.557312
C50   C     C_R   0.741921 0.233395 0.134979 0.544429
C51   C     C_R   0.303986 0.116882 0.393875 0.555797
C52   C     C_1   0.668020 0.647312 0.860380 0.004612
C53   C     C_1   0.655249 0.683551 0.728525 -0.030650
C54   C     C_1   0.661924 0.667361 0.799856 -0.031517
Cr1   Cr    Cr6+3 0.404720 0.198220 0.499960 1.068637
Cr2   Cr    Cr6+3 0.698290 0.897110 0.500380 1.014506
Cr3   Cr    Cr6+3 0.396970 0.904720 0.499610 1.021765
Cr4   Cr    Cr6+3 0.926180 0.151990 0.028120 1.005842
Cr5   Cr    Cr6+3 0.921330 0.451820 0.027470 0.991084
Cr6   Cr    Cr6+3 0.626260 0.446870 0.028710 1.036749
H1    H     H_    0.853547 0.566814 0.344212 0.114470
H2    H     H_    0.371817 0.437250 0.145173 0.140926
H3    H     H_    0.376567 0.476693 0.267387 0.127151
H4    H     H_    0.623206 0.410940 0.238980 0.129578
H5    H     H_    0.903253 0.706316 0.288158 0.128396
H6    H     H_    0.692232 0.893640 0.330350 0.166024
H7    H     H_    0.880913 0.534005 0.219538 0.150242
H8    H     H_    0.244396 0.776027 0.164093 0.174184
H9    H     H_    0.229234 0.719135 0.283990 0.173519
H10   H     H_    0.404273 0.671537 0.365530 0.157961
H11   H     H_    0.242034 0.971944 0.313859 0.167716
H12   H     H_    0.285331 0.297470 0.103634 0.134067
H13   H     H_    0.187314 0.000331 0.192208 0.177587
O1    O     O_R   0.267740 0.231960 0.575440 -0.506065
O2    O     O_R   0.685970 0.784660 0.430010 -0.519724
O3    O     O_R   0.502530 0.767000 0.423990 -0.533295
O4    O     O_R   0.288330 0.026350 0.429250 -0.502208
O5    O     O_3   0.499990 0.000020 0.499980 -0.290582
O6    O     O_R   0.821500 0.119340 0.952830 -0.504380
O7    O     O_R   0.037130 0.162530 0.957360 -0.488989
O8    O     O_R   0.056440 0.344740 0.951340 -0.511414
O9    O     O_R   0.797900 0.560360 0.957470 -0.496050
O10   O     O_R   0.596130 0.579390 0.952730 -0.492107
O11   O     O_R   0.639060 0.321160 0.958670 -0.491310
O12   O     O_R   0.527280 0.186640 0.570530 -0.491817
O13   O     O_R   0.821240 0.124200 0.104370 -0.532927
O14   O     O_R   0.036890 0.167040 0.097840 -0.525818
O15   O     O_R   0.056180 0.349610 0.102880 -0.529158
O16   O     O_R   0.797660 0.564870 0.097950 -0.532841
O17   O     O_R   0.595880 0.584250 0.104270 -0.476737
O18   O     O_R   0.638830 0.325670 0.099150 -0.501404
O19   O     O_3   0.824590 0.350230 0.028100 -0.270725
O20   O     O_R   0.728090 0.003450 0.576380 -0.501744
O21   O     O_R   0.682970 0.789190 0.570490 -0.492537
O22   O     O_R   0.499290 0.771880 0.575530 -0.501902
O23   O     O_R   0.285330 0.030870 0.569730 -0.487387
O24   O     O_R   0.270980 0.227080 0.423890 -0.458199
O25   O     O_R   0.530280 0.182120 0.430050 -0.450945
O26   O     O_R   0.731330 0.998570 0.424830 -0.530491
O27   O     O_3   0.307650 0.382260 0.365767 -0.533046
C55   C     C_3   0.181704 0.496848 0.375887 -0.091862
H14   H     H_    0.100579 0.475213 0.365193 0.121064
H15   H     H_    0.167294 0.582534 0.343967 0.106938
H16   H     H_    0.174635 0.527504 0.430384 0.137608
N1    N     N_3   0.592828 0.375144 0.373127 -0.600782
H17   H     H_    0.495526 0.449372 0.362928 0.246890
H18   H     H_    0.652837 0.418064 0.373165 0.230658
N2    N     N_3   0.008454 0.974122 0.185004 -0.624484
H19   H     H_    0.982311 0.073473 0.193529 0.243866
H20   H     H_    0.029947 0.947213 0.133522 0.261822
O28   O     O_3   0.054023 0.718758 0.198649 -0.600205
C56   C     C_3   0.030273 0.682516 0.133099 -0.119175
H21   H     H_    0.988927 0.768048 0.096341 0.108782
H22   H     H_    0.963180 0.641138 0.136380 0.155293
H23   H     H_    0.125532 0.603249 0.112121 0.138023
O29   O     O_3   0.415480 0.834642 0.117436 -0.558961
C57   C     C_3   0.466909 0.922261 0.119207 -0.109136
H24   H     H_    0.465140 0.964755 0.170901 0.109558
H25   H     H_    0.405914 0.007700 0.084225 0.137072
H26   H     H_    0.569481 0.870901 0.099676 0.126266

loop_
_geom_bond_atom_site_label_1
_geom_bond_atom_site_label_2
_ccdc_geom_bond_type
C51   O24   A    
C22   C48   S    
C25   C31   A    
C55   H14   S    
C11   C13   A    
C41   C42   A    
C36   C42   A    
C35   C36   A    
Cr5   O9    S    
C47   O6    A    
C49   O17   A    
C2    C12   S    
Cr4   O14   S    
C56   H22   S    
C53   C54   S    
N2    H19   S    
C26   C32   A    
N1    H18   S    
C26   C27   A    
C37   C38   A    
C45   O3    A    
Cr3   O3    S    
Cr5   O8    S    
C28   C29   A    
C57   H25   S    
C30   C31   A    
Cr6   O10   S    
C18   H8    S    
C15   C16   A    
C46   C52   S    
Cr2   O5    S    
C23   O23   A    
C18   C19   A    
Cr5   O16   S    
Cr5   O15   S    
C34   O25   A    
C46   O9    A    
Cr1   O1    S    
C19   C20   A    
C8    C9    S    
Cr3   O23   S    
C48   O15   A    
C12   O22   A    
C38   H4    S    
Cr4   O7    S    
C25   C32   A    
C55   H15   S    
Cr2   O2    S    
C13   C14   A    
C26   H11   S    
C12   O21   A    
C28   H12   S    
Cr4   O13   S    
C56   H21   S    
C52   C54   T    
C17   C18   A    
C40   O28   S    
C21   C45   S    
Cr6   O19   S    
C1    O12   A    
C39   N2    S    
C3    C44   S    
C34   C43   S    
Cr3   O4    S    
C44   O7    A    
C24   C25   A    
C4    C6    T    
C44   O8    A    
C57   H26   S    
C39   C40   A    
Cr1   O5    S    
C41   H5    S    
C33   C50   S    
C31   O27   S    
C7    C47   S    
Cr1   O12   S    
Cr2   O21   S    
C51   O4    A    
C32   C51   S    
C37   N1    S    
C29   C30   A    
C11   C49   S    
C14   C20   A    
C11   C16   A    
Cr1   O24   S    
C34   O26   A    
C15   H1    S    
C48   O14   A    
C16   H7    S    
C47   O11   A    
Cr4   O6    S    
C1    O20   A    
Cr2   O20   S    
C55   H16   S    
C22   C27   A    
C22   C24   A    
C37   C43   A    
C19   H9    S    
C23   O1    A    
C20   H10   S    
Cr6   O18   S    
C7    C9    T    
C29   H2    S    
C40   C41   A    
O28   C56   S    
Cr3   O5    S    
C1    C10   S    
C24   C28   A    
C49   O16   A    
C4    C5    S    
C3    C5    T    
C2    C53   T    
Cr6   O17   S    
N1    H17   S    
C33   C38   A    
C13   C17   A    
C45   O2    A    
C27   H13   S    
C57   H24   S    
Cr6   O11   S    
C6    C23   S    
Cr1   O25   S    
O27   C55   S    
C33   C35   A    
N2    H20   S    
O29   C57   S    
Cr5   O19   S    
C50   O13   A    
C14   C21   A    
C46   O10   A    
C50   O18   A    
C15   C21   A    
C35   C39   A    
C8    C10   T    
Cr3   O22   S    
C42   H6    S    
C36   C43   A    
Cr2   O26   S    
C30   H3    S    
Cr4   O19   S    
C56   H23   S    
C17   O29   S    
