data_mof_unit_45534.cif
_audit_creation_date              2012-12-10T17:07:43-0500
_audit_creation_method            fapswitch 2.2
_symmetry_space_group_name_H-M    P1
_symmetry_Int_Tables_number       1
_space_group_crystal_system       triclinic
_cell_length_a                    19.236535
_cell_length_b                    11.019595
_cell_length_c                    9.931371
_cell_angle_alpha                 111.442468
_cell_angle_beta                  97.030159
_cell_angle_gamma                 92.629861
_cell_volume                      1935.41329092

loop_
_atom_site_label
_atom_site_type_symbol
_atom_type_description
_atom_site_fract_x
_atom_site_fract_y
_atom_site_fract_z
_atom_type_partial_charge
C1    C     C_R   0.495064 0.254093 0.440314 0.899982
C2    C     C_R   0.504936 0.745907 0.559686 0.899980
C3    C     C_2   0.488945 0.113748 0.407172 -0.303011
C4    C     C_2   0.511055 0.886252 0.592828 -0.303013
C5    C     C_2   0.506697 0.069056 0.513448 -0.172494
C6    C     C_2   0.493303 0.930944 0.486552 -0.172494
C7    C     C_2   0.510795 0.500479 0.075688 0.013576
C8    C     C_2   0.489205 0.499521 0.924312 0.013576
C9    C     C_R   0.367946 0.498339 0.501621 0.846024
C10   C     C_R   0.632054 0.501661 0.498379 0.846024
C11   C     C_R   0.267029 0.605506 0.603327 -0.249983
C12   C     C_R   0.732971 0.394494 0.396672 -0.249982
C13   C     C_R   0.195176 0.609794 0.613363 -0.006227
C14   C     C_R   0.804824 0.390207 0.386635 -0.006228
C15   C     C_R   0.147589 0.501884 0.518833 -0.050423
C16   C     C_R   0.852411 0.498116 0.481167 -0.050423
C17   C     C_R   0.173198 0.391332 0.421981 -0.200335
C18   C     C_R   0.826802 0.608667 0.578020 -0.200334
C19   C     C_R   0.245176 0.385550 0.414912 -0.020808
C20   C     C_R   0.754824 0.614450 0.585090 -0.020811
C21   C     C_R   0.292287 0.495257 0.505806 -0.100316
C22   C     C_R   0.707712 0.504743 0.494194 -0.100316
C23   C     C_R   0.929079 0.497738 0.487381 0.463301
C24   C     C_R   0.070921 0.502261 0.512618 0.463302
Cu1   Cu    Cu3+1 0.512140 0.521810 0.644910 0.976683
Cu2   Cu    Cu3+1 0.487860 0.478190 0.355090 0.976682
H1    H     H_    0.304178 0.687506 0.674437 0.173741
H2    H     H_    0.695821 0.312495 0.325560 0.173741
H3    H     H_    0.136401 0.308663 0.351247 0.203153
H4    H     H_    0.863600 0.691335 0.648755 0.203154
H5    H     H_    0.468882 0.865072 0.378090 0.173450
H6    H     H_    0.531117 0.134928 0.621910 0.173450
H7    H     H_    0.532687 0.952905 0.702961 0.158531
H8    H     H_    0.467313 0.047095 0.297039 0.158531
H9    H     H_    0.579424 0.597392 0.917808 0.210403
H10   H     H_    0.420576 0.402607 0.082192 0.210403
N1    N     N_R   0.030888 0.393272 0.501062 -0.212425
N2    N     N_R   0.969112 0.606727 0.498937 -0.212425
N3    N     N_R   0.961206 0.391372 0.489771 -0.184048
N4    N     N_R   0.038794 0.608627 0.510227 -0.184048
N5    N     N_2   0.469620 0.445420 0.137370 -0.309216
N6    N     N_2   0.530380 0.554580 0.862630 -0.309216
O1    O     O_R   0.506480 0.332340 0.577400 -0.588725
O2    O     O_R   0.493520 0.667660 0.422600 -0.588725
O3    O     O_R   0.485980 0.295500 0.332650 -0.555156
O4    O     O_R   0.514020 0.704500 0.667350 -0.555155
O5    O     O_R   0.410390 0.518410 0.622410 -0.570965
O6    O     O_R   0.589610 0.481590 0.377590 -0.570966
O7    O     O_R   0.389900 0.481570 0.377660 -0.564297
O8    O     O_R   0.610100 0.518430 0.622340 -0.564296
C25   C     C_2   0.173004 0.725100 0.728439 0.851117
O9    O     O_2   0.121990 0.713455 0.786657 -0.566313
O10   O     O_R   0.212461 0.846804 0.774601 -0.767346
H11   H     H_    0.192846 0.917436 0.854637 0.347419
C26   C     C_2   0.826996 0.274902 0.271557 0.851116
O11   O     O_2   0.878010 0.286547 0.213340 -0.566313
O12   O     O_R   0.787538 0.153198 0.225393 -0.767346
H12   H     H_    0.807154 0.082567 0.145356 0.347418
C27   C     C_2   0.268724 0.262250 0.315120 0.835460
O13   O     O_2   0.327167 0.230135 0.342276 -0.614894
O14   O     O_R   0.222778 0.180157 0.191436 -0.750144
H13   H     H_    0.244367 0.098746 0.132742 0.339417
C28   C     C_2   0.731277 0.737750 0.684882 0.835467
O15   O     O_2   0.672833 0.769864 0.657729 -0.614893
O16   O     O_R   0.777223 0.819846 0.808563 -0.750145
H14   H     H_    0.755635 0.901256 0.867259 0.339417
C29   C     C_R   0.417612 0.439700 0.850833 0.194300
C30   C     C_R   0.405064 0.304400 0.770595 -0.126827
C31   C     C_R   0.336334 0.245893 0.714041 -0.119055
C32   C     C_R   0.279480 0.321165 0.742931 -0.098034
C33   C     C_R   0.291342 0.454820 0.828980 -0.132116
C34   C     C_R   0.360129 0.514214 0.882613 -0.157227
H15   H     H_    0.448258 0.244049 0.755477 0.128472
H16   H     H_    0.327103 0.141748 0.650434 0.161266
H17   H     H_    0.226233 0.275693 0.700218 0.156055
H18   H     H_    0.247230 0.512521 0.853733 0.157602
H19   H     H_    0.368675 0.617642 0.950242 0.130432
C35   C     C_R   0.582387 0.560300 0.149167 0.194301
C36   C     C_R   0.639870 0.485787 0.117388 -0.157227
C37   C     C_R   0.708658 0.545181 0.171021 -0.132116
C38   C     C_R   0.720519 0.678836 0.257069 -0.098034
C39   C     C_R   0.663666 0.754108 0.285959 -0.119057
C40   C     C_R   0.594936 0.695600 0.229405 -0.126827
H20   H     H_    0.631325 0.382358 0.049759 0.130432
H21   H     H_    0.752770 0.487480 0.146267 0.157601
H22   H     H_    0.773767 0.724308 0.299783 0.156055
H23   H     H_    0.672896 0.858253 0.349566 0.161265
H24   H     H_    0.551741 0.755951 0.244522 0.128472

loop_
_geom_bond_atom_site_label_1
_geom_bond_atom_site_label_2
_ccdc_geom_bond_type
C25   O10   S    
C26   O11   D    
C28   O16   S    
C40   H24   S    
C17   H3    S    
C1    O3    A    
Cu1   O1    S    
C38   C39   A    
Cu2   O2    S    
C7    C8    S    
O10   H11   S    
C10   C22   S    
C37   H21   S    
C12   H2    S    
C19   C21   A    
C8    N6    D    
C5    C6    S    
C39   H23   S    
C12   C22   A    
C29   C34   A    
H9    N6    S    
Cu1   O8    S    
Cu2   O3    S    
C17   C19   A    
C13   C25   S    
C35   C40   A    
C1    O1    A    
C2    O2    A    
C30   C31   A    
C32   C33   A    
C18   H4    S    
Cu1   O5    S    
C38   H22   S    
Cu2   O6    S    
C5    H6    S    
C14   C26   S    
C27   O13   D    
H10   N5    S    
O14   H13   S    
C27   O14   S    
C25   O9    D    
C9    O7    A    
C36   C37   A    
C4    C6    D    
Cu2   O7    S    
C35   C36   A    
C3    H8    S    
C19   C27   S    
C30   H15   S    
C11   C21   A    
C2    O4    A    
C29   C30   A    
C1    C3    S    
C2    C4    S    
C34   H19   S    
C11   H1    S    
C24   N1    A    
C31   H16   S    
C7    C35   S    
C15   C24   S    
C12   C14   A    
C9    O5    A    
C16   C23   S    
C26   O12   S    
C10   O6    A    
C14   C16   A    
C10   O8    A    
C33   H18   S    
C15   C17   A    
C4    H7    S    
C20   C22   A    
C37   C38   A    
C3    C5    D    
Cu1   N6    S    
C23   N2    A    
C20   C28   S    
C13   C15   A    
Cu1   Cu2   S    
C33   C34   A    
N1    N3    A    
N2    N4    A    
C11   C13   A    
C9    C21   S    
O12   H12   S    
C36   H20   S    
C23   N3    A    
C24   N4    A    
C6    H5    S    
C18   C20   A    
C7    N5    D    
C31   C32   A    
C28   O15   D    
C8    C29   S    
C16   C18   A    
O16   H14   S    
C32   H17   S    
C39   C40   A    
Cu1   O4    S    
Cu2   N5    S    
