data_mof_unit_40630.cif
_audit_creation_date              2013-03-05T15:58:44-0500
_audit_creation_method            fapswitch 2.2
_symmetry_space_group_name_H-M    P1
_symmetry_Int_Tables_number       1
_space_group_crystal_system       triclinic
_cell_length_a                    6.925442
_cell_length_b                    14.404457
_cell_length_c                    15.877473
_cell_angle_alpha                 90.22166
_cell_angle_beta                  90.029639
_cell_angle_gamma                 90.045968
_cell_volume                      1583.88017249

loop_
_atom_site_label
_atom_site_type_symbol
_atom_site_description
_atom_site_fract_x
_atom_site_fract_y
_atom_site_fract_z
_atom_type_partial_charge
O1    O     O_R   0.494320 0.415010 0.412140 -0.597056
O2    O     O_R   0.824010 0.404260 0.587250 -0.596030
O3    O     O_R   0.994320 0.584990 0.587860 -0.588397
C1    C     C_R   0.654751 0.381800 0.616389 0.858332
O4    O     O_R   0.824040 0.403870 0.412760 -0.595670
O5    O     O_R   0.994350 0.584590 0.412130 -0.595368
C2    C     C_R   0.654825 0.381932 0.383139 0.880055
O6    O     O_R   0.494300 0.415410 0.587870 -0.594329
O7    O     O_3   0.660800 0.559290 0.500000 -0.266602
V1    V     V_3+5 0.935650 0.489000 0.500000 1.133642
O8    O     O_R   0.324060 0.595740 0.412750 -0.596242
C3    C     C_R   0.154937 0.617502 0.382989 0.856152
O9    O     O_R   0.324040 0.596130 0.587240 -0.595095
C4    C     C_R   0.155273 0.618447 0.616321 0.905899
V2    V     V_3+5 0.435660 0.511000 0.500000 1.135754
O10   O     O_3   0.160640 0.440710 0.500000 -0.272434
C5    C     C_3   0.054692 0.668665 0.773701 -0.141369
C6    C     C_3   0.228980 0.717077 0.816697 -0.142836
H1    H     H_    0.307782 0.690769 0.872627 0.096253
H2    H     H_    0.989955 0.601598 0.793294 0.094005
C7    C     C_3   0.121476 0.810421 0.811830 -0.081497
C8    C     C_3   0.946998 0.762805 0.769621 -0.093792
C9    C     C_3   0.037420 0.781781 0.682092 -0.133956
C10   C     C_3   0.211706 0.830191 0.725087 -0.133240
C11   C     C_3   0.319403 0.736052 0.729168 -0.090195
C12   C     C_3   0.144928 0.688438 0.686958 -0.084020
H3    H     H_    0.793341 0.774079 0.786674 0.107300
H4    H     H_    0.958616 0.808104 0.626170 0.108563
H5    H     H_    0.276436 0.897249 0.705478 0.100856
H6    H     H_    0.473061 0.724784 0.712112 0.108185
C13   C     C_3   0.202217 0.855446 0.267116 -0.281485
H7    H     H_    0.348020 0.884794 0.254690 0.204208
H8    H     H_    0.107336 0.914085 0.286413 0.184145
C14   C     C_3   0.216034 0.784105 0.340072 -0.355706
H9    H     H_    0.128824 0.808928 0.394518 0.147207
H10   H     H_    0.368583 0.779156 0.361671 0.169076
H11   H     H_    0.404389 0.753285 0.148167 0.161135
H12   H     H_    0.421011 0.647220 0.254800 0.152275
C15   C     C_3   0.256610 0.727092 0.162091 -0.358420
C16   C     C_3   0.919534 0.768291 0.206141 -0.339689
C17   C     C_3   0.121782 0.809394 0.185704 0.067397
H13   H     H_    0.859803 0.732725 0.149459 0.138295
H14   H     H_    0.817304 0.824689 0.223227 0.207584
C18   C     C_3   0.143066 0.687193 0.311230 0.104554
C19   C     C_3   0.267774 0.655477 0.235033 -0.357208
C20   C     C_3   0.931372 0.698472 0.279589 -0.335605
H15   H     H_    0.837564 0.723167 0.332003 0.168419
H16   H     H_    0.873699 0.630136 0.258265 0.137146
H17   H     H_    0.202512 0.692234 0.104023 0.127797
H18   H     H_    0.216977 0.586534 0.212152 0.126744
C21   C     C_3   0.429182 0.292996 0.713392 -0.335750
H19   H     H_    0.360411 0.359030 0.734252 0.143718
H20   H     H_    0.345421 0.266719 0.658364 0.154207
C22   C     C_3   0.416966 0.221510 0.785451 -0.352085
H21   H     H_    0.327614 0.161405 0.764509 0.148154
H22   H     H_    0.342628 0.253712 0.840416 0.146585
H23   H     H_    0.691197 0.413523 0.787921 0.127958
H24   H     H_    0.672797 0.307130 0.895217 0.123378
C23   C     C_3   0.753030 0.346192 0.766450 -0.360179
C24   C     C_3   0.731983 0.216910 0.659995 -0.357382
C25   C     C_3   0.642723 0.311168 0.687262 0.120668
H25   H     H_    0.885856 0.226804 0.641904 0.154901
H26   H     H_    0.654765 0.189638 0.603596 0.139245
C26   C     C_3   0.621557 0.187775 0.811653 0.128430
C27   C     C_3   0.740604 0.274263 0.839012 -0.358948
C28   C     C_3   0.719529 0.144921 0.732510 -0.349602
H27   H     H_    0.636283 0.083174 0.710831 0.133748
H28   H     H_    0.867567 0.120683 0.748560 0.150110
H29   H     H_    0.907363 0.358825 0.750607 0.149379
H30   H     H_    0.889137 0.252970 0.857459 0.154165
C29   C     C_3   0.429924 0.296216 0.283190 -0.325333
H31   H     H_    0.342643 0.268759 0.336447 0.175087
H32   H     H_    0.364618 0.363559 0.264139 0.135479
C30   C     C_3   0.418189 0.227629 0.208464 -0.316812
H33   H     H_    0.358822 0.264472 0.152640 0.136732
H34   H     H_    0.313780 0.171432 0.223095 0.194337
H35   H     H_    0.642717 0.191829 0.396633 0.177870
C31   C     C_3   0.724184 0.216335 0.340564 -0.474836
C32   C     C_3   0.760652 0.344397 0.234258 -0.362166
C33   C     C_3   0.642891 0.311412 0.311923 0.081376
H36   H     H_    0.914483 0.355170 0.252168 0.154433
H37   H     H_    0.703977 0.412323 0.212087 0.135070
C34   C     C_3   0.621347 0.187880 0.186788 -0.049835
C35   C     C_3   0.714340 0.144012 0.267338 0.299797
C36   C     C_3   0.749296 0.272102 0.161396 -0.436168
H38   H     H_    0.689372 0.305709 0.104055 0.150425
H39   H     H_    0.897737 0.248307 0.145395 0.162189
H40   H     H_    0.877095 0.224609 0.360939 0.146856
H41   H     H_    0.865892 0.124830 0.251138 0.061837
O11   O     O_R   0.771990 0.083520 0.910980 -0.595201
O12   O     O_R   0.442180 0.095020 0.086060 -0.593021
O13   O     O_R   0.271950 0.914280 0.086680 -0.587832
C37   C     C_R   0.611018 0.117621 0.115195 0.918021
O14   O     O_R   0.442270 0.094630 0.911580 -0.601237
O15   O     O_R   0.272040 0.913890 0.910940 -0.591211
C38   C     C_R   0.611108 0.117115 0.882479 0.848429
O16   O     O_R   0.771900 0.083910 0.086710 -0.593771
O17   O     O_3   0.605520 0.939610 0.998840 -0.267288
V3    V     V_3+5 0.330640 0.009880 0.998810 1.145870
O18   O     O_R   0.942330 0.902710 0.911540 -0.599047
C39   C     C_R   0.111110 0.880415 0.882466 0.896230
O19   O     O_R   0.942240 0.903100 0.086030 -0.587255
C40   C     C_R   0.111168 0.880075 0.114759 0.878549
V4    V     V_3+5 0.830640 0.987830 0.998780 1.151517
O20   O     O_3   0.105630 0.058150 0.998800 -0.277658
N1    N     N_R   0.614158 0.059207 0.294033 0.221292
O21   O     O_R   0.442474 0.062666 0.327185 -0.454267
O22   O     O_R   0.704369 0.980114 0.291504 -0.473897

loop_
_geom_bond_atom_site_label_1
_geom_bond_atom_site_label_2
_geom_bond_distance
_ccdc_geom_bond_type
C28   H28   1.113073 S    
C6    C7    1.539635 S    
C21   C25   1.558380 S    
C30   C34   1.557580 S    
C1    O6    1.294686 A    
C32   H37   1.112863 S    
C15   C17   1.554541 S    
H35   C31   1.112692 S    
C16   C20   1.545072 S    
C30   H34   1.110299 S    
C24   H26   1.112923 S    
C5    C12   1.540176 S    
C19   H18   1.112870 S    
C14   H9    1.112846 S    
O5    C3    1.295015 A    
O19   V4    2.004871 S    
C31   C33   1.550858 S    
H23   C23   1.112873 S    
N1    O21   1.301460 A    
O15   V3    2.001640 S    
V2    O10   2.156310 S    
C34   C37   1.520648 S    
O18   V4    2.002442 S    
C5    H2    1.110319 S    
C24   H25   1.113011 S    
C6    H1    1.110163 S    
C9    C12   1.539635 S    
C10   H5    1.110263 S    
V4    O20   2.156329 S    
H12   C19   1.113107 S    
O13   C40   1.297189 A    
C20   H15   1.113464 S    
O8    V2    2.004961 S    
C16   H14   1.110954 S    
C13   H7    1.112380 S    
C35   N1    1.468399 S    
C9    C10   1.550238 S    
C13   H8    1.112743 S    
O1    V2    2.002355 S    
O7    V1    2.156706 S    
C15   C19   1.555855 S    
C7    C39   1.506961 S    
C16   H13   1.113200 S    
C28   H27   1.112902 S    
C24   C28   1.554849 S    
O9    C4    1.297152 A    
C6    C11   1.549779 S    
C29   C33   1.558635 S    
C18   C20   1.558333 S    
C20   H16   1.113423 S    
C36   H39   1.113109 S    
V3    O20   1.706886 S    
C22   H22   1.113329 S    
C23   C25   1.553189 S    
C30   H33   1.113507 S    
C21   H19   1.113436 S    
C14   C18   1.551599 S    
C10   C11   1.549686 S    
C26   C38   1.521381 S    
O4    C2    1.300783 A    
C11   C12   1.540734 S    
C36   H38   1.113017 S    
C1    C25   1.522232 S    
C17   C40   1.523057 S    
C24   C25   1.552443 S    
C21   H20   1.113411 S    
C26   C28   1.554336 S    
O2    C1    1.301480 A    
O12   C37   1.298015 A    
H24   C27   1.112900 S    
C34   C35   1.567097 S    
C5    C6    1.550278 S    
C13   C14   1.554424 S    
C9    H4    1.110154 S    
C4    C12   1.506940 S    
O14   C38   1.298736 A    
O11   V4    2.005842 S    
O3    C4    1.294559 A    
C23   H29   1.113144 S    
C16   C17   1.555082 S    
C15   H17   1.112777 S    
O6    V2    2.005607 S    
C8    H3    1.110101 S    
O9    V2    2.002343 S    
C35   H41   1.115477 S    
O2    V1    2.004862 S    
C37   O16   1.296701 A    
C32   C36   1.555449 S    
C18   C19   1.554254 S    
C32   H36   1.113094 S    
C31   H40   1.113304 S    
C11   H6    1.110102 S    
C22   H21   1.113451 S    
C13   C17   1.553449 S    
C34   C36   1.556258 S    
O1    C2    1.293951 A    
O5    V1    2.005538 S    
C29   C30   1.543079 S    
O8    C3    1.301741 A    
O11   C38   1.297066 A    
O15   C39   1.294590 A    
C5    C8    1.549699 S    
C21   C22   1.544527 S    
C26   C27   1.553796 S    
O7    V2    1.706808 S    
C29   H31   1.113345 S    
C3    C18   1.523656 S    
O3    V1    2.001627 S    
V1    O10   1.706878 S    
C23   C27   1.554805 S    
N1    O22   1.300271 A    
O14   V3    2.004705 S    
O17   V4    1.706274 S    
O18   C39   1.297114 A    
C14   H10   1.112995 S    
O19   C40   1.299225 A    
O16   V4    2.004132 S    
C32   C33   1.554479 S    
C31   C35   1.559516 S    
O4    V1    2.001004 S    
C22   C26   1.555255 S    
H11   C15   1.113063 S    
O17   V3    2.156755 S    
C7    C10   1.540155 S    
C29   H32   1.113480 S    
C8    C9    1.549759 S    
O12   V3    2.001014 S    
C7    C8    1.540756 S    
C27   H30   1.113047 S    
O13   V3    2.005622 S    
C2    C33   1.519250 S    
