data_mof_unit_33989.cif
_audit_creation_date              2012-12-10T17:59:17-0500
_audit_creation_method            fapswitch 2.2
_symmetry_space_group_name_H-M    P1
_symmetry_Int_Tables_number       1
_space_group_crystal_system       triclinic
_cell_length_a                    10.867552
_cell_length_b                    9.62854
_cell_length_c                    11.013632
_cell_angle_alpha                 89.466963
_cell_angle_beta                  90.321368
_cell_angle_gamma                 90.148858
_cell_volume                      1152.3799501

loop_
_atom_site_label
_atom_site_type_symbol
_atom_type_description
_atom_site_fract_x
_atom_site_fract_y
_atom_site_fract_z
_atom_type_partial_charge
C1    C     C_R   0.262884 0.500102 0.492469 0.781186
C2    C     C_3   0.599932 0.585411 0.931435 -0.661294
C3    C     C_R   0.064514 0.402834 0.421045 -0.321561
C4    C     C_R   0.066335 0.600962 0.553886 -0.327348
C5    C     C_R   0.934559 0.405743 0.415626 0.429142
C6    C     C_R   0.938358 0.593318 0.565872 0.451685
C7    C     C_R   0.872445 0.500107 0.491950 -0.218369
C8    C     C_R   0.129082 0.501275 0.488289 -0.118399
C9    C     C_R   0.397048 0.073864 0.469104 -0.186306
C10   C     C_R   0.398308 0.926483 0.465363 -0.201068
C11   C     C_R   0.597170 0.924200 0.545082 0.503903
C12   C     C_R   0.603634 0.072796 0.533477 0.484157
C13   C     C_R   0.494755 0.500229 0.259854 0.946322
C14   C     C_R   0.737710 0.500011 0.496935 0.895937
C15   C     C_R   0.501194 0.498257 0.740589 0.882866
C16   C     C_3   0.376230 0.585125 0.068319 0.732715
C17   C     C_3   0.482643 0.339413 0.073112 0.726443
C18   C     C_3   0.367492 0.554992 0.925207 0.752014
C19   C     C_3   0.517292 0.338447 0.933341 0.790422
C20   C     C_3   0.615615 0.568068 0.072787 0.872773
C21   C     C_3   0.490957 0.499075 0.120527 -0.390521
C22   C     C_3   0.496106 0.491831 0.880338 -0.332859
Cu1   Cu    Cu3+1 0.500020 0.640660 0.500000 1.005869
Cu2   Cu    Cu3+1 0.500020 0.359340 0.500000 0.997482
H1    H     H_    0.572628 0.692365 0.908764 0.227444
H2    H     H_    0.687496 0.566392 0.883730 0.200894
H3    H     H_    0.313150 0.127692 0.445190 0.151714
H4    H     H_    0.315742 0.872732 0.437339 0.156755
N1    N     N_R   0.500030 0.852070 0.500030 -0.213041
N2    N     N_R   0.500030 0.147930 0.500030 -0.202693
O1    O     O_R   0.319660 0.618740 0.499990 -0.604696
O2    O     O_R   0.319660 0.381260 0.499990 -0.620930
O3    O     O_R   0.499990 0.618790 0.317690 -0.566585
O4    O     O_R   0.499990 0.381210 0.317690 -0.551837
O5    O     O_R   0.680370 0.618830 0.500010 -0.513101
O6    O     O_R   0.680370 0.381170 0.500010 -0.503535
O7    O     O_R   0.500030 0.618780 0.682310 -0.526482
O8    O     O_R   0.500030 0.381220 0.682310 -0.576866
O9    O     O_3   0.398847 0.731540 0.080509 -0.590306
C23   C     C_3   0.355221 0.798563 0.185516 -0.239145
H5    H     H_    0.311685 0.730189 0.254442 0.197000
H6    H     H_    0.288159 0.879814 0.158138 0.110753
H7    H     H_    0.433641 0.853505 0.228368 0.202701
O10   O     O_3   0.572316 0.263060 0.143687 -0.513494
C24   C     C_3   0.579873 0.118461 0.130815 -0.213348
H8    H     H_    0.492624 0.067392 0.106513 0.139661
H9    H     H_    0.607441 0.073743 0.220074 0.159816
H10   H     H_    0.655255 0.094329 0.067463 0.172575
O11   O     O_3   0.681723 0.852986 0.614264 -0.514923
C25   C     C_3   0.657072 0.880313 0.737032 -0.291542
H11   H     H_    0.703528 0.801899 0.792532 0.192239
H12   H     H_    0.557442 0.872372 0.759023 0.162954
H13   H     H_    0.695884 0.981754 0.764082 0.133113
O12   O     O_3   0.708614 0.143509 0.570304 -0.595022
C26   C     C_3   0.818838 0.080360 0.531851 -0.250995
H14   H     H_    0.891390 0.160803 0.528647 0.185213
H15   H     H_    0.810273 0.032606 0.440459 0.154290
H16   H     H_    0.852900 0.004238 0.600067 0.199446
O13   O     O_3   0.271245 0.535917 0.135219 -0.604519
C27   C     C_3   0.155182 0.594734 0.108406 -0.316601
H17   H     H_    0.097577 0.583519 0.190719 0.160612
H18   H     H_    0.107114 0.535667 0.036553 0.201330
H19   H     H_    0.157310 0.706716 0.087714 0.146575
O14   O     O_3   0.360021 0.283371 0.080911 -0.563596
C28   C     C_3   0.318194 0.239477 0.196159 -0.214917
H20   H     H_    0.234309 0.175526 0.182654 0.130228
H21   H     H_    0.290734 0.328132 0.252400 0.196232
H22   H     H_    0.384113 0.173540 0.245820 0.170461
O15   O     O_3   0.269124 0.457984 0.906245 -0.569421
C29   C     C_3   0.230671 0.440584 0.784628 -0.237622
H23   H     H_    0.249018 0.531269 0.725845 0.167268
H24   H     H_    0.130216 0.421368 0.783932 0.142113
H25   H     H_    0.272583 0.347087 0.745012 0.227642
O16   O     O_3   0.435865 0.249970 0.865810 -0.571030
C30   C     C_3   0.448833 0.105194 0.877952 -0.252787
H26   H     H_    0.380045 0.063915 0.942877 0.197178
H27   H     H_    0.542831 0.070648 0.900099 0.130449
H28   H     H_    0.424686 0.058998 0.789114 0.163630
O17   O     O_3   0.353026 0.682881 0.857751 -0.586124
C31   C     C_3   0.239409 0.751782 0.866822 -0.321097
H29   H     H_    0.244115 0.833075 0.937097 0.188740
H30   H     H_    0.160901 0.681506 0.881282 0.155697
H31   H     H_    0.222695 0.807157 0.779618 0.163087
O18   O     O_3   0.644462 0.297819 0.928953 -0.597174
C32   C     C_3   0.695271 0.276018 0.813963 -0.221928
H32   H     H_    0.782813 0.218563 0.826332 0.159955
H33   H     H_    0.719033 0.375215 0.768028 0.160457
H34   H     H_    0.635051 0.210737 0.758263 0.231708
O19   O     O_3   0.634722 0.695086 0.138036 -0.540508
C33   C     C_3   0.692196 0.805203 0.074167 -0.395702
H35   H     H_    0.762797 0.772217 0.008949 0.128474
H36   H     H_    0.738928 0.872904 0.141067 0.173323
H37   H     H_    0.621450 0.867213 0.025798 0.181118
O20   O     O_3   0.712073 0.472440 0.101469 -0.509045
C34   C     C_3   0.831899 0.527812 0.091967 -0.168634
H38   H     H_    0.850364 0.605559 0.163701 0.164869
H39   H     H_    0.852108 0.568179 0.000052 0.090846
H40   H     H_    0.897867 0.442480 0.106029 0.178062
H41   H     H_    0.117183 0.327860 0.371316 0.139495
H42   H     H_    0.118212 0.679207 0.602125 0.162161
O21   O     O_3   0.863113 0.322308 0.338818 -0.527128
C35   C     C_3   0.930567 0.224605 0.271175 -0.297143
H43   H     H_    0.979247 0.149359 0.331373 0.116841
H44   H     H_    0.996901 0.276043 0.208918 0.151115
H45   H     H_    0.865061 0.164681 0.214374 0.200259
O22   O     O_3   0.874347 0.675078 0.647804 -0.523868
C36   C     C_3   0.940686 0.692283 0.757348 -0.373184
H46   H     H_    0.004877 0.781417 0.748627 0.160106
H47   H     H_    0.987444 0.595296 0.787030 0.144436
H48   H     H_    0.877816 0.717339 0.831696 0.154336

loop_
_geom_bond_atom_site_label_1
_geom_bond_atom_site_label_2
_ccdc_geom_bond_type
C26   H14   S    
C16   C21   S    
C1    C8    S    
C34   H38   S    
C4    C8    A    
C34   H40   S    
C32   H32   S    
Cu2   O6    S    
C27   H19   S    
Cu1   N1    S    
C15   C22   S    
C17   O14   S    
C14   O6    A    
C24   H10   S    
O22   C36   S    
C1    O1    A    
C35   H45   S    
C27   H18   S    
C25   H12   S    
C15   O7    A    
C7    C14   S    
C18   O17   S    
C28   H21   S    
C2    C22   S    
Cu2   O8    S    
C36   H46   S    
C29   H23   S    
C9    C10   A    
C18   O15   S    
C23   H6    S    
O13   C27   S    
C36   H47   S    
C35   H43   S    
C31   H31   S    
Cu2   N2    S    
C24   H9    S    
C5    O21   S    
C25   H13   S    
O16   C30   S    
C32   H33   S    
C2    C20   S    
O21   C35   S    
C19   C22   S    
O18   C32   S    
C31   H30   S    
C3    C8    A    
O9    C23   S    
C5    C7    A    
Cu1   O3    S    
C24   H8    S    
C1    O2    A    
Cu2   O4    S    
C27   H17   S    
C16   O13   S    
Cu1   O1    S    
C30   H26   S    
Cu2   O2    S    
C15   O8    A    
C13   O3    A    
C11   O11   S    
C33   H36   S    
Cu1   Cu2   S    
C28   H22   S    
C23   H7    S    
C29   H25   S    
C25   H11   S    
C6    O22   S    
C13   C21   S    
O20   C34   S    
C2    H2    S    
C35   H44   S    
C30   H27   S    
C9    N2    A    
C4    C6    A    
C23   H5    S    
O11   C25   S    
Cu1   O5    S    
C26   H15   S    
C36   H48   S    
C19   O18   S    
C14   O5    A    
O10   C24   S    
C9    H3    S    
C33   H37   S    
C32   H34   S    
C10   H4    S    
C20   O20   S    
O12   C26   S    
C12   N2    A    
C18   C22   S    
C19   O16   S    
C31   H29   S    
C3    C5    A    
C11   C12   A    
C34   H39   S    
C6    C7    A    
C20   O19   S    
O14   C28   S    
C4    H42   S    
C17   O10   S    
C13   O4    A    
Cu1   O7    S    
C10   N1    A    
C33   H35   S    
C17   C19   S    
C2    H1    S    
O15   C29   S    
C30   H28   S    
C17   C21   S    
C16   O9    S    
O17   C31   S    
C3    H41   S    
C20   C21   S    
C11   N1    A    
C16   C18   S    
C28   H20   S    
C26   H16   S    
C29   H24   S    
O19   C33   S    
C12   O12   S    
