data_mof_unit_48966.cif
_audit_creation_date              2012-12-10T18:10:44-0500
_audit_creation_method            fapswitch 2.2
_symmetry_space_group_name_H-M    P1
_symmetry_Int_Tables_number       1
_space_group_crystal_system       triclinic
_cell_length_a                    12.594955
_cell_length_b                    13.020396
_cell_length_c                    15.763446
_cell_angle_alpha                 90.480196
_cell_angle_beta                  102.038581
_cell_angle_gamma                 82.873487
_cell_volume                      2508.27655512

loop_
_atom_site_label
_atom_site_type_symbol
_atom_type_description
_atom_site_fract_x
_atom_site_fract_y
_atom_site_fract_z
_atom_type_partial_charge
C1    C     C_R   0.439879 0.690723 0.479452 0.920477
C2    C     C_R   0.596823 0.197908 0.501665 -0.199424
C3    C     C_R   0.292252 0.840319 0.435623 0.473367
C4    C     C_R   0.500260 0.500494 0.661278 0.905362
C5    C     C_R   0.264159 0.947670 0.428692 -0.278652
C6    C     C_R   0.344086 0.012604 0.432100 -0.231492
C7    C     C_R   0.454553 0.971863 0.435835 0.076029
C8    C     C_R   0.481784 0.863887 0.433577 -0.008544
C9    C     C_R   0.540793 0.034139 0.451328 0.027324
C10   C     C_R   0.651067 0.988222 0.470797 0.049693
C11   C     C_R   0.673622 0.886818 0.441784 0.028843
C12   C     C_3   0.389360 0.554297 0.031482 -0.175351
C13   C     C_R   0.586796 0.826296 0.418272 0.083972
C14   C     C_R   0.519871 0.140472 0.454405 -0.331666
C15   C     C_R   0.702306 0.149894 0.540076 0.455685
C16   C     C_R   0.560773 0.307977 0.509156 0.920179
C17   C     C_R   0.403725 0.798602 0.447155 -0.209751
C18   C     C_R   0.085975 0.353683 0.373194 -0.367796
C19   C     C_R   0.798194 0.628350 0.603852 -0.064462
C20   C     C_R   0.899681 0.664563 0.621599 0.004665
C21   C     C_R   0.979869 0.623611 0.576182 0.071678
C22   C     C_R   0.960887 0.537391 0.520358 -0.012696
C23   C     C_3   0.505345 0.505404 0.083921 0.056778
C24   C     C_R   0.854224 0.507844 0.502719 0.114084
C25   C     C_R   0.040464 0.480617 0.479831 -0.074131
C26   C     C_R   0.008821 0.404536 0.416861 0.016756
C27   C     C_R   0.902087 0.377653 0.399072 0.438149
C28   C     C_R   0.499267 0.500954 0.338615 0.879038
C29   C     C_R   0.826842 0.430080 0.443377 -0.350546
C30   C     C_R   0.152163 0.492274 0.501750 -0.085485
C31   C     C_R   0.192563 0.378737 0.390608 0.600664
C32   C     C_3   0.384093 0.547587 0.931793 0.239065
C33   C     C_3   0.581899 0.578855 0.962587 -0.233738
C34   C     C_3   0.531252 0.388631 0.055337 0.095606
C35   C     C_3   0.592385 0.577858 0.064780 0.767510
C36   C     C_1   0.498045 0.504482 0.249748 -0.234551
C37   C     C_3   0.500037 0.503530 0.916757 -0.031739
C38   C     C_3   0.868672 0.211725 0.595655 0.137741
C39   C     C_3   0.909795 0.301511 0.649890 -0.809194
C40   C     C_3   0.135145 0.787070 0.356850 0.106403
C41   C     C_3   0.070897 0.694890 0.345057 -0.812994
C42   C     C_3   0.239571 0.670657 0.864318 0.095784
C43   C     C_3   0.212990 0.782038 0.830791 -0.815176
C44   C     C_3   0.241563 0.333084 0.259600 0.087497
C45   C     C_3   0.538527 0.391508 0.957157 0.225427
C46   C     C_3   0.244429 0.223828 0.224314 -0.892177
C47   C     C_3   0.775213 0.264559 0.331818 0.103126
C48   C     C_3   0.771903 0.167260 0.277807 -0.822870
C49   C     C_3   0.633920 0.753158 0.081790 0.114924
C50   C     C_3   0.592826 0.857764 0.114563 -0.857600
C51   C     C_3   0.729947 0.546885 0.196828 0.118148
C52   C     C_3   0.851650 0.554632 0.225045 -0.872135
C53   C     C_3   0.391548 0.308501 0.871103 0.118453
C54   C     C_3   0.368463 0.202271 0.836724 -0.818257
C55   C     C_1   0.500732 0.506707 0.175006 0.041547
C56   C     C_1   0.499909 0.502881 0.825090 0.092772
C57   C     C_1   0.500467 0.501954 0.750006 -0.172962
C58   C     C_R   0.732253 0.045247 0.519651 0.002243
H1    H     H_    0.379377 0.637911 0.047873 0.228710
H2    H     H_    0.544930 0.657073 0.936614 0.224116
H3    H     H_    0.626627 0.379817 0.956436 0.138066
H4    H     H_    0.273140 0.449379 0.018075 0.188710
H5    H     H_    0.230801 0.566956 0.050805 0.168011
H6    H     H_    0.703422 0.361866 0.091507 0.215679
H7    H     H_    0.641603 0.258410 0.097278 0.188385
H8    H     H_    0.869288 0.228084 0.526896 0.125800
H9    H     H_    0.927407 0.142093 0.618756 0.170468
H10   H     H_    0.924546 0.280970 0.719972 0.245556
H11   H     H_    0.987489 0.319498 0.634088 0.200176
H12   H     H_    0.324601 0.495523 0.901553 0.050220
H13   H     H_    0.848045 0.371050 0.636771 0.281347
H14   H     H_    0.808743 0.780453 0.467163 0.194009
H15   H     H_    0.778136 0.831669 0.365044 0.179503
H16   H     H_    0.830523 0.926206 0.589868 0.224600
H17   H     H_    0.884683 0.979224 0.511805 0.201231
H18   H     H_    0.175425 0.790005 0.300306 0.130530
H19   H     H_    0.076160 0.858161 0.356476 0.133580
H20   H     H_    0.025451 0.691228 0.397901 0.262215
H21   H     H_    0.011348 0.703454 0.282176 0.192660
H22   H     H_    0.127110 0.622186 0.344848 0.261327
H23   H     H_    0.441608 0.179419 0.421910 0.221246
H24   H     H_    0.196690 0.662255 0.918295 0.130509
H25   H     H_    0.209271 0.618896 0.810470 0.129099
H26   H     H_    0.250841 0.791710 0.774173 0.258553
H27   H     H_    0.123125 0.802615 0.810604 0.203540
H28   H     H_    0.245023 0.835262 0.882660 0.258627
H29   H     H_    0.615187 0.753045 0.310349 0.163991
H30   H     H_    0.671098 0.686386 0.403097 0.221282
H31   H     H_    0.302454 0.372247 0.234469 0.188725
H32   H     H_    0.160170 0.378028 0.232999 0.117029
H33   H     H_    0.184103 0.182068 0.247750 0.254514
H34   H     H_    0.316820 0.094211 0.434292 0.180514
H35   H     H_    0.224201 0.227159 0.152292 0.222099
H36   H     H_    0.327433 0.180714 0.246244 0.260749
H37   H     H_    0.707891 0.323773 0.299934 0.148238
H38   H     H_    0.761883 0.242895 0.396191 0.119997
H39   H     H_    0.833198 0.104276 0.311877 0.246559
H40   H     H_    0.689306 0.141750 0.267875 0.209921
H41   H     H_    0.790860 0.182591 0.213767 0.258226
H42   H     H_    0.046719 0.754123 0.560254 0.226150
H43   H     H_    0.115948 0.677080 0.645153 0.187737
H44   H     H_    0.849593 0.774974 0.703352 0.178942
H45   H     H_    0.180453 0.981559 0.425578 0.151190
H46   H     H_    0.975493 0.712251 0.737357 0.178747
H47   H     H_    0.732573 0.622743 0.956753 0.192342
H48   H     H_    0.735952 0.494101 0.965013 0.222478
H49   H     H_    0.636686 0.765072 0.012888 0.131935
H50   H     H_    0.718432 0.730130 0.118562 0.166985
H51   H     H_    0.591326 0.852047 0.184398 0.248859
H52   H     H_    0.647714 0.915569 0.105854 0.209461
H53   H     H_    0.508877 0.884556 0.077617 0.266041
H54   H     H_    0.714486 0.475503 0.227182 0.178256
H55   H     H_    0.684471 0.614388 0.222566 0.171468
H56   H     H_    0.064607 0.294686 0.326137 0.210499
H57   H     H_    0.874152 0.618874 0.189362 0.239512
H58   H     H_    0.872208 0.569534 0.295657 0.220115
H59   H     H_    0.899769 0.481223 0.211433 0.273783
H60   H     H_    0.367965 0.363306 0.814991 0.141498
H61   H     H_    0.339388 0.328393 0.918716 0.138612
H62   H     H_    0.389963 0.144082 0.890660 0.251366
H63   H     H_    0.280251 0.204354 0.806540 0.201009
H64   H     H_    0.417467 0.179063 0.787140 0.267351
H65   H     H_    0.460609 0.251876 0.049228 0.213131
H66   H     H_    0.442530 0.324079 0.133629 0.198741
H67   H     H_    0.187646 0.535539 0.556187 0.191695
H68   H     H_    0.733891 0.661303 0.635621 0.157289
H69   H     H_    0.746582 0.409539 0.431949 0.211562
N1    N     N_R   0.222200 0.444690 0.455710 -0.145722
N2    N     N_3   0.688367 0.561021 0.936204 -0.457549
N3    N     N_3   0.443621 0.328537 0.067621 -0.447919
N4    N     N_R   0.776960 0.554780 0.543830 -0.137819
N5    N     N_3   0.298509 0.510096 0.057741 -0.465535
N6    N     N_3   0.634870 0.337895 0.108935 -0.477591
N7    N     N_3   0.781482 0.848519 0.430420 -0.490572
N8    N     N_3   0.838542 0.994886 0.559346 -0.469833
N9    N     N_3   0.601217 0.733057 0.370659 -0.429573
N10   N     N_3   0.073557 0.677296 0.580613 -0.446885
N11   N     N_3   0.920929 0.745803 0.682641 -0.480273
O1    O     O_R   0.366740 0.627160 0.478850 -0.558266
O2    O     O_3   0.212193 0.776428 0.436648 -0.591101
O3    O     O_3   0.354025 0.648167 0.892881 -0.603553
O4    O     O_3   0.272659 0.328201 0.351377 -0.604371
O5    O     O_3   0.877697 0.300830 0.337516 -0.626298
O6    O     O_3   0.562107 0.680593 0.092916 -0.657370
O7    O     O_3   0.702958 0.539608 0.105192 -0.674463
O8    O     O_3   0.504294 0.303811 0.908337 -0.598323
O9    O     O_R   0.544830 0.662520 0.507140 -0.618436
O10   O     O_R   0.410920 0.482310 0.608710 -0.626591
O11   O     O_R   0.589010 0.517670 0.637000 -0.605335
O12   O     O_R   0.455170 0.337480 0.492860 -0.580142
O13   O     O_R   0.633260 0.372840 0.521150 -0.614190
O14   O     O_R   0.410990 0.482330 0.363000 -0.586022
O15   O     O_R   0.589080 0.517690 0.391290 -0.655038
O16   O     O_3   0.763308 0.199293 0.608704 -0.592460
Zn1   Zn    Zn3+2 0.381090 0.476390 0.481110 0.991532
Zn2   Zn    Zn3+2 0.618910 0.523610 0.518890 0.919024

loop_
_geom_bond_atom_site_label_1
_geom_bond_atom_site_label_2
_ccdc_geom_bond_type
H48   N2    S    
C5    H45   S    
C8    C13   A    
C54   H62   S    
C27   C29   A    
C39   H10   S    
C19   C20   A    
C42   H24   S    
C21   N10   S    
C18   H56   S    
C41   H22   S    
C7    C8    A    
C49   H49   S    
C53   C54   S    
C51   H54   S    
C48   H39   S    
C12   C23   S    
C26   C27   A    
C51   H55   S    
N4    Zn2   S    
C10   C58   A    
O11   Zn2   S    
C35   O7    S    
C38   C39   S    
H17   N8    S    
C51   O7    S    
C4    O10   A    
C49   O6    S    
C47   O5    S    
C50   H52   S    
C56   C57   T    
H44   N11   S    
C20   N11   S    
C24   C29   A    
C53   O8    S    
C15   O16   S    
N1    Zn1   S    
C37   C56   S    
C38   H8    S    
H46   N11   S    
C22   C25   A    
C18   C26   A    
C4    C57   S    
C27   O5    S    
C47   H38   S    
O10   Zn1   S    
C2    C15   A    
C2    C16   S    
C9    C10   A    
C1    O1    A    
C35   O6    S    
C52   H59   S    
C54   H64   S    
C30   H67   S    
C21   C22   A    
C12   C32   S    
C43   H26   S    
C12   H1    S    
C31   N1    A    
C44   C46   S    
C49   H50   S    
C52   H58   S    
C19   N4    A    
C30   N1    A    
C45   O8    S    
C43   H27   S    
H4    N5    S    
C38   H9    S    
H30   N9    S    
H42   N10   S    
C11   N7    S    
C41   H20   S    
H43   N10   S    
C53   H60   S    
C32   H12   S    
C46   H33   S    
C34   N6    S    
C25   C26   A    
O13   Zn2   S    
C50   H51   S    
C33   C37   S    
C51   C52   S    
C9    C14   A    
C4    O11   A    
H14   N7    S    
C47   C48   S    
C46   H36   S    
O14   Zn1   S    
O1    Zn1   S    
C23   C34   S    
H16   N8    S    
C42   O3    S    
C39   H11   S    
H66   N3    S    
C34   C45   S    
C32   C37   S    
H15   N7    S    
O15   Zn2   S    
O9    Zn2   S    
C34   N3    S    
C32   O3    S    
C40   C41   S    
C54   H63   S    
C28   O14   A    
C33   H2    S    
C23   C35   S    
O12   Zn1   S    
C29   H69   S    
H65   N3    S    
C28   O15   A    
C15   C58   A    
C22   C24   A    
C1    O9    A    
C42   C43   S    
C38   O16   S    
C37   C45   S    
C44   H32   S    
C52   H57   S    
C33   N2    S    
C25   C30   A    
C7    C9    A    
C48   H41   S    
H6    N6    S    
C39   H13   S    
C13   N9    S    
C12   N5    S    
C43   H28   S    
H29   N9    S    
C42   H25   S    
C3    C5    A    
C41   H21   S    
H47   N2    S    
C53   H61   S    
C23   C55   S    
C6    C7    A    
C18   C31   A    
C58   N8    S    
C48   H40   S    
C19   H68   S    
C1    C17   S    
C8    C17   A    
C31   O4    S    
C36   C55   T    
C11   C13   A    
C24   N4    A    
C5    C6    A    
C46   H35   S    
C6    H34   S    
C40   O2    S    
C45   H3    S    
C50   H53   S    
C33   C35   S    
H5    N5    S    
C3    C17   A    
C16   O13   A    
C2    C14   A    
C10   C11   A    
C40   H18   S    
C20   C21   A    
C28   C36   S    
C44   O4    S    
C49   C50   S    
C47   H37   S    
C40   H19   S    
C16   O12   A    
C3    O2    S    
C14   H23   S    
H7    N6    S    
C44   H31   S    
