data_mof_unit_48048.cif
_audit_creation_date              2012-10-26T21:33:23-0400
_audit_creation_method            fapswitch 2.2
_symmetry_space_group_name_H-M    P1
_symmetry_Int_Tables_number       1
_space_group_crystal_system       triclinic
_cell_length_a                    28.267714
_cell_length_b                    18.705032
_cell_length_c                    17.043105
_cell_angle_alpha                 90.000016
_cell_angle_beta                  60.669984
_cell_angle_gamma                 89.999983
_cell_volume                      7856.35488318

loop_
_atom_site_label
_atom_site_type_symbol
_atom_type_description
_atom_site_fract_x
_atom_site_fract_y
_atom_site_fract_z
_atom_type_partial_charge
C1    C     C_R   0.701565 0.268290 0.676023 0.934061
C2    C     C_R   0.113190 0.500000 0.461921 -0.066529
C3    C     C_R   0.189803 0.215705 0.905722 0.245656
C4    C     C_R   0.073649 0.099984 0.934288 0.956780
C5    C     C_R   0.926298 0.900078 0.065753 0.956570
C6    C     C_R   0.926299 0.099923 0.065753 0.956569
C7    C     C_R   0.073649 0.900015 0.934289 0.956780
C8    C     C_R   0.573649 0.599985 0.934288 0.956783
C9    C     C_R   0.426298 0.400078 0.065754 0.956567
C10   C     C_R   0.426298 0.599923 0.065753 0.956567
C11   C     C_R   0.573649 0.400015 0.934289 0.956783
C12   C     C_R   0.566790 0.129470 0.450062 -0.009484
C13   C     C_R   0.408454 1.000000 0.482705 -0.069251
C14   C     C_R   0.459448 0.870582 0.482066 -0.013264
C15   C     C_R   0.459447 0.129417 0.482068 -0.013264
C16   C     C_R   0.566791 0.870530 0.450059 -0.009484
C17   C     C_R   0.066909 0.629470 0.449764 -0.009455
C18   C     C_R   0.959573 0.370583 0.481729 -0.013269
C19   C     C_R   0.959572 0.629417 0.481731 -0.013268
C20   C     C_R   0.066910 0.370530 0.449761 -0.009455
C21   C     C_R   0.540462 0.194350 0.455405 -0.148723
C22   C     C_R   0.486206 0.805709 0.475621 -0.141900
C23   C     C_R   0.486204 0.194291 0.475624 -0.141900
C24   C     C_R   0.613096 0.000000 0.462151 -0.066548
C25   C     C_R   0.540464 0.805650 0.455401 -0.148723
C26   C     C_R   0.040585 0.694349 0.455089 -0.148749
C27   C     C_R   0.986331 0.305710 0.475288 -0.141858
C28   C     C_R   0.986330 0.694290 0.475291 -0.141858
C29   C     C_R   0.040586 0.305650 0.455085 -0.148749
C30   C     C_R   0.487225 0.064790 0.468696 0.009326
C31   C     C_R   0.539751 0.935232 0.458036 0.009739
C32   C     C_R   0.539751 0.064768 0.458037 0.009739
C33   C     C_R   0.487225 0.935210 0.468695 0.009326
C34   C     C_R   0.987351 0.564789 0.468345 0.009337
C35   C     C_R   0.118679 0.371997 0.441084 0.617032
C36   C     C_R   0.039876 0.435233 0.457702 0.009754
C37   C     C_R   0.039875 0.564767 0.457703 0.009754
C38   C     C_R   0.987351 0.435211 0.468344 0.009337
C39   C     C_R   0.960911 0.500000 0.473697 -0.022373
C40   C     C_R   0.065262 0.500000 0.455854 -0.020779
C41   C     C_R   0.460789 1.000000 0.474040 -0.022358
C42   C     C_R   0.565143 0.000000 0.456164 -0.020781
C43   C     C_R   0.881666 0.434728 0.489901 -0.108351
C44   C     C_R   0.136931 0.565185 0.465419 -0.113861
C45   C     C_R   0.136932 0.434816 0.465418 -0.113860
C46   C     C_R   0.904877 0.627961 0.505243 0.622091
C47   C     C_R   0.881665 0.565271 0.489901 -0.108351
C48   C     C_R   0.381574 0.934730 0.490136 -0.108392
C49   C     C_R   0.636853 0.065184 0.465598 -0.113852
C50   C     C_R   0.636853 0.934816 0.465597 -0.113852
C51   C     C_R   0.381574 0.065270 0.490137 -0.108393
C52   C     C_R   0.833956 0.435864 0.480025 -0.219163
C53   C     C_R   0.175126 0.564134 0.497683 -0.224713
C54   C     C_R   0.175126 0.435866 0.497682 -0.224713
C55   C     C_R   0.833956 0.564136 0.480026 -0.219163
C56   C     C_R   0.333909 0.935864 0.480144 -0.219191
C57   C     C_R   0.904878 0.372039 0.505242 0.622091
C58   C     C_R   0.675089 0.064133 0.497774 -0.224691
C59   C     C_R   0.675089 0.935867 0.497773 -0.224690
C60   C     C_R   0.333909 0.064135 0.480144 -0.219191
C61   C     C_R   0.813959 0.500000 0.468280 0.537792
C62   C     C_R   0.190714 0.500000 0.518433 0.541210
C63   C     C_R   0.313931 1.000000 0.468352 0.537825
C64   C     C_R   0.690697 0.000000 0.518486 0.541206
C65   C     C_R   0.118678 0.628004 0.441086 0.617032
C66   C     C_R   0.618579 0.871999 0.441300 0.617111
C67   C     C_R   0.404762 0.127959 0.505526 0.622130
C68   C     C_R   0.404763 0.872040 0.505525 0.622129
C69   C     C_R   0.298390 0.731626 0.324004 0.927187
C70   C     C_R   0.618578 0.128002 0.441302 0.617109
C71   C     C_R   0.720790 0.266574 0.953780 -0.372202
C72   C     C_R   0.278685 0.732634 0.046756 -0.370351
C73   C     C_R   0.278685 0.267366 0.046757 -0.370348
C74   C     C_R   0.720791 0.733426 0.953779 -0.372199
C75   C     C_R   0.220790 0.766574 0.953779 -0.372194
C76   C     C_R   0.778686 0.232635 0.046756 -0.370352
C77   C     C_R   0.778685 0.767365 0.046757 -0.370352
C78   C     C_R   0.220791 0.233426 0.953778 -0.372192
C79   C     C_R   0.735769 0.195543 0.958500 0.517520
C80   C     C_R   0.298390 0.268373 0.324004 0.927187
C81   C     C_R   0.263687 0.803656 0.042065 0.517488
C82   C     C_R   0.263691 0.196343 0.042059 0.517486
C83   C     C_R   0.735765 0.804457 0.958506 0.517518
C84   C     C_R   0.235769 0.695543 0.958500 0.517509
C85   C     C_R   0.763687 0.303657 0.042065 0.517499
C86   C     C_R   0.763691 0.696343 0.042059 0.517501
C87   C     C_R   0.235765 0.304457 0.958506 0.517509
C88   C     C_R   0.764211 0.178760 0.004476 0.513971
C89   C     C_R   0.235252 0.820439 0.996090 0.514265
C90   C     C_R   0.235256 0.179560 0.996083 0.514263
C91   C     C_R   0.701565 0.731711 0.676023 0.934062
C92   C     C_R   0.764207 0.821240 0.004483 0.513970
C93   C     C_R   0.264210 0.678760 0.004476 0.513958
C94   C     C_R   0.735252 0.320439 0.996090 0.514269
C95   C     C_R   0.735256 0.679560 0.996083 0.514266
C96   C     C_R   0.264206 0.321240 0.004483 0.513955
C97   C     C_R   0.643748 0.328027 0.945910 -0.184114
C98   C     C_R   0.355889 0.671409 0.054404 -0.182839
C99   C     C_R   0.355888 0.328592 0.054405 -0.182839
C100  C     C_R   0.643749 0.671971 0.945908 -0.184115
C101  C     C_R   0.143748 0.828028 0.945909 -0.184129
C102  C     C_R   0.201565 0.768290 0.676023 0.934108
C103  C     C_R   0.855890 0.171410 0.054403 -0.182832
C104  C     C_R   0.855889 0.828591 0.054404 -0.182833
C105  C     C_R   0.143749 0.171971 0.945908 -0.184130
C106  C     C_R   0.615629 0.346289 0.899218 -0.235841
C107  C     C_R   0.384185 0.653457 0.100911 -0.235233
C108  C     C_R   0.384184 0.346544 0.100912 -0.235232
C109  C     C_R   0.615629 0.653710 0.899218 -0.235840
C110  C     C_R   0.115629 0.846289 0.899218 -0.235838
C111  C     C_R   0.884185 0.153457 0.100911 -0.235231
C112  C     C_R   0.884184 0.846544 0.100912 -0.235230
C113  C     C_R   0.798390 0.231626 0.324004 0.927132
C114  C     C_R   0.115630 0.153710 0.899218 -0.235837
C115  C     C_R   0.630685 0.317863 0.815768 0.572939
C116  C     C_R   0.369191 0.682004 0.184270 0.567952
C117  C     C_R   0.369191 0.317996 0.184270 0.567952
C118  C     C_R   0.630686 0.682137 0.815768 0.572939
C119  C     C_R   0.130686 0.817864 0.815768 0.572931
C120  C     C_R   0.869191 0.182005 0.184270 0.567963
C121  C     C_R   0.869191 0.817995 0.184270 0.567963
C122  C     C_R   0.130686 0.182136 0.815768 0.572931
C123  C     C_R   0.678576 0.280314 0.771858 -0.219689
C124  C     C_R   0.798390 0.768373 0.324004 0.927131
C125  C     C_R   0.321238 0.719391 0.228273 -0.217957
C126  C     C_R   0.321238 0.280609 0.228273 -0.217955
C127  C     C_R   0.678576 0.719687 0.771858 -0.219688
C128  C     C_R   0.178576 0.780314 0.771858 -0.219699
C129  C     C_R   0.821238 0.219392 0.228272 -0.217960
C130  C     C_R   0.821238 0.780608 0.228272 -0.217958
C131  C     C_R   0.178576 0.219686 0.771858 -0.219698
C132  C     C_R   0.707542 0.261260 0.817282 -0.154750
C133  C     C_R   0.292085 0.738114 0.183063 -0.145023
C134  C     C_R   0.292086 0.261885 0.183063 -0.145022
C135  C     C_R   0.201565 0.231710 0.676023 0.934109
C136  C     C_R   0.707542 0.738741 0.817282 -0.154749
C137  C     C_R   0.207542 0.761261 0.817281 -0.154690
C138  C     C_R   0.792086 0.238115 0.183062 -0.145069
C139  C     C_R   0.792086 0.761884 0.183062 -0.145068
C140  C     C_R   0.207542 0.238740 0.817281 -0.154689
C141  C     C_R   0.697312 0.128489 0.514951 0.963660
C142  C     C_R   0.305324 0.871582 0.478042 0.942895
C143  C     C_R   0.305324 0.128418 0.478042 0.942896
C144  C     C_R   0.697312 0.871511 0.514950 0.963662
C145  C     C_R   0.197325 0.628490 0.514915 0.963753
C146  C     C_R   0.908558 0.500000 0.482419 -0.069260
C147  C     C_R   0.805338 0.371582 0.478007 0.942815
C148  C     C_R   0.805338 0.628418 0.478007 0.942816
C149  C     C_R   0.197325 0.371510 0.514914 0.963755
C150  C     C_R   0.689802 0.284294 0.905723 0.245665
C151  C     C_R   0.309750 0.714986 0.094695 0.241347
C152  C     C_R   0.309750 0.285014 0.094696 0.241353
C153  C     C_R   0.689803 0.715706 0.905723 0.245671
C154  C     C_R   0.189803 0.784294 0.905723 0.245650
C155  C     C_R   0.809751 0.214986 0.094695 0.241367
C156  C     C_R   0.809751 0.785014 0.094695 0.241373
F1    F     F_    0.773885 0.500000 0.445802 -0.613835
F2    F     F_    0.373638 0.181144 0.561253 -0.643919
F3    F     F_    0.373639 0.818855 0.561251 -0.643919
F4    F     F_    0.651771 0.184595 0.400444 -0.657259
F5    F     F_    0.723256 0.389941 0.990760 -0.559635
F6    F     F_    0.276227 0.609266 0.009795 -0.559895
F7    F     F_    0.276219 0.390735 0.009808 -0.559894
F8    F     F_    0.723264 0.610058 0.990746 -0.559633
F9    F     F_    0.223256 0.889942 0.990760 -0.559637
F10   F     F_    0.776228 0.109266 0.009795 -0.559884
F11   F     F_    0.776220 0.890734 0.009808 -0.559883
F12   F     F_    0.220441 0.500000 0.561719 -0.613463
F13   F     F_    0.223264 0.110058 0.990746 -0.559636
F14   F     F_    0.721494 0.141824 0.920663 -0.565045
F15   F     F_    0.277967 0.857383 0.079887 -0.566540
F16   F     F_    0.277975 0.142617 0.079876 -0.566538
F17   F     F_    0.721486 0.858176 0.920674 -0.565044
F18   F     F_    0.221493 0.641825 0.920663 -0.565049
F19   F     F_    0.777967 0.357384 0.079887 -0.566539
F20   F     F_    0.777975 0.642616 0.079875 -0.566539
F21   F     F_    0.221486 0.358176 0.920674 -0.565049
F22   F     F_    0.600483 0.330749 0.774913 -0.626909
F23   F     F_    0.273907 0.000000 0.445757 -0.613830
F24   F     F_    0.399545 0.669433 0.224932 -0.629846
F25   F     F_    0.399545 0.330566 0.224932 -0.629846
F26   F     F_    0.600483 0.669251 0.774913 -0.626910
F27   F     F_    0.100483 0.830749 0.774913 -0.626900
F28   F     F_    0.899545 0.169433 0.224932 -0.629854
F29   F     F_    0.899545 0.830566 0.224932 -0.629855
F30   F     F_    0.100483 0.169251 0.774913 -0.626900
F31   F     F_    0.720472 1.000000 0.561690 -0.613465
F32   F     F_    0.151872 0.315386 0.400312 -0.657332
F33   F     F_    0.873771 0.681134 0.561016 -0.643871
F34   F     F_    0.873772 0.318865 0.561014 -0.643871
F35   F     F_    0.151871 0.684615 0.400314 -0.657331
F36   F     F_    0.651772 0.815406 0.400442 -0.657260
H1    H     H_    0.060576 0.255031 0.449748 0.195473
H2    H     H_    0.369204 0.650589 0.987484 0.218902
H3    H     H_    0.369202 0.349414 0.987486 0.218898
H4    H     H_    0.630382 0.651231 0.012881 0.217659
H5    H     H_    0.130380 0.848766 0.012883 0.217659
H6    H     H_    0.869205 0.150589 0.987484 0.218902
H7    H     H_    0.869203 0.849413 0.987486 0.218899
H8    H     H_    0.130382 0.151231 0.012881 0.217655
H9    H     H_    0.745061 0.231297 0.782874 0.221435
H10   H     H_    0.254503 0.767938 0.217563 0.226041
H11   H     H_    0.254503 0.232060 0.217563 0.226037
H12   H     H_    0.965654 0.744900 0.484198 0.194599
H13   H     H_    0.745060 0.768705 0.782875 0.221431
H14   H     H_    0.245062 0.731298 0.782874 0.221456
H15   H     H_    0.754504 0.267939 0.217563 0.226020
H16   H     H_    0.754504 0.732059 0.217562 0.226016
H17   H     H_    0.245061 0.268703 0.782874 0.221452
H18   H     H_    0.965655 0.255099 0.484194 0.194599
H19   H     H_    0.060574 0.744969 0.449754 0.195473
H20   H     H_    0.560459 0.755031 0.450043 0.195463
H21   H     H_    0.465530 0.244901 0.484519 0.194593
H22   H     H_    0.465532 0.755099 0.484515 0.194593
H23   H     H_    0.560457 0.244969 0.450048 0.195464
H24   H     H_    0.630380 0.348766 0.012883 0.217663
O1    O     O_R   0.746490 0.236330 0.638080 -0.616808
O2    O     O_R   0.325830 0.813840 0.483730 -0.586229
O3    O     O_R   0.325830 0.186160 0.483730 -0.586229
O4    O     O_R   0.674170 0.813840 0.516270 -0.591857
O5    O     O_R   0.174170 0.686160 0.516270 -0.591848
O6    O     O_R   0.825830 0.313840 0.483730 -0.586159
O7    O     O_R   0.825830 0.686160 0.483730 -0.586160
O8    O     O_R   0.174170 0.313840 0.516270 -0.591847
O9    O     O_R   0.739960 0.127620 0.525000 -0.560855
O10   O     O_R   0.260040 0.872380 0.475000 -0.555171
O11   O     O_R   0.260040 0.127620 0.475000 -0.555171
O12   O     O_R   0.253510 0.763670 0.361920 -0.603492
O13   O     O_R   0.739960 0.872380 0.525000 -0.560855
O14   O     O_R   0.239960 0.627620 0.525000 -0.560890
O15   O     O_R   0.760040 0.372380 0.475000 -0.555134
O16   O     O_R   0.760040 0.627620 0.475000 -0.555134
O17   O     O_R   0.239960 0.372380 0.525000 -0.560890
O18   O     O_R   0.680700 0.294870 0.629350 -0.560183
O19   O     O_R   0.319300 0.705130 0.370650 -0.568935
O20   O     O_R   0.319300 0.294870 0.370650 -0.568935
O21   O     O_R   0.680700 0.705130 0.629350 -0.560184
O22   O     O_R   0.180700 0.794870 0.629350 -0.560204
O23   O     O_R   0.253510 0.236330 0.361920 -0.603492
O24   O     O_R   0.819300 0.205130 0.370650 -0.568904
O25   O     O_R   0.819300 0.794870 0.370650 -0.568904
O26   O     O_R   0.180700 0.205130 0.629350 -0.560204
O27   O     O_R   0.062020 0.072840 0.007170 -0.630305
O28   O     O_R   0.937980 0.927160 0.992830 -0.629829
O29   O     O_R   0.937980 0.072840 0.992830 -0.629828
O30   O     O_R   0.062020 0.927160 0.007170 -0.630303
O31   O     O_R   0.562020 0.572840 0.007170 -0.630300
O32   O     O_R   0.437980 0.427160 0.992830 -0.629833
O33   O     O_R   0.437980 0.572840 0.992830 -0.629832
O34   O     O_R   0.746490 0.763670 0.638080 -0.616808
O35   O     O_R   0.562020 0.427160 0.007170 -0.630299
O36   O     O_R   0.947860 0.073950 0.109290 -0.556322
O37   O     O_R   0.052140 0.926050 0.890710 -0.555000
O38   O     O_R   0.052140 0.073950 0.890710 -0.555000
O39   O     O_R   0.947860 0.926050 0.109290 -0.556322
O40   O     O_R   0.447860 0.573950 0.109290 -0.556322
O41   O     O_R   0.552140 0.426050 0.890710 -0.555000
O42   O     O_R   0.552140 0.573950 0.890710 -0.555001
O43   O     O_R   0.447860 0.426050 0.109290 -0.556322
O44   O     O_R   0.246490 0.736330 0.638080 -0.616736
O45   O     O_R   0.753510 0.263670 0.361920 -0.603567
O46   O     O_R   0.753510 0.736330 0.361920 -0.603567
O47   O     O_R   0.246490 0.263670 0.638080 -0.616736
O48   O     O_R   0.674170 0.186160 0.516270 -0.591857
Zn1   Zn    Zn3+2 0.792340 0.208750 0.507670 1.137059
Zn2   Zn    Zn3+2 0.494040 0.500000 0.919480 1.106993
Zn3   Zn    Zn3+2 0.005960 0.000000 0.080520 1.101708
Zn4   Zn    Zn3+2 0.994040 0.000000 0.919480 1.107006
Zn5   Zn    Zn3+2 0.207660 0.791250 0.492330 1.138998
Zn6   Zn    Zn3+2 0.207660 0.208750 0.492330 1.138996
Zn7   Zn    Zn3+2 0.792340 0.791250 0.507670 1.137057
Zn8   Zn    Zn3+2 0.292340 0.708750 0.507670 1.137020
Zn9   Zn    Zn3+2 0.707660 0.291250 0.492330 1.139004
Zn10  Zn    Zn3+2 0.707660 0.708750 0.492330 1.139002
Zn11  Zn    Zn3+2 0.292340 0.291250 0.507670 1.137018
Zn12  Zn    Zn3+2 0.505960 0.500000 0.080520 1.101721

loop_
_geom_bond_atom_site_label_1
_geom_bond_atom_site_label_2
_ccdc_geom_bond_type
C100  C153  A    
C138  C155  A    
C62   F12   S    
C145  O14   A    
C69   O12   A    
C77   C92   A    
C135  O47   A    
C31   C42   A    
C123  C132  A    
C27   C29   A    
C34   C37   A    
C24   C42   A    
C6    C111  S    
C80   O20   A    
C6    O29   A    
O21   Zn10  S    
C92   F11   S    
O42   Zn2   S    
C4    O38   A    
C74   C83   A    
C53   C145  S    
C14   C33   A    
C13   C41   A    
C44   C65   A    
C19   C46   A    
C134  H11   S    
C71   C94   A    
C26   C28   A    
C3    C105  A    
C16   C31   A    
C83   C92   A    
C7    O30   A    
O38   Zn4   S    
C132  H9    S    
C75   C84   A    
O18   Zn9   S    
C113  C129  S    
C20   C29   A    
C60   C63   A    
C10   O40   A    
C17   C26   A    
C11   O41   A    
C80   O23   A    
C4    C114  S    
C148  O7    A    
O27   Zn3   S    
C77   C86   A    
C144  O4    A    
C37   C40   A    
C131  C135  S    
C52   C61   A    
O10   Zn5   S    
C136  H13   S    
C117  F25   S    
C43   C52   A    
C122  F30   S    
C71   C150  S    
C145  O5    A    
O17   Zn11  S    
C99   H3    S    
C134  C152  A    
C24   C49   A    
C63   F23   S    
C98   H2    S    
C103  C111  A    
C85   C94   A    
C101  H5    S    
C51   C67   A    
C9    O32   A    
C142  O2    A    
C124  O25   A    
C131  C140  A    
O36   Zn3   S    
C85   F19   S    
O12   Zn5   S    
C13   C51   A    
C20   C35   A    
C147  O15   A    
C75   C154  S    
C113  O24   A    
C76   C85   A    
C129  C138  A    
C65   F35   S    
C8    O31   A    
C2    C44   A    
C35   F32   S    
C97   H24   S    
C66   F36   S    
C140  H17   S    
C97   C150  A    
C21   H23   S    
C30   C41   A    
C132  C150  A    
C148  O16   A    
C149  O8    A    
C68   F3    S    
C117  C126  A    
C76   C88   A    
C4    O27   A    
C86   F20   S    
C72   C81   A    
C22   H22   S    
C50   C59   A    
C121  F29   S    
C137  H14   S    
C56   C142  S    
C119  C128  A    
C15   C23   A    
C90   F13   S    
C47   C146  A    
C69   C125  S    
C100  C109  A    
C2    C45   A    
C12   C32   A    
C58   C64   A    
C10   C107  S    
O34   Zn7   S    
C84   F18   S    
C130  C139  A    
C74   C95   A    
C126  C134  A    
O9    Zn1   S    
C79   C88   A    
C109  C118  A    
C142  O10   A    
C54   C149  S    
C98   C151  A    
C100  H4    S    
O37   Zn4   S    
C141  O9    A    
O46   Zn10  S    
C82   F16   S    
C102  O22   A    
C115  C123  A    
C31   C33   A    
C18   C27   A    
O4    Zn10  S    
C120  C129  A    
C28   H12   S    
C83   F17   S    
O16   Zn10  S    
C105  C114  A    
C36   C40   A    
C127  C136  A    
C139  H16   S    
C3    C78   S    
C104  C112  A    
O6    Zn1   S    
C77   C156  S    
C113  O45   A    
C54   C62   A    
O19   Zn8   S    
C18   C38   A    
O8    Zn6   S    
C12   C21   A    
C22   C25   A    
C27   H18   S    
C11   O35   A    
C71   C79   A    
C34   C39   A    
C74   C153  S    
C111  C120  A    
C9    C108  S    
C103  H6    S    
C20   C36   A    
O33   Zn2   S    
O44   Zn8   S    
O22   Zn5   S    
C128  C137  A    
C1    C123  S    
O7    Zn7   S    
C99   C108  A    
C61   F1    S    
C87   F21   S    
C50   C66   A    
C53   C62   A    
C144  O13   A    
C18   C57   A    
C124  O46   A    
C1    O18   A    
C72   C151  S    
C15   C67   A    
C87   C96   A    
C91   O21   A    
C11   C106  S    
O3    Zn11  S    
C59   C64   A    
C56   C63   A    
C124  C130  S    
O43   Zn12  S    
C121  C130  A    
C119  F27   S    
O35   Zn12  S    
C19   C28   A    
C120  F28   S    
C94   F5    S    
C89   F9    S    
C26   H19   S    
C147  O6    A    
C91   C127  S    
C72   C93   A    
O32   Zn2   S    
C103  C155  A    
C59   C144  S    
C52   C147  S    
O47   Zn11  S    
C116  C125  A    
C21   C23   A    
C73   C152  S    
C101  C154  A    
O1    Zn1   S    
C104  C156  A    
O29   Zn4   S    
C16   C66   A    
C49   C58   A    
C17   C37   A    
C46   F33   S    
O30   Zn3   S    
C35   C45   A    
C78   C87   A    
O26   Zn6   S    
C122  C131  A    
C73   C96   A    
O5    Zn5   S    
C135  O26   A    
C15   C30   A    
C47   C55   A    
C23   H21   S    
C118  F26   S    
C125  C133  A    
C16   C25   A    
C48   C56   A    
C116  F24   S    
C12   C70   A    
C46   C47   A    
C32   C42   A    
O23   Zn6   S    
C17   C65   A    
C108  C117  A    
C64   F31   S    
O40   Zn12  S    
O41   Zn2   S    
C2    C40   A    
C143  O11   A    
C48   C68   A    
C19   C34   A    
C110  C119  A    
C45   C54   A    
C13   C48   A    
C138  H15   S    
C96   F7    S    
C79   F14   S    
C51   C60   A    
C5    C112  S    
C99   C152  A    
C76   C155  S    
C102  C128  S    
O48   Zn9   S    
C82   C90   A    
C7    C110  S    
C6    O36   A    
C106  C115  A    
C49   C70   A    
C10   O33   A    
C33   C41   A    
O20   Zn11  S    
C9    O43   A    
C101  C110  A    
C81   C89   A    
C112  C121  A    
C60   C143  S    
C43   C146  A    
C95   F8    S    
C25   H20   S    
C30   C32   A    
C136  C153  A    
O13   Zn7   S    
C58   C141  S    
C14   C22   A    
C55   C148  S    
C38   C39   A    
C93   F6    S    
C80   C126  S    
C139  C156  A    
C78   C90   A    
C29   H1    S    
C55   C61   A    
C39   C146  A    
C36   C38   A    
C104  H7    S    
C102  O44   A    
C73   C82   A    
O14   Zn8   S    
C67   F2    S    
C70   F4    S    
C84   C93   A    
C81   F15   S    
C5    O28   A    
C8    O42   A    
C5    O39   A    
O24   Zn1   S    
O11   Zn6   S    
C149  O17   A    
C107  C116  A    
C105  H8    S    
C115  F22   S    
O2    Zn8   S    
C86   C95   A    
C43   C57   A    
C24   C50   A    
C143  O3    A    
C114  C122  A    
O25   Zn7   S    
C57   F34   S    
C141  O48   A    
O45   Zn9   S    
O39   Zn3   S    
C118  C127  A    
C75   C89   A    
C44   C53   A    
C14   C68   A    
C133  H10   S    
C1    O1    A    
C3    C140  A    
O15   Zn9   S    
O28   Zn4   S    
O31   Zn12  S    
C8    C109  S    
C69   O19   A    
C137  C154  A    
C88   F10   S    
C7    O37   A    
C133  C151  A    
C98   C107  A    
C91   O34   A    
C97   C106  A    
