data_mof_unit_49651.cif
_audit_creation_date              2012-12-10T18:24:50-0500
_audit_creation_method            fapswitch 2.2
_symmetry_space_group_name_H-M    P1
_symmetry_Int_Tables_number       1
_space_group_crystal_system       triclinic
_cell_length_a                    13.996829
_cell_length_b                    14.997711
_cell_length_c                    16.571558
_cell_angle_alpha                 90.029665
_cell_angle_beta                  84.197032
_cell_angle_gamma                 89.705854
_cell_volume                      3460.83380058

loop_
_atom_site_label
_atom_site_type_symbol
_atom_type_description
_atom_site_fract_x
_atom_site_fract_y
_atom_site_fract_z
_atom_type_partial_charge
C1    C     C_R   0.499839 0.673461 0.499636 0.890034
C2    C     C_R   0.587693 0.906844 0.477459 0.094069
C3    C     C_R   0.499665 0.046458 0.501849 0.017411
C4    C     C_R   0.500756 0.953618 0.500824 0.016871
C5    C     C_R   0.585756 0.092725 0.479322 0.098587
C6    C     C_R   0.414586 0.907338 0.523019 0.097611
C7    C     C_R   0.326630 0.046052 0.547903 0.171767
C8    C     C_R   0.673956 0.954037 0.455340 0.172712
C9    C     C_R   0.329136 0.953089 0.546338 -0.270082
C10   C     C_R   0.671333 0.046991 0.456493 -0.272169
C11   C     C_R   0.197532 0.433726 0.539552 -0.059749
C12   C     C_R   0.500155 0.326559 0.500560 0.891054
C13   C     C_R   0.802469 0.566394 0.460635 -0.063796
C14   C     C_R   0.206291 0.566099 0.460339 -0.065351
C15   C     C_R   0.793741 0.433811 0.539529 -0.066668
C16   C     C_R   0.485829 0.499096 0.653862 0.867504
C17   C     C_R   0.514151 0.499235 0.346100 0.865900
C18   C     C_R   0.105694 0.567870 0.459585 0.016494
C19   C     C_R   0.894334 0.432106 0.540389 0.014908
C20   C     C_R   0.050635 0.499978 0.499997 0.084880
C21   C     C_R   0.949386 0.500048 0.500058 0.084935
C22   C     C_R   0.096774 0.432026 0.540353 0.019693
C23   C     C_R   0.585373 0.184809 0.479524 -0.248976
C24   C     C_R   0.903237 0.568061 0.459792 0.019182
C25   C     C_R   0.059075 0.635572 0.419637 -0.212033
C26   C     C_R   0.940952 0.364440 0.580394 -0.210260
C27   C     C_R   0.958680 0.635707 0.419791 -0.212435
C28   C     C_R   0.041331 0.364409 0.580393 -0.213762
C29   C     C_R   0.474943 0.475323 0.739175 -0.107964
C30   C     C_R   0.525072 0.476019 0.260556 -0.109692
C31   C     C_R   0.530595 0.514351 0.795774 0.151466
C32   C     C_R   0.467101 0.513879 0.204776 0.158359
C33   C     C_R   0.527182 0.476781 0.872909 -0.208521
C34   C     C_R   0.414754 0.815234 0.521893 -0.244936
C35   C     C_R   0.470015 0.475900 0.127760 -0.207025
C36   C     C_R   0.468269 0.403101 0.894931 0.104937
C37   C     C_R   0.530867 0.403179 0.104925 0.106505
C38   C     C_R   0.409015 0.367384 0.839510 0.206684
C39   C     C_R   0.592474 0.368875 0.159396 0.203115
C40   C     C_R   0.413555 0.403844 0.761836 -0.260217
C41   C     C_R   0.588394 0.405617 0.236990 -0.258184
C42   C     C_2   0.460683 0.373802 0.979593 -0.248570
C43   C     C_2   0.538378 0.373880 0.020191 -0.247132
C44   C     C_3   0.591584 0.596731 0.777675 -0.412667
C45   C     C_R   0.500300 0.230869 0.501905 -0.077777
C46   C     C_3   0.550248 0.676947 0.826498 -0.878844
C47   C     C_3   0.403978 0.595408 0.223641 -0.417758
C48   C     C_3   0.441394 0.675757 0.173585 -0.885158
C49   C     C_3   0.343135 0.289096 0.859832 -0.431443
C50   C     C_3   0.238881 0.319959 0.875493 -0.873591
C51   C     C_3   0.660650 0.291838 0.138037 -0.429938
C52   C     C_3   0.763226 0.325013 0.118533 -0.869935
C53   C     C_3   0.231268 0.091521 0.573909 -0.427302
C54   C     C_3   0.184052 0.126548 0.500923 -0.859959
C55   C     C_3   0.769561 0.908572 0.430202 -0.426397
C56   C     C_R   0.499765 0.769194 0.499185 -0.078901
C57   C     C_3   0.815437 0.872964 0.503661 -0.861749
C58   C     C_R   0.415018 0.186004 0.525366 -0.267150
C59   C     C_R   0.585262 0.814120 0.476648 -0.264196
C60   C     C_R   0.412749 0.093254 0.525264 0.094165
H1    H     H_    0.924430 0.688648 0.388607 0.141281
H2    H     H_    0.649201 0.775663 0.458171 0.167329
H3    H     H_    0.475546 0.690517 0.812581 0.263810
H4    H     H_    0.550448 0.665047 0.892604 0.256887
H5    H     H_    0.594582 0.736687 0.810141 0.252923
H6    H     H_    0.665889 0.583211 0.792726 0.207393
H7    H     H_    0.596792 0.615891 0.712889 0.223220
H8    H     H_    0.516321 0.690725 0.185599 0.262685
H9    H     H_    0.439333 0.663170 0.107758 0.258182
H10   H     H_    0.395730 0.734919 0.190660 0.251513
H11   H     H_    0.329471 0.580378 0.210383 0.207279
H12   H     H_    0.075573 0.311551 0.611692 0.140787
H13   H     H_    0.400214 0.615395 0.288194 0.215702
H14   H     H_    0.234358 0.382336 0.570493 0.126025
H15   H     H_    0.765645 0.617897 0.429847 0.131549
H16   H     H_    0.249994 0.617443 0.429376 0.130313
H17   H     H_    0.750065 0.382361 0.570342 0.137528
H18   H     H_    0.100225 0.688408 0.388318 0.139901
H19   H     H_    0.899813 0.311580 0.611680 0.140530
H20   H     H_    0.632549 0.376592 0.280431 0.165318
H21   H     H_    0.371272 0.373898 0.717670 0.156317
H22   H     H_    0.192069 0.261595 0.890872 0.249200
H23   H     H_    0.609648 0.371652 0.987335 0.169897
H24   H     H_    0.230719 0.367725 0.927024 0.259407
H25   H     H_    0.215313 0.352594 0.820635 0.260072
H26   H     H_    0.349939 0.240740 0.808658 0.200767
H27   H     H_    0.363018 0.252213 0.913787 0.213339
H28   H     H_    0.811806 0.267531 0.102586 0.249836
H29   H     H_    0.767200 0.371659 0.066260 0.256668
H30   H     H_    0.787985 0.359656 0.171856 0.263077
H31   H     H_    0.658146 0.244467 0.189795 0.204126
H32   H     H_    0.639537 0.253243 0.085540 0.212230
H33   H     H_    0.230296 0.176019 0.466206 0.262444
H34   H     H_    0.389350 0.371476 0.012270 0.170314
H35   H     H_    0.169863 0.070478 0.460032 0.262318
H36   H     H_    0.114647 0.159233 0.522086 0.246224
H37   H     H_    0.180694 0.043863 0.606817 0.204733
H38   H     H_    0.240469 0.146056 0.617742 0.190031
H39   H     H_    0.829075 0.928742 0.545044 0.262503
H40   H     H_    0.768592 0.823399 0.537651 0.261322
H41   H     H_    0.885004 0.840220 0.483111 0.246833
H42   H     H_    0.761030 0.854351 0.385915 0.190948
H43   H     H_    0.820717 0.956330 0.398132 0.204296
H44   H     H_    0.263795 0.915959 0.563004 0.144955
H45   H     H_    0.426290 0.505344 0.084313 0.155648
H46   H     H_    0.736667 0.084142 0.439847 0.144269
H47   H     H_    0.569051 0.507151 0.917045 0.156083
H48   H     H_    0.651170 0.220686 0.461321 0.154923
H49   H     H_    0.348845 0.779324 0.539582 0.157254
H50   H     H_    0.351107 0.224531 0.543787 0.165570
N1    N     N_R   0.249970 0.499930 0.499970 -0.099351
N2    N     N_R   0.750030 0.500070 0.500030 -0.101800
O1    O     O_R   0.419720 0.632140 0.499990 -0.629222
O2    O     O_R   0.580280 0.367860 0.500010 -0.628953
O3    O     O_R   0.580270 0.632160 0.499980 -0.629707
O4    O     O_R   0.419730 0.367840 0.500020 -0.627395
O5    O     O_R   0.410240 0.500000 0.615800 -0.609606
O6    O     O_R   0.589760 0.500000 0.384200 -0.611756
O7    O     O_R   0.570790 0.500020 0.615800 -0.617620
O8    O     O_R   0.429210 0.499980 0.384200 -0.614842
Zn1   Zn    Zn3+2 0.392800 0.499980 0.500010 0.939907
Zn2   Zn    Zn3+2 0.607200 0.500020 0.499990 0.936026

loop_
_geom_bond_atom_site_label_1
_geom_bond_atom_site_label_2
_ccdc_geom_bond_type
C39   C51   S    
C34   C56   A    
C23   C45   A    
N1    Zn1   S    
C43   H23   S    
C14   C18   A    
C36   C42   S    
C33   H47   S    
C24   C27   A    
C48   H9    S    
C41   H20   S    
C50   H24   S    
C39   C41   A    
C38   C49   S    
C53   C54   S    
C15   C19   A    
C55   H42   S    
C44   H6    S    
C35   C37   A    
C1    C56   S    
C13   N2    A    
C58   C60   A    
C57   H39   S    
C55   H43   S    
C33   C36   A    
O6    Zn2   S    
C19   C26   A    
C49   H27   S    
C54   H33   S    
O5    Zn1   S    
C27   H1    S    
C50   H25   S    
C51   H31   S    
C58   H50   S    
C52   H30   S    
C13   H15   S    
C31   C33   A    
C30   C41   A    
C54   H36   S    
C17   O8    A    
C3    C60   A    
O3    Zn2   S    
C22   C28   A    
C17   C30   S    
C52   H29   S    
C28   H12   S    
C18   C25   A    
C1    O1    A    
C6    C9    A    
C49   H26   S    
C8    C55   S    
C44   C46   S    
C12   O2    A    
C14   N1    A    
C45   C58   A    
C31   C44   S    
C11   N1    A    
C51   C52   S    
C32   C35   A    
C52   H28   S    
C47   H13   S    
C46   H5    S    
C4    C6    A    
O4    Zn1   S    
C16   O7    A    
C2    C59   A    
C53   H37   S    
C16   C29   S    
C57   H40   S    
C25   H18   S    
C13   C24   A    
C46   H4    S    
C14   H16   S    
C37   C43   S    
C2    C4    A    
N2    Zn2   S    
C35   H45   S    
C51   H32   S    
C47   C48   S    
C5    C23   A    
C48   H8    S    
C47   H11   S    
C54   H35   S    
C17   O6    A    
C8    C10   A    
C20   C22   A    
C55   C57   S    
C32   C47   S    
C10   H46   S    
C42   C43   D    
C7    C53   S    
C3    C4    A    
C7    C60   A    
O8    Zn1   S    
C50   H22   S    
O7    Zn2   S    
C7    C9    A    
C59   H2    S    
C19   C21   A    
C42   H34   S    
C15   N2    A    
C2    C8    A    
C48   H10   S    
C12   C45   S    
C3    C5    A    
C11   H14   S    
C53   H38   S    
C25   C27   A    
C57   H41   S    
C11   C22   A    
C26   C28   A    
C26   H19   S    
C56   C59   A    
C46   H3    S    
C40   H21   S    
C36   C38   A    
C5    C10   A    
C29   C31   A    
C16   O5    A    
C30   C32   A    
C15   H17   S    
C38   C40   A    
C9    H44   S    
C23   H48   S    
C29   C40   A    
C18   C20   A    
O2    Zn2   S    
C6    C34   A    
O1    Zn1   S    
C20   C21   A    
C37   C39   A    
C49   C50   S    
C21   C24   A    
C34   H49   S    
C44   H7    S    
C1    O3    A    
C12   O4    A    
