data_mof_unit_43014.cif
_audit_creation_date              2012-12-10T16:48:46-0500
_audit_creation_method            fapswitch 2.2
_symmetry_space_group_name_H-M    P1
_symmetry_Int_Tables_number       1
_space_group_crystal_system       triclinic
_cell_length_a                    17.201966
_cell_length_b                    8.681826
_cell_length_c                    7.436473
_cell_angle_alpha                 103.259715
_cell_angle_beta                  89.831528
_cell_angle_gamma                 92.84873
_cell_volume                      1079.61136502

loop_
_atom_site_label
_atom_site_type_symbol
_atom_type_description
_atom_site_fract_x
_atom_site_fract_y
_atom_site_fract_z
_atom_type_partial_charge
C1    C     C_R   0.497454 0.199595 0.453419 0.873546
C2    C     C_R   0.501880 0.800364 0.546725 0.892126
C3    C     C_2   0.496078 0.031518 0.427310 -0.382871
C4    C     C_2   0.502046 0.968351 0.573020 -0.372833
C5    C     C_R   0.350396 0.497501 0.525671 0.774951
C6    C     C_R   0.648633 0.498699 0.473300 0.780640
C7    C     C_R   0.264821 0.489301 0.544858 -0.056559
C8    C     C_R   0.731614 0.480514 0.452036 -0.019495
C9    C     C_R   0.212613 0.456229 0.390665 0.084530
C10   C     C_R   0.786178 0.602829 0.534106 0.078410
C11   C     C_R   0.132745 0.461801 0.423749 -0.160282
C12   C     C_R   0.864679 0.568353 0.533763 -0.160486
C13   C     C_R   0.102672 0.474646 0.601554 0.099704
C14   C     C_R   0.887896 0.411622 0.472917 0.090219
C15   C     C_R   0.154047 0.505584 0.751922 -0.199969
C16   C     C_R   0.832973 0.293623 0.385836 -0.194873
C17   C     C_R   0.233973 0.515853 0.724275 -0.227085
C18   C     C_R   0.755961 0.329504 0.369988 -0.222169
C19   C     C_2   0.017125 0.460910 0.629184 0.183997
C20   C     C_2   0.970044 0.371912 0.492913 0.185416
Cu1   Cu    Cu3+1 0.508700 0.517250 0.683000 0.940294
Cu2   Cu    Cu3+1 0.491300 0.482750 0.317000 0.935627
H1    H     H_    0.714134 0.236179 0.304702 0.139023
H2    H     H_    0.271799 0.542609 0.844558 0.160543
H3    H     H_    0.132370 0.522962 0.891148 0.133500
H4    H     H_    0.848713 0.172433 0.333834 0.147528
H5    H     H_    0.907283 0.663875 0.586349 0.141780
H6    H     H_    0.093371 0.451130 0.307835 0.135827
H7    H     H_    0.490515 0.959491 0.287095 0.178826
H8    H     H_    0.507646 0.040405 0.713222 0.178238
H9    H     H_    0.440042 0.377544 0.957660 0.222495
H10   H     H_    0.560377 0.621968 0.042086 0.222573
N1    N     N_2   0.478180 0.456750 0.041980 -0.218474
N2    N     N_2   0.521820 0.543250 0.958020 -0.216727
O1    O     O_R   0.505650 0.286040 0.618880 -0.579263
O2    O     O_R   0.494350 0.713960 0.381120 -0.585016
O3    O     O_R   0.490960 0.256910 0.309800 -0.588934
O4    O     O_R   0.509040 0.743090 0.690200 -0.587041
O5    O     O_R   0.394600 0.516230 0.672450 -0.593320
O6    O     O_R   0.605400 0.483770 0.327550 -0.590845
O7    O     O_R   0.379910 0.487100 0.363380 -0.586813
O8    O     O_R   0.620090 0.512900 0.636620 -0.577094
C21   C     C_3   0.236693 0.404738 0.189767 -0.394574
C22   C     C_3   0.262120 0.232949 0.143519 -0.315993
C23   C     C_3   0.273334 0.172455 0.935880 -0.850125
H11   H     H_    0.217203 0.169208 0.861219 0.255311
H12   H     H_    0.316402 0.250204 0.882941 0.248681
H13   H     H_    0.294672 0.050657 0.907491 0.241208
H14   H     H_    0.317218 0.223091 0.216242 0.231259
H15   H     H_    0.216709 0.155169 0.189826 0.218412
H16   H     H_    0.186391 0.408609 0.098574 0.179769
H17   H     H_    0.281193 0.488300 0.152284 0.211990
C24   C     C_3   0.762207 0.766231 0.633026 -0.429423
C25   C     C_3   0.730024 0.859253 0.500041 -0.371455
C26   C     C_3   0.705539 0.021616 0.605732 -0.811654
H18   H     H_    0.665293 0.009491 0.719303 0.253920
H19   H     H_    0.757445 0.097448 0.664683 0.253996
H20   H     H_    0.674651 0.079907 0.510968 0.240168
H21   H     H_    0.775246 0.875238 0.397834 0.215865
H22   H     H_    0.678560 0.794148 0.423714 0.215666
H23   H     H_    0.718082 0.754209 0.738963 0.212441
H24   H     H_    0.812726 0.836433 0.709021 0.196385
N3    N     N_2   0.000732 0.243843 0.359376 -0.458810
H25   H     H_    0.972883 0.216254 0.232623 0.244030
C27   C     C_3   0.017379 0.106357 0.428995 -0.703192
H26   H     H_    0.044157 0.017012 0.318198 0.222776
H27   H     H_    0.962796 0.052860 0.473964 0.217831
H28   H     H_    0.058996 0.139277 0.547121 0.242598
N4    N     N_2   0.984492 0.549380 0.796123 -0.459396
H29   H     H_    0.017796 0.647716 0.863094 0.243762
C28   C     C_3   0.953761 0.454516 0.919202 -0.697922
H30   H     H_    0.927174 0.532400 0.040939 0.229704
H31   H     H_    0.001204 0.391379 0.967945 0.212139
H32   H     H_    0.908074 0.366878 0.848208 0.244989

loop_
_geom_bond_atom_site_label_1
_geom_bond_atom_site_label_2
_ccdc_geom_bond_type
C22   H14   S    
C28   H32   S    
C2    C4    S    
C21   C22   S    
H9    N1    S    
C7    C9    A    
Cu1   O1    S    
C8    C18   A    
C9    C11   A    
C24   H24   S    
C2    O4    A    
C19   C20   D    
Cu1   O5    S    
C13   C15   A    
C1    O3    A    
C26   H18   S    
C27   H28   S    
Cu2   O6    S    
N3    C27   S    
C20   N3    S    
C26   H19   S    
N1    N2    D    
C23   H11   S    
C28   H30   S    
C25   H22   S    
C24   C25   S    
C11   C13   A    
C21   H16   S    
Cu1   O8    S    
C10   C12   A    
C11   H6    S    
Cu2   N1    S    
C16   C18   A    
C12   C14   A    
C5    C7    S    
C25   H21   S    
C23   H12   S    
C16   H4    S    
N4    H29   S    
C14   C16   A    
C21   H17   S    
C19   N4    S    
Cu2   O7    S    
C9    C21   S    
C13   C19   S    
C12   H5    S    
C2    O2    A    
C3    C4    D    
C17   H2    S    
C14   C20   S    
C28   H31   S    
C6    O6    A    
Cu2   O2    S    
C22   C23   S    
C1    O1    A    
C15   H3    S    
N4    C28   S    
C27   H26   S    
C6    O8    A    
C26   H20   S    
C22   H15   S    
C1    C3    S    
C15   C17   A    
C5    O5    A    
C5    O7    A    
C25   C26   S    
C10   C24   S    
C3    H7    S    
C6    C8    S    
Cu1   N2    S    
C23   H13   S    
C27   H27   S    
Cu1   Cu2   S    
Cu2   O3    S    
C24   H23   S    
C8    C10   A    
C4    H8    S    
Cu1   O4    S    
C18   H1    S    
N3    H25   S    
C7    C17   A    
H10   N2    S    
