data_mof_unit_30853.cif
_audit_creation_date              2012-12-11T18:29:18-0500
_audit_creation_method            fapswitch 2.2
_symmetry_space_group_name_H-M    P1
_symmetry_Int_Tables_number       1
_space_group_crystal_system       triclinic
_cell_length_a                    8.496174
_cell_length_b                    14.505702
_cell_length_c                    17.372455
_cell_angle_alpha                 96.603333
_cell_angle_beta                  95.699552
_cell_angle_gamma                 91.533128
_cell_volume                      2114.73623258

loop_
_atom_site_label
_atom_site_type_symbol
_atom_type_description
_atom_site_fract_x
_atom_site_fract_y
_atom_site_fract_z
_atom_type_partial_charge
Ba1   Ba    Ba6+2 0.833220 0.541860 0.459910 1.816641
Ba2   Ba    Ba6+2 0.356600 0.458220 0.540090 1.875403
C1    C     C_3   0.381294 0.784745 0.147720 0.482933
C2    C     C_3   0.347441 0.540081 0.215111 0.010571
C3    C     C_2   0.301372 0.516797 0.128770 -0.100089
C4    C     C_3   0.911474 0.772528 0.243704 0.324012
C5    C     C_2   0.149246 0.484196 0.107356 0.082522
C6    C     C_2   0.052988 0.454212 0.170476 -0.131648
C7    C     C_1   0.119204 0.452046 0.243767 -0.014245
C8    C     C_R   0.873267 0.484641 0.866470 -0.206201
C9    C     C_R   0.820678 0.466014 0.786168 0.067267
C10   C     C_R   0.069110 0.533440 0.751892 -0.045079
C11   C     C_R   0.122143 0.550269 0.832074 0.001314
C12   C     C_3   0.441514 0.752953 0.226047 0.155730
C13   C     C_R   0.028221 0.523126 0.889637 -0.064436
C14   C     C_2   0.077208 0.474006 0.024175 -0.035439
C15   C     C_2   0.092610 0.538907 0.974031 0.622949
C16   C     C_3   0.846565 0.857906 0.209509 -0.281525
C17   C     C_R   0.920839 0.488158 0.730445 -0.296679
C18   C     C_R   0.703199 0.935669 0.536925 0.049441
C19   C     C_R   0.515501 0.797796 0.495825 0.018254
C20   C     C_R   0.368035 0.763757 0.456602 -0.353154
C21   C     C_R   0.253941 0.824795 0.432133 -0.070487
C22   C     C_R   0.292610 0.919151 0.437642 0.586047
C23   C     C_3   0.490941 0.282996 0.297886 0.825957
C24   C     C_R   0.446052 0.954263 0.466847 -0.068460
C25   C     C_R   0.556687 0.895092 0.500310 -0.143728
C26   C     C_R   0.632194 0.089073 0.501601 -0.209623
C27   C     C_R   0.742037 0.031328 0.537798 -0.112511
C28   C     C_3   0.243243 0.766207 0.653554 0.212832
C29   C     C_R   0.671597 0.185835 0.505626 0.032133
C30   C     C_R   0.812947 0.221942 0.546462 -0.269205
C31   C     C_R   0.928840 0.165521 0.574254 -0.009917
C32   C     C_R   0.891978 0.069784 0.571908 0.568919
C33   C     C_R   0.487575 0.048202 0.463856 0.698609
C34   C     C_3   0.534021 0.246666 0.216146 -0.268888
C35   C     C_3   0.277978 0.863099 0.699660 -0.273630
C36   C     C_3   0.001415 0.251526 0.377695 0.808920
C37   C     C_3   0.951024 0.148408 0.360787 -0.246684
C38   C     C_3   0.694772 0.710781 0.708832 0.114813
C39   C     C_3   0.600963 0.732595 0.781013 -0.329147
C40   C     C_2   0.487923 0.836399 0.284214 0.452379
C41   C     C_2   0.376502 0.924049 0.658344 0.491817
C42   C     C_2   0.052190 0.094086 0.306924 0.653354
C43   C     C_2   0.864497 0.736910 0.734111 0.554862
C44   C     C_2   0.620201 0.833588 0.815202 0.527537
C45   C     C_3   0.220568 0.248990 0.753059 0.292185
C46   C     C_2   0.647231 0.672832 0.844433 0.512716
C47   C     C_2   0.465862 0.150050 0.190396 0.532293
C48   C     C_2   0.476566 0.308925 0.156965 0.480426
C49   C     C_2   0.319036 0.283609 0.893924 0.494337
C50   C     C_2   0.599382 0.169005 0.694275 0.593272
C51   C     C_2   0.880548 0.102772 0.789316 0.523880
C52   C     C_2   0.764309 0.473183 0.926815 0.570516
C53   C     C_2   0.419835 0.529154 0.072565 0.681767
C54   C     C_2   0.870505 0.465248 0.647976 0.562365
C55   C     C_2   0.327396 0.664222 0.441133 0.582746
C56   C     C_3   0.263933 0.208850 0.829855 0.463672
C57   C     C_2   0.933343 0.698530 0.178156 0.567857
C58   C     C_2   0.126997 0.776344 0.585828 0.401015
C59   C     C_3   0.704643 0.233455 0.752731 0.563280
C60   C     C_3   0.789605 0.184794 0.819075 0.533433
C61   C     C_2   0.270152 0.476266 0.263352 -0.159546
F1    F     F_    0.898158 0.296632 0.423302 -0.762058
F2    F     F_    0.386535 0.097579 0.421265 -0.641242
F3    F     F_    0.249834 0.838151 0.154972 -0.662463
F4    F     F_    0.560060 0.370779 0.317725 -0.713720
F5    F     F_    0.380254 0.144883 0.821182 -0.598388
F6    F     F_    0.821474 0.270948 0.714001 -0.892875
F7    F     F_    0.682750 0.157599 0.868100 -0.578460
F8    F     F_    0.170760 0.621378 0.999704 -0.695649
F9    F     F_    0.178044 0.976584 0.415359 -0.674933
F10   F     F_    0.002061 0.014262 0.601885 -0.680539
H1    H     H_    0.337689 0.857350 0.758075 0.127664
H2    H     H_    0.360446 0.286310 0.298248 -0.111392
H3    H     H_    0.665603 0.245053 0.219046 0.151405
H4    H     H_    0.347925 0.723325 0.104643 0.119394
H5    H     H_    0.936282 0.889689 0.177179 0.181183
H6    H     H_    0.313926 0.300009 0.743485 0.039157
H7    H     H_    0.107169 0.284908 0.756790 -0.028882
H8    H     H_    0.159564 0.172384 0.847183 -0.015841
H9    H     H_    0.824771 0.744502 0.279275 0.088613
H10   H     H_    0.875537 0.235993 0.854212 -0.009407
H11   H     H_    0.931174 0.429271 0.154667 0.127606
H12   H     H_    0.166274 0.898162 0.710425 0.221450
H13   H     H_    0.010022 0.409663 0.003941 0.063651
H14   H     H_    0.235697 0.585839 0.849792 0.179464
H15   H     H_    0.331257 0.461013 0.317852 0.113621
H16   H     H_    0.839028 0.294469 0.549174 0.120003
H17   H     H_    0.788374 0.894030 0.565689 0.159298
H18   H     H_    0.739006 0.839075 0.168738 0.072661
H19   H     H_    0.815723 0.910099 0.256882 0.138986
H20   H     H_    0.352294 0.735903 0.633699 -0.036860
H21   H     H_    0.415718 0.897069 0.285973 0.079312
H22   H     H_    0.501296 0.912783 0.656983 0.051631
H23   H     H_    0.121921 0.258980 0.408529 0.043905
H24   H     H_    0.019816 0.022241 0.286457 0.050294
H25   H     H_    0.934273 0.693990 0.769938 -0.087512
H26   H     H_    0.670753 0.884811 0.783047 0.129175
H27   H     H_    0.770017 0.670064 0.867640 -0.047901
H28   H     H_    0.339614 0.138514 0.174446 0.060166
H29   H     H_    0.351055 0.320406 0.146045 -0.057558
H30   H     H_    0.435444 0.282112 0.925526 0.178770
H31   H     H_    0.530509 0.197258 0.647180 -0.007145
H32   H     H_    0.954450 0.108304 0.742684 0.004617
H33   H     H_    0.762974 0.526729 0.975821 -0.003118
H34   H     H_    0.826586 0.141593 0.333818 0.075464
H35   H     H_    0.516327 0.580382 0.087009 -0.031795
H36   H     H_    0.930945 0.413523 0.615081 0.017923
H37   H     H_    0.301775 0.624335 0.487352 0.059462
H38   H     H_    0.831537 0.668258 0.140115 -0.017960
H39   H     H_    0.073880 0.841996 0.577072 0.087188
H40   H     H_    0.956960 0.116803 0.416041 0.056234
H41   H     H_    0.677028 0.636374 0.687954 0.055105
H42   H     H_    0.474247 0.826118 0.125050 0.050611
H43   H     H_    0.473988 0.717851 0.762020 0.143212
H44   H     H_    0.341107 0.716984 0.247923 0.067878
O1    O     O_2   0.840370 0.437300 0.310630 -0.346276
O2    O     O_2   0.241207 0.169918 0.548228 -0.385482
O3    O     O_3   0.207911 0.176148 0.692112 -0.515070
O4    O     O_3   0.112450 0.444030 0.408320 -0.480726
O5    O     O_3   0.560770 0.615000 0.535160 -0.475371
O6    O     O_2   0.387340 0.269270 0.471720 -0.450353
O7    O     O_3   0.549945 0.221170 0.349261 -0.588758
O8    O     O_2   0.485351 0.462569 0.781337 -0.435675
O9    O     O_3   0.606869 0.300830 0.786659 -0.576113
O10   O     O_3   0.597270 0.610320 0.351390 -0.397190
O11   O     O_2   0.683098 0.531681 0.216422 -0.475429
O12   O     O_3   0.641212 0.766575 0.651327 -0.666203
O13   O     O_3   0.997860 0.289292 0.307436 -0.651466
O14   O     O_3   0.574063 0.697298 0.215085 -0.693167
O15   O     O_2   0.802370 0.730760 0.528330 -0.419106
O16   O     O_3   0.016680 0.660770 0.388810 -0.429305
O17   O     O_2   0.918099 0.835681 0.416168 -0.434719
O18   O     O_2   0.603698 0.836162 0.331558 -0.592788
O19   O     O_2   0.317539 0.987829 0.627148 -0.459452
O20   O     O_2   0.171630 0.128528 0.286698 -0.573096
O21   O     O_2   0.920003 0.811373 0.721290 -0.545289
O22   O     O_2   0.570975 0.859771 0.877456 -0.479625
O23   O     O_3   0.057816 0.798327 0.286853 -0.579647
O24   O     O_2   0.545991 0.630714 0.873108 -0.527456
O25   O     O_2   0.552079 0.084038 0.186173 -0.534720
O26   O     O_2   0.570218 0.345883 0.120034 -0.518199
O27   O     O_2   0.231743 0.346015 0.911689 -0.624711
O28   O     O_2   0.588018 0.086061 0.699060 -0.562908
O29   O     O_2   0.872409 0.029622 0.817325 -0.467693
O30   O     O_2   0.682307 0.402650 0.925182 -0.496163
O31   O     O_2   0.414337 0.480107 0.010416 -0.490956
O32   O     O_2   0.775153 0.511840 0.614461 -0.556333
O33   O     O_2   0.307278 0.627552 0.374503 -0.644749
O34   O     O_2   0.349330 0.562730 0.689420 -0.479235
O35   O     O_2   0.064680 0.672302 0.166384 -0.560836
O36   O     O_2   0.089460 0.709131 0.539232 -0.571758
O37   O     O_3   0.077250 0.556050 0.591680 -0.452717
O38   O     O_3   0.592420 0.389760 0.648620 -0.478707
O39   O     O_3   0.175751 0.710657 0.703225 -0.604874
O40   O     O_3   0.628930 0.385070 0.464840 -0.352539
O41   O     O_3   0.173020 0.339310 0.611190 -0.535208
P1    P     P_3+3 0.017810 0.410420 0.324030 1.105627
P2    P     P_3+3 0.635890 0.718430 0.552520 1.034580
P3    P     P_3+3 0.056596 0.780101 0.384883 1.106522
P4    P     P_3+3 0.171880 0.589650 0.675980 1.021688
P5    P     P_3+3 0.132469 0.217091 0.605642 1.082595
P6    P     P_3+3 0.550736 0.589768 0.250539 1.031973
P7    P     P_3+3 0.561023 0.266861 0.447859 1.189234
P8    P     P_3+3 0.624768 0.408237 0.750640 1.077789

loop_
_geom_bond_atom_site_label_1
_geom_bond_atom_site_label_2
_ccdc_geom_bond_type
C17   C54   S    
C35   H1    S    
O10   P6    S    
C4    H9    S    
C61   H15   S    
C23   F4    S    
C45   H6    S    
C60   H10   S    
Ba1   O15   S    
Ba2   P4    S    
C20   C55   S    
C5    C6    S    
C57   O35   D    
C37   H34   S    
C2    C61   S    
C9    C17   A    
C24   C25   A    
Ba2   O38   S    
C16   H18   S    
C36   O13   S    
C49   O27   D    
C35   H12   S    
C26   C27   A    
C31   P5    S    
C22   C24   A    
C28   H20   S    
C8    C13   A    
C47   H28   S    
C36   C37   S    
C7    P1    S    
O38   P8    S    
C49   H30   S    
O11   P6    D    
C60   F7    S    
Ba1   Ba2   S    
C51   C60   S    
C58   O36   D    
C51   O29   D    
C34   H3    S    
O3    P5    S    
Ba1   O5    S    
C38   H41   S    
C29   P7    S    
C26   C33   A    
C14   C15   D    
C37   H40   S    
C28   C58   S    
C9    P8    S    
C57   H38   S    
C21   C22   A    
C2    P6    S    
C59   O9    S    
C59   C60   S    
Ba2   O41   S    
C18   C27   A    
C12   H44   S    
C28   O39   S    
C19   C25   A    
O39   P4    S    
Ba2   O37   S    
C7    C61   D    
C19   C20   A    
C55   O33   D    
C14   H13   S    
O1    P1    D    
Ba1   O37   S    
C45   H7    S    
Ba1   O16   S    
O37   P4    S    
C36   F1    S    
C12   O14   S    
Ba2   O5    S    
C38   C43   S    
C46   H27   S    
C4    C16   S    
C52   H33   S    
Ba1   P1    S    
C56   H8    S    
O40   P7    S    
C3    C5    D    
C50   O28   D    
C6    C7    D    
C23   C34   S    
C6    H11   S    
O23   P3    S    
Ba2   O6    S    
C18   H17   S    
C27   C32   A    
C28   C35   S    
O13   P1    S    
C23   H2    S    
C35   C41   S    
C58   H39   S    
C52   O30   D    
C42   H24   S    
C41   H22   S    
C29   C30   A    
C39   C44   S    
O34   P4    D    
C47   O25   D    
C11   H14   S    
C31   C32   A    
C49   C56   S    
O15   P2    D    
C1    C12   S    
O41   P5    S    
C42   O20   D    
C56   F5    S    
C38   C39   S    
C48   H29   S    
C11   C13   A    
C30   H16   S    
C19   P2    S    
C1    F3    S    
C39   H43   S    
O2    P5    D    
C1    H4    S    
C54   H36   S    
C34   C48   S    
C48   O26   D    
C22   F9    S    
C16   H5    S    
Ba2   O4    S    
C59   F6    S    
Ba2   O34   S    
C13   C15   S    
C45   O3    S    
O5    P2    S    
C40   H21   S    
C4    C57   S    
C3    C53   S    
C26   C29   A    
C5    C14   S    
Ba1   O10   S    
C2    C3    S    
O9    P8    S    
O16   P3    S    
C50   C59   S    
C55   H37   S    
C15   F8    S    
C37   C42   S    
C18   C25   A    
C38   O12   S    
O17   P3    D    
C12   C40   S    
C53   H35   S    
C43   H25   S    
C16   H19   S    
C30   C31   A    
C44   H26   S    
Ba1   O40   S    
O8    P8    D    
C1    H42   S    
C45   C56   S    
C53   O31   D    
Ba1   P2    S    
O14   P6    S    
Ba2   O40   S    
C10   C17   A    
C43   O21   D    
C39   C46   S    
C50   H31   S    
C46   O24   D    
Ba1   O1    S    
C4    O23   S    
C41   O19   D    
C8    C52   S    
C23   O7    S    
Ba1   O4    S    
C8    C9    A    
C32   F10   S    
C10   P4    S    
O7    P7    S    
O6    P7    D    
C51   H32   S    
C24   C33   A    
C10   C11   A    
O4    P1    S    
C36   H23   S    
C33   F2    S    
C20   C21   A    
C40   O18   D    
C54   O32   D    
O12   P2    S    
C34   C47   S    
C44   O22   D    
C21   P3    S    
