data_mof_unit_5403.cif
_audit_creation_date              2012-12-10T17:40:57-0500
_audit_creation_method            fapswitch 2.2
_symmetry_space_group_name_H-M    P1
_symmetry_Int_Tables_number       1
_space_group_crystal_system       triclinic
_cell_length_a                    15.11393
_cell_length_b                    15.204613
_cell_length_c                    9.916392
_cell_angle_alpha                 91.15157
_cell_angle_beta                  92.883815
_cell_angle_gamma                 89.394908
_cell_volume                      2275.35173961

loop_
_atom_site_label
_atom_site_type_symbol
_atom_type_description
_atom_site_fract_x
_atom_site_fract_y
_atom_site_fract_z
_atom_type_partial_charge
C1    C     C_R   0.384887 0.875290 0.496920 0.898663
C2    C     C_R   0.391411 0.128946 0.500070 0.907124
C3    C     C_R   0.884888 0.375290 0.496921 0.898657
C4    C     C_R   0.891411 0.628947 0.500072 0.907119
C5    C     C_R   0.292609 0.230678 0.380891 -0.138649
C6    C     C_R   0.249651 0.810055 0.397659 -0.160955
C7    C     C_R   0.792631 0.730702 0.380900 -0.138617
C8    C     C_R   0.749655 0.310054 0.397655 -0.160934
C9    C     C_R   0.718257 0.782106 0.386032 -0.176525
C10   C     C_R   0.680365 0.252261 0.404046 -0.175764
C11   C     C_R   0.218233 0.282080 0.386027 -0.176509
C12   C     C_R   0.180361 0.752263 0.404052 -0.175763
C13   C     C_R   0.689020 0.812565 0.510541 -0.105038
C14   C     C_R   0.678259 0.196008 0.513251 -0.086597
C15   C     C_R   0.189018 0.312564 0.510536 -0.105045
C16   C     C_R   0.178258 0.696008 0.513247 -0.086608
C17   C     C_R   0.348980 0.942727 0.123116 0.190561
C18   C     C_R   0.848984 0.442722 0.123126 0.190576
C19   C     C_R   0.302000 0.878836 0.046525 -0.221461
C20   C     C_R   0.802012 0.378817 0.046555 -0.221490
C21   C     C_R   0.299162 0.885076 0.906742 -0.187514
C22   C     C_R   0.799184 0.385030 0.906769 -0.187550
C23   C     C_R   0.345793 0.951814 0.849652 0.243303
C24   C     C_R   0.845806 0.451768 0.849660 0.243296
C25   C     C_R   0.422190 0.983384 0.921529 0.096685
C26   C     C_R   0.922194 0.483364 0.921531 0.096708
C27   C     C_R   0.423154 0.979982 0.065728 0.096632
C28   C     C_R   0.923158 0.479971 0.065730 0.096681
C29   C     C_R   0.574943 0.013113 0.077840 -0.050450
C30   C     C_R   0.074939 0.513131 0.077840 -0.050336
C31   C     C_R   0.616333 0.123942 0.503746 0.854098
C32   C     C_R   0.618773 0.877648 0.502713 0.869563
C33   C     C_R   0.116331 0.623943 0.503745 0.854109
C34   C     C_R   0.118773 0.377649 0.502712 0.869544
C35   C     C_R   0.575305 0.009723 0.934990 -0.036914
C36   C     C_R   0.075302 0.509744 0.934990 -0.036874
C37   C     C_R   0.386086 0.258126 0.731290 -0.171498
C38   C     C_R   0.404699 0.706265 0.651265 -0.200819
C39   C     C_R   0.886036 0.758038 0.731374 -0.171433
C40   C     C_R   0.904697 0.206293 0.651337 -0.200827
C41   C     C_R   0.364144 0.296120 0.854631 0.342589
C42   C     C_R   0.399808 0.643349 0.753008 0.353922
C43   C     C_R   0.864054 0.795925 0.854763 0.342512
C44   C     C_R   0.899802 0.143387 0.753099 0.353890
C45   C     C_R   0.777361 0.821557 0.873512 -0.234985
C46   C     C_R   0.818246 0.127795 0.807563 -0.239634
C47   C     C_R   0.277451 0.321732 0.873420 -0.235114
C48   C     C_R   0.318260 0.627761 0.807495 -0.239593
C49   C     C_R   0.713452 0.815255 0.767577 0.165832
C50   C     C_R   0.741200 0.160571 0.742902 0.113078
C51   C     C_R   0.213509 0.315335 0.767549 0.165855
C52   C     C_R   0.241213 0.660555 0.742873 0.113075
C53   C     C_R   0.738991 0.794012 0.633743 0.062668
C54   C     C_R   0.746242 0.199096 0.616126 0.058551
C55   C     C_R   0.239014 0.294038 0.633723 0.062703
C56   C     C_R   0.246246 0.699091 0.616108 0.058545
C57   C     C_R   0.322429 0.253717 0.621773 0.025752
C58   C     C_R   0.325747 0.738448 0.587272 0.000837
C59   C     C_R   0.822411 0.753693 0.621806 0.025738
C60   C     C_R   0.825744 0.238456 0.587301 0.000806
C61   C     C_R   0.339081 0.208820 0.499964 -0.102682
C62   C     C_R   0.322516 0.804057 0.489465 -0.087574
C63   C     C_R   0.839085 0.708823 0.499979 -0.102691
C64   C     C_R   0.822517 0.304058 0.489472 -0.087559
H1    H     H_    0.311453 0.205237 0.283778 0.206186
H2    H     H_    0.246104 0.859080 0.321484 0.178386
H3    H     H_    0.811486 0.705271 0.283785 0.206251
H4    H     H_    0.746108 0.359078 0.321474 0.178372
H5    H     H_    0.245192 0.855141 0.848344 0.213004
H6    H     H_    0.745227 0.355073 0.848373 0.213019
H7    H     H_    0.637532 0.014150 0.886487 0.152579
H8    H     H_    0.137527 0.514181 0.886487 0.152571
H9    H     H_    0.452986 0.234158 0.720134 0.192498
H10   H     H_    0.468233 0.724686 0.615528 0.173351
H11   H     H_    0.952938 0.734067 0.720241 0.192541
H12   H     H_    0.968235 0.224723 0.615625 0.173370
H13   H     H_    0.758288 0.840065 0.974135 0.179265
H14   H     H_    0.815008 0.092903 0.901256 0.184974
H15   H     H_    0.258409 0.340313 0.974030 0.179246
H16   H     H_    0.315030 0.592858 0.901177 0.184990
H17   H     H_    0.683173 0.797089 0.291112 0.187999
H18   H     H_    0.627651 0.252720 0.325769 0.190390
H19   H     H_    0.183133 0.297046 0.291114 0.188020
H20   H     H_    0.127643 0.752725 0.325784 0.190423
H21   H     H_    0.636432 0.023453 0.136303 0.152736
H22   H     H_    0.136426 0.523483 0.136303 0.152729
H23   H     H_    0.249800 0.842472 0.090302 0.198294
H24   H     H_    0.749812 0.342455 0.090338 0.198290
N1    N     N_R   0.498810 0.000000 0.142780 -0.112376
N2    N     N_R   0.998810 0.500000 0.142780 -0.112365
N3    N     N_R   0.498740 0.000000 0.857170 -0.103370
N4    N     N_R   0.998740 0.500000 0.857170 -0.103378
O1    O     O_R   0.408390 0.908380 0.614690 -0.604419
O2    O     O_R   0.408390 0.091620 0.614690 -0.599795
O3    O     O_R   0.908390 0.408380 0.614690 -0.604439
O4    O     O_R   0.908390 0.591620 0.614690 -0.599830
O5    O     O_R   0.408370 0.908380 0.385360 -0.615748
O6    O     O_R   0.408370 0.091620 0.385360 -0.598410
O7    O     O_R   0.908370 0.408380 0.385360 -0.615765
O8    O     O_R   0.908370 0.591620 0.385360 -0.598360
O9    O     O_R   0.591620 0.091610 0.614640 -0.609264
O10   O     O_R   0.591620 0.908390 0.614640 -0.607388
O11   O     O_R   0.091620 0.591610 0.614640 -0.609276
O12   O     O_R   0.091620 0.408390 0.614640 -0.607392
O13   O     O_R   0.591610 0.091610 0.385310 -0.618785
O14   O     O_R   0.591610 0.908390 0.385310 -0.621724
O15   O     O_R   0.091610 0.591610 0.385310 -0.618764
O16   O     O_R   0.091610 0.408390 0.385310 -0.621729
Zn1   Zn    Zn3+2 0.500010 0.000000 0.653130 0.997348
Zn2   Zn    Zn3+2 0.000010 0.500000 0.653130 0.997337
Zn3   Zn    Zn3+2 0.499980 0.000000 0.346870 0.990163
Zn4   Zn    Zn3+2 0.999980 0.500000 0.346870 0.990209
I1    I     I_    0.252310 0.037688 0.753231 -0.199069
I2    I     I_    0.752317 0.537598 0.753155 -0.198990
Br1   Br    Br    0.447590 0.303821 0.005253 -0.459290
Br2   Br    Br    0.501092 0.578203 0.819409 -0.390941
Br3   Br    Br    0.947420 0.803361 0.005513 -0.459615
Br4   Br    Br    0.001090 0.078258 0.819557 -0.391052
I3    I     I_    0.587014 0.792908 0.843135 -0.310003
I4    I     I_    0.639258 0.204199 0.866702 -0.369334
I5    I     I_    0.087111 0.292934 0.843203 -0.309993
I6    I     I_    0.139309 0.704208 0.866711 -0.369361
I7    I     I_    0.254160 0.028256 0.207088 -0.280061
I8    I     I_    0.754165 0.528267 0.207071 -0.279924

loop_
_geom_bond_atom_site_label_1
_geom_bond_atom_site_label_2
_ccdc_geom_bond_type
C58   C62   A    
C24   I2    S    
C40   C60   A    
O15   Zn4   S    
C13   C32   S    
C33   O15   A    
N2    Zn4   S    
C14   C31   S    
C30   N2    A    
C1    C62   S    
C29   N1    A    
C53   C59   A    
C54   C60   A    
C3    C64   S    
C4    C63   S    
C50   C54   A    
C6    H2    S    
O11   Zn2   S    
C50   I4    S    
C31   O9    A    
C19   C21   A    
C24   C26   A    
C5    C11   A    
C19   H23   S    
C6    C12   A    
O5    Zn3   S    
O9    Zn1   S    
C12   H20   S    
C18   C20   A    
C9    C13   A    
C4    O4    A    
C52   I6    S    
C17   I7    S    
C36   H8    S    
C12   C16   A    
C39   H11   S    
C30   H22   S    
O1    Zn1   S    
C15   C34   S    
C29   H21   S    
C2    C61   S    
C36   N4    A    
O13   Zn3   S    
C35   H7    S    
C32   O14   A    
C31   O13   A    
C11   C15   A    
C41   Br1   S    
C44   C46   A    
C46   C50   A    
C13   C53   A    
O14   Zn3   S    
C25   N3    A    
C17   C27   A    
C2    O2    A    
C18   C28   A    
C5    H1    S    
C10   C14   A    
C1    O5    A    
C46   H14   S    
C47   C51   A    
C11   H19   S    
C48   H16   S    
O4    Zn2   S    
C10   H18   S    
C34   O12   A    
O16   Zn4   S    
C21   H5    S    
C15   C55   A    
C16   C56   A    
C3    O7    A    
C16   C33   S    
C23   I1    S    
C45   C49   A    
C39   C59   A    
C41   C47   A    
C5    C61   A    
C42   C48   A    
C57   C61   A    
C43   C45   A    
C7    C63   A    
C8    C64   A    
C42   Br2   S    
C14   C54   A    
C20   C22   A    
O8    Zn4   S    
C55   C57   A    
C51   I5    S    
C22   C24   A    
C44   Br4   S    
C40   C44   A    
C38   H10   S    
C7    C9    A    
C37   H9    S    
O6    Zn3   S    
C33   O11   A    
C59   C63   A    
C8    C10   A    
O3    Zn2   S    
C39   C43   A    
C8    H4    S    
C32   O10   A    
C25   C27   A    
C29   C35   A    
N1    Zn3   S    
O2    Zn1   S    
C26   C28   A    
C4    O8    A    
C30   C36   A    
C6    C62   A    
C60   C64   A    
C34   O16   A    
N3    Zn1   S    
C21   C23   A    
C47   H15   S    
O12   Zn2   S    
N4    Zn2   S    
C49   I3    S    
C49   C53   A    
O7    Zn4   S    
C20   H24   S    
C17   C19   A    
C3    O3    A    
C56   C58   A    
C27   N1    A    
C51   C55   A    
C23   C25   A    
C37   C41   A    
C7    H3    S    
C38   C42   A    
C40   H12   S    
C48   C52   A    
C2    O6    A    
C1    O1    A    
C18   I8    S    
C43   Br3   S    
O10   Zn1   S    
C28   N2    A    
C45   H13   S    
C26   N4    A    
C38   C58   A    
C22   H6    S    
C37   C57   A    
C52   C56   A    
C9    H17   S    
C35   N3    A    
