data_mof_unit_55699.cif
_audit_creation_date              2012-12-11T15:20:39-0500
_audit_creation_method            fapswitch 2.2
_symmetry_space_group_name_H-M    P1
_symmetry_Int_Tables_number       1
_space_group_crystal_system       triclinic
_cell_length_a                    12.930669
_cell_length_b                    13.117882
_cell_length_c                    15.424424
_cell_angle_alpha                 116.682115
_cell_angle_beta                  64.249847
_cell_angle_gamma                 96.712348
_cell_volume                      2095.62047468

loop_
_atom_site_label
_atom_site_type_symbol
_atom_type_description
_atom_site_fract_x
_atom_site_fract_y
_atom_site_fract_z
_atom_type_partial_charge
C1    C     C_R   0.034496 0.831830 0.018673 0.149968
C2    C     C_R   0.320860 0.529639 0.783698 -0.143325
C3    C     C_R   0.249126 0.480643 0.104977 0.134814
C4    C     C_R   0.692745 0.418695 0.212211 -0.168063
C5    C     C_R   0.994980 0.291389 0.692670 0.148674
C6    C     C_R   0.328800 0.558919 0.088183 0.109545
C7    C     C_R   0.953656 0.188573 0.689714 -0.012293
C8    C     C_R   0.330063 0.462228 0.681343 0.038920
C9    C     C_R   0.035009 0.145239 0.016756 0.074875
C10   C     C_R   0.038712 0.987672 0.407980 -0.175147
C11   C     C_R   0.042703 0.069392 0.500103 -0.194465
C12   C     C_R   0.692222 0.455267 0.310500 -0.019626
C13   C     C_R   0.947063 0.096147 0.597904 0.149661
C14   C     C_R   0.847615 0.039021 0.605128 -0.174939
C15   C     C_R   0.844252 0.954234 0.511657 -0.189325
C16   C     C_R   0.739495 0.579575 0.948843 -0.174491
C17   C     C_R   0.939875 0.929644 0.413335 0.152076
C18   C     C_R   0.568739 0.551547 0.499530 -0.191440
C19   C     C_R   0.484992 0.551225 0.591803 -0.179118
C20   C     C_R   0.428802 0.452585 0.586902 0.151974
C21   C     C_R   0.456322 0.353678 0.489673 -0.189994
C22   C     C_R   0.543202 0.353217 0.396552 -0.171164
C23   C     C_R   0.637253 0.562421 0.020105 0.162560
C24   C     C_R   0.599307 0.452258 0.402841 0.150817
C25   C     C_2   0.430138 0.577422 0.109592 -0.210083
C26   C     C_2   0.524890 0.605774 0.046065 -0.198930
C27   C     C_2   0.880760 0.959367 0.039099 -0.210257
C28   C     C_R   0.936204 0.722770 0.312023 -0.132032
C29   C     C_2   0.851522 0.035729 0.141429 -0.150404
C30   C     C_R   0.660675 0.482337 0.045859 -0.119930
C31   C     C_R   0.020372 0.819845 0.217218 -0.146555
C32   C     C_R   0.795116 0.499470 0.307964 0.154359
C33   C     C_R   0.927717 0.747904 0.929443 -0.192235
C34   C     C_R   0.948744 0.830617 0.317915 0.026305
C35   C     C_R   0.954885 0.852969 0.988674 0.105524
C36   C     C_3   0.135928 0.900698 0.021404 -0.485382
C37   C     C_3   0.213536 0.895449 0.910528 -0.205129
C38   C     C_3   0.313483 0.969135 0.913810 -0.948625
C39   C     C_3   0.295534 0.370888 0.091973 -0.442781
C40   C     C_3   0.271331 0.372882 0.199333 -0.269429
C41   C     C_3   0.340256 0.273411 0.182473 -0.943616
C42   C     C_3   0.992436 0.339060 0.620189 -0.464159
C43   C     C_3   0.939001 0.463027 0.681270 -0.243365
C44   C     C_3   0.943846 0.508372 0.604818 -0.955978
C45   C     C_R   0.313774 0.592208 0.022351 -0.165811
C46   C     C_3   0.840099 0.513382 0.388912 -0.442080
C47   C     C_3   0.970928 0.486239 0.344664 -0.223623
C48   C     C_3   0.028428 0.583323 0.405109 -0.936921
C49   C     C_R   0.921038 0.190698 0.787499 -0.172971
C50   C     C_R   0.220758 0.445239 0.685874 -0.139901
C51   C     C_R   0.062190 0.251111 0.076573 -0.179108
C52   C     C_R   0.971561 0.167257 0.973007 -0.093902
H1    H     H_    0.200060 0.404000 0.618639 0.109226
H2    H     H_    0.460400 0.629879 0.665968 0.116356
H3    H     H_    0.566986 0.276766 0.320766 0.122762
H4    H     H_    0.434162 0.545220 0.161659 0.139245
H5    H     H_    0.522427 0.641836 0.995975 0.126905
H6    H     H_    0.837786 0.970089 0.996590 0.130388
H7    H     H_    0.747083 0.627830 0.905932 0.094010
H8    H     H_    0.888394 0.704239 0.378674 0.134913
H9    H     H_    0.600225 0.443049 0.093293 0.090856
H10   H     H_    0.051693 0.889985 0.198454 0.095189
H11   H     H_    0.353854 0.659001 0.999783 0.098132
H12   H     H_    0.095766 0.266036 0.133351 0.106971
H13   H     H_    0.280203 0.060420 0.969714 0.264689
H14   H     H_    0.366467 0.939786 0.940423 0.258612
H15   H     H_    0.369087 0.962130 0.832286 0.250740
H16   H     H_    0.248903 0.805184 0.851331 0.192953
H17   H     H_    0.162983 0.926167 0.882707 0.198697
H18   H     H_    0.104337 0.991033 0.082413 0.191722
H19   H     H_    0.189426 0.864471 0.042994 0.187009
H20   H     H_    0.872648 0.129797 0.815080 0.102758
H21   H     H_    0.929731 0.105475 0.927277 0.083257
H22   H     H_    0.317714 0.190305 0.132549 0.266098
H23   H     H_    0.389338 0.563984 0.807918 0.101371
H24   H     H_    0.434295 0.279329 0.142453 0.256413
H25   H     H_    0.319716 0.276647 0.261515 0.251625
H26   H     H_    0.294220 0.454457 0.250961 0.199276
H27   H     H_    0.179166 0.366074 0.242610 0.198601
H28   H     H_    0.267319 0.294556 0.040949 0.189271
H29   H     H_    0.390776 0.358049 0.043527 0.197769
H30   H     H_    0.035236 0.507450 0.550726 0.274463
H31   H     H_    0.897182 0.455148 0.556401 0.275810
H32   H     H_    0.902845 0.597904 0.651711 0.247297
H33   H     H_    0.847325 0.466234 0.735635 0.204624
H34   H     H_    0.115746 0.966040 0.333413 0.118059
H35   H     H_    0.985638 0.519183 0.727995 0.212229
H36   H     H_    0.079555 0.328373 0.555153 0.177575
H37   H     H_    0.938814 0.287575 0.578590 0.202289
H38   H     H_    0.410083 0.278560 0.486204 0.117341
H39   H     H_    0.886086 0.026036 0.190378 0.129693
H40   H     H_    0.061469 0.641620 0.366889 0.263036
H41   H     H_    0.968515 0.633997 0.490776 0.270538
H42   H     H_    0.104074 0.547256 0.401869 0.238345
H43   H     H_    0.984403 0.408683 0.351838 0.173399
H44   H     H_    0.016462 0.464874 0.258839 0.205170
H45   H     H_    0.120752 0.111993 0.495192 0.118358
H46   H     H_    0.808057 0.599149 0.458531 0.176318
H47   H     H_    0.797576 0.453562 0.424237 0.173553
H48   H     H_    0.879633 0.733685 0.883645 0.106564
H49   H     H_    0.773716 0.060555 0.681832 0.116120
H50   H     H_    0.631957 0.366966 0.184483 0.104301
H51   H     H_    0.769156 0.906878 0.515726 0.113780
H52   H     H_    0.609229 0.629659 0.503356 0.113617
N1    N     N_R   0.037310 0.720000 0.995790 -0.056627
N2    N     N_R   0.824890 0.517960 0.936420 -0.045125
N3    N     N_R   0.003210 0.648190 0.211380 -0.040231
N4    N     N_R   0.774330 0.457010 0.995840 -0.042453
N5    N     N_R   0.053760 0.709140 0.151960 -0.040166
N6    N     N_R   0.853860 0.498840 0.211410 -0.052856
N7    N     N_R   0.974240 0.667310 0.936390 -0.051251
N8    N     N_R   0.225670 0.542990 0.004160 -0.051720
N9    N     N_R   0.946240 0.290860 0.848040 -0.046296
N10   N     N_R   0.146140 0.501160 0.788590 -0.045456
N11   N     N_R   0.025760 0.332690 0.063610 -0.046224
N12   N     N_R   0.962690 0.280000 0.004210 -0.038896
N13   N     N_R   0.209210 0.553840 0.847990 -0.039930
N14   N     N_R   0.175110 0.482040 0.063580 -0.065260
N15   N     N_R   0.996790 0.351810 0.788620 -0.052136
N16   N     N_R   0.790790 0.446160 0.152010 -0.045850
Ni1   Ni    Ni4+2 0.130310 0.630310 0.999970 0.196884
Ni2   Ni    Ni4+2 0.869690 0.369690 0.000030 0.206415
Ni3   Ni    Ni4+2 0.985640 0.509470 0.863740 0.203668
Ni4   Ni    Ni4+2 0.014360 0.490530 0.136260 0.211741

loop_
_geom_bond_atom_site_label_1
_geom_bond_atom_site_label_2
_ccdc_geom_bond_type
C49   N9    A    
C46   H47   S    
C6    C45   A    
C37   H17   S    
C27   C29   D    
C19   C20   A    
C9    C51   A    
C25   H4    S    
C5    C42   S    
C44   H31   S    
C45   N8    A    
C8    C20   S    
C32   N6    A    
C5    N15   A    
C18   C24   A    
C36   C37   S    
C44   H30   S    
C41   H25   S    
C6    C25   S    
C10   C17   A    
N11   N12   A    
C37   H16   S    
C18   C19   A    
C23   C26   S    
N13   Ni1   S    
N6    Ni4   S    
C41   H22   S    
N9    N15   A    
N9    Ni2   S    
C38   H14   S    
N16   Ni2   S    
C49   H20   S    
C4    H50   S    
N2    Ni3   S    
C47   H44   S    
C33   N7    A    
C4    C12   A    
C36   H19   S    
C16   N2    A    
C3    C6    A    
C52   N12   A    
C46   H46   S    
C3    C39   S    
C13   C14   A    
C12   C32   A    
N3    N5    A    
C31   H10   S    
C9    C52   A    
N3    Ni4   S    
C2    N13   A    
C36   H18   S    
C21   H38   S    
C28   H8    S    
C31   C34   A    
C50   H1    S    
C48   H41   S    
N7    Ni3   S    
C43   H33   S    
C23   C30   A    
C7    C49   A    
C52   H21   S    
N6    N16   A    
C39   C40   S    
C5    C7    A    
C14   H49   S    
N14   Ni4   S    
C27   C35   S    
C25   C26   D    
C45   H11   S    
C51   N11   A    
C50   N10   A    
C16   H7    S    
C43   C44   S    
C37   C38   S    
C3    N14   A    
C47   C48   S    
C38   H13   S    
C31   N5    A    
C40   H27   S    
N1    Ni1   S    
C18   H52   S    
C38   H15   S    
C39   H29   S    
C48   H42   S    
N10   Ni3   S    
C19   H2    S    
C40   C41   S    
C16   C23   A    
C48   H40   S    
C22   C24   A    
C42   H36   S    
C42   C43   S    
C8    C50   A    
C29   H39   S    
C1    C35   A    
N12   Ni2   S    
C15   C17   A    
C46   C47   S    
C10   H34   S    
N11   Ni4   S    
C30   N4    A    
C32   C46   S    
C2    C8    A    
C51   H12   S    
N4    Ni2   S    
C44   H32   S    
C27   H6    S    
C22   H3    S    
N15   Ni3   S    
C12   C24   S    
C11   H45   S    
C33   H48   S    
C43   H35   S    
C39   H28   S    
C42   H37   S    
N8    Ni1   S    
C41   H24   S    
N8    N14   A    
C11   C13   A    
N5    Ni1   S    
N2    N4    A    
C33   C35   A    
C40   H26   S    
N1    N7    A    
C26   H5    S    
N10   N13   A    
C10   C11   A    
C28   C34   A    
C7    C13   S    
C20   C21   A    
C17   C34   S    
C30   H9    S    
C47   H43   S    
C14   C15   A    
C4    N16   A    
C28   N3    A    
C15   H51   S    
C21   C22   A    
C2    H23   S    
C1    C36   S    
C1    N1    A    
