data_mof_unit_44346.cif
_audit_creation_date              2012-12-11T17:01:23-0500
_audit_creation_method            fapswitch 2.2
_symmetry_space_group_name_H-M    P1
_symmetry_Int_Tables_number       1
_space_group_crystal_system       triclinic
_cell_length_a                    19.458297
_cell_length_b                    7.109712
_cell_length_c                    17.618532
_cell_angle_alpha                 89.999882
_cell_angle_beta                  108.678253
_cell_angle_gamma                 89.988662
_cell_volume                      2309.02539081

loop_
_atom_site_label
_atom_site_type_symbol
_atom_type_description
_atom_site_fract_x
_atom_site_fract_y
_atom_site_fract_z
_atom_type_partial_charge
O1    O     O_R   0.413720 0.494330 0.415730 -0.550089
O2    O     O_R   0.586280 0.994330 0.584270 -0.540467
O3    O     O_R   0.560210 0.819300 0.430070 -0.549205
O4    O     O_R   0.439790 0.319300 0.569930 -0.549321
C1    C     C_R   0.579621 0.655509 0.412401 0.708297
C2    C     C_R   0.420393 0.155545 0.587606 0.715238
O5    O     O_R   0.412670 0.823730 0.406310 -0.528911
O6    O     O_R   0.587330 0.323730 0.593690 -0.536913
O7    O     O_R   0.437690 0.998790 0.560340 -0.534241
O8    O     O_R   0.562310 0.498790 0.439660 -0.536625
C3    C     C_R   0.385876 0.654541 0.382738 0.700465
C4    C     C_R   0.614432 0.154694 0.616882 0.706912
O9    O     O_3   0.508380 0.662350 0.550560 -0.382707
O10   O     O_3   0.491620 0.162350 0.449440 -0.382609
V1    V     V_3+5 0.498450 0.935370 0.490620 1.378558
V2    V     V_3+5 0.501550 0.435370 0.509380 1.359606
C5    C     C_R   0.729163 0.985459 0.695911 0.058468
C6    C     C_R   0.270835 0.486446 0.304162 0.023764
C7    C     C_R   0.684076 0.144135 0.684046 -0.086212
C8    C     C_R   0.316729 0.643342 0.314978 -0.135590
C9    C     C_R   0.707903 0.294256 0.737697 -0.130811
C10   C     C_R   0.293128 0.792963 0.260816 -0.124405
C11   C     C_R   0.773925 0.285901 0.801075 -0.168268
C12   C     C_R   0.226809 0.784650 0.197773 -0.160534
C13   C     C_R   0.817696 0.123405 0.814209 -0.086816
C14   C     C_R   0.182394 0.623353 0.185648 -0.096729
C15   C     C_R   0.794642 0.975629 0.759428 0.013205
C16   C     C_R   0.204870 0.477368 0.241469 0.014241
C17   C     C_3   0.783692 0.775393 0.777466 -0.389445
C18   C     C_3   0.212670 0.273876 0.225690 -0.358594
C19   C     C_3   0.711327 0.786367 0.710124 0.378427
C20   C     C_3   0.285861 0.283306 0.291377 0.380905
H1    H     H_    0.824419 0.682080 0.764494 0.160232
H2    H     H_    0.171426 0.186973 0.240945 0.161930
C21   C     C_R   0.327323 0.996101 0.635279 -0.231550
C22   C     C_R   0.673009 0.496505 0.365021 -0.233128
C23   C     C_R   0.374547 0.149126 0.641039 -0.120772
C24   C     C_R   0.625433 0.648953 0.358913 -0.127189
C25   C     C_R   0.376783 0.294442 0.697473 0.141022
C26   C     C_R   0.622766 0.793511 0.302037 0.138044
C27   C     C_R   0.329946 0.287149 0.744243 0.120894
C28   C     C_R   0.669470 0.786012 0.255104 0.116255
C29   C     C_R   0.281401 0.134846 0.735933 0.012164
C30   C     C_R   0.718374 0.634333 0.263778 0.006059
C31   C     C_R   0.280811 0.988437 0.681838 0.031398
C32   C     C_R   0.719456 0.488693 0.318356 0.060005
C33   C     C_R   0.330282 0.431202 0.798965 -0.170874
C34   C     C_R   0.668633 0.929213 0.199837 -0.176604
C35   C     C_R   0.283513 0.425525 0.844292 -0.178099
C36   C     C_R   0.715289 0.923362 0.154363 -0.190252
C37   C     C_R   0.234246 0.276299 0.836191 0.121902
C38   C     C_R   0.765011 0.774976 0.162956 0.111736
C39   C     C_R   0.233201 0.129440 0.781627 -0.008961
C40   C     C_R   0.766477 0.628907 0.218008 -0.033440
C41   C     C_R   0.184045 0.977982 0.772417 0.039848
C42   C     C_R   0.816042 0.478328 0.227649 0.077765
C43   C     C_R   0.184464 0.830899 0.718108 0.197195
C44   C     C_R   0.816186 0.331289 0.281953 0.210854
C45   C     C_R   0.232888 0.837242 0.674064 -0.142043
C46   C     C_R   0.767718 0.338001 0.326470 -0.204369
C47   C     C_R   0.185996 0.273354 0.881293 0.137547
C48   C     C_R   0.813365 0.772165 0.117944 0.142815
C49   C     C_R   0.135175 0.123993 0.870844 -0.118205
C50   C     C_R   0.864764 0.623936 0.129073 -0.138651
C51   C     C_R   0.135605 0.977744 0.817163 -0.251699
C52   C     C_R   0.864781 0.478588 0.183294 -0.228759
H3    H     H_    0.285684 0.541061 0.885041 0.169637
H4    H     H_    0.712745 0.038226 0.113193 0.172408
H5    H     H_    0.097095 0.864075 0.810051 0.139914
H6    H     H_    0.903881 0.365812 0.191336 0.167628
O11   O     O_R   0.937800 0.775460 0.060470 -0.538599
O12   O     O_R   0.062200 0.275460 0.939530 -0.540430
O13   O     O_R   0.087350 0.441340 0.093710 -0.541380
O14   O     O_R   0.912650 0.941340 0.906290 -0.541050
C53   C     C_R   0.114828 0.610312 0.116169 0.701611
C54   C     C_R   0.885161 0.110351 0.883835 0.698658
O15   O     O_R   0.939820 0.446010 0.069950 -0.543040
O16   O     O_R   0.060180 0.946010 0.930050 -0.543159
O17   O     O_R   0.913690 0.271230 0.915700 -0.539095
O18   O     O_R   0.086310 0.771230 0.084300 -0.538028
C55   C     C_R   0.917136 0.614630 0.083120 0.712846
C56   C     C_R   0.082871 0.114623 0.916885 0.707449
O19   O     O_3   0.991670 0.603050 0.949510 -0.376348
O20   O     O_3   0.008330 0.103050 0.050490 -0.373964
V3    V     V_3+5 0.001550 0.329940 0.009370 1.387555
V4    V     V_3+5 0.998450 0.829940 0.990630 1.386389
H7    H     H_    0.673189 0.413819 0.732793 0.155079
H8    H     H_    0.328023 0.912187 0.264902 0.194841
N1    N     N_3   0.191308 0.420243 0.938977 -0.692286
H9    H     H_    0.145164 0.505308 0.919842 0.248203
H10   H     H_    0.196525 0.360829 0.994839 0.230278
N2    N     N_3   0.807677 0.918098 0.059764 -0.688538
H11   H     H_    0.802826 0.857715 0.004171 0.230394
H12   H     H_    0.853560 0.004078 0.078691 0.249655
N3    N     N_3   0.135850 0.673996 0.705585 -0.666608
H13   H     H_    0.082609 0.724359 0.684618 0.228289
H14   H     H_    0.143870 0.606140 0.760346 0.235850
N4    N     N_3   0.866316 0.177075 0.292803 -0.669157
H15   H     H_    0.861153 0.084980 0.336936 0.233094
H16   H     H_    0.851933 0.100444 0.239427 0.231691
H17   H     H_    0.232379 0.723722 0.632778 0.144180
H18   H     H_    0.768091 0.225592 0.368183 0.122533
H19   H     H_    0.788661 0.402834 0.842407 0.127589
H20   H     H_    0.212260 0.900709 0.155954 0.133671
H21   H     H_    0.779338 0.757459 0.838482 0.146909
H22   H     H_    0.216067 0.248218 0.164697 0.150447
N5    N     N_3   0.647786 0.775304 0.738089 -0.651726
H23   H     H_    0.658020 0.684875 0.787205 0.211169
H24   H     H_    0.603413 0.720510 0.692939 0.256898
N6    N     N_3   0.346532 0.253611 0.260001 -0.672664
H25   H     H_    0.345896 0.356139 0.217146 0.219226
H26   H     H_    0.395673 0.266304 0.306244 0.254522
N7    N     N_3   0.706982 0.660794 0.642492 -0.668689
H27   H     H_    0.662166 0.698679 0.593789 0.246387
H28   H     H_    0.752626 0.679639 0.624138 0.207455
N8    N     N_3   0.290022 0.162178 0.360136 -0.638634
H29   H     H_    0.337821 0.192733 0.406342 0.247228
H30   H     H_    0.247237 0.193525 0.381954 0.207197
H31   H     H_    0.325566 0.884022 0.592941 0.135304
H32   H     H_    0.675078 0.385014 0.407709 0.135138
N9    N     N_3   0.427325 0.447832 0.709987 -0.683217
H33   H     H_    0.479594 0.395084 0.719575 0.234579
H34   H     H_    0.412064 0.536430 0.660054 0.250671
N10   N     N_3   0.571911 0.946283 0.289250 -0.681073
H35   H     H_    0.519786 0.892906 0.279964 0.236793
H36   H     H_    0.587077 0.035523 0.338970 0.250085
H37   H     H_    0.366374 0.550738 0.806841 0.171550
H38   H     H_    0.632225 0.048191 0.191632 0.174019

loop_
_geom_bond_atom_site_label_1
_geom_bond_atom_site_label_2
_ccdc_geom_bond_type
C18   C20   S    
C9    H7    S    
C15   C17   S    
C27   C29   A    
C21   H31   S    
N3    H13   S    
O1    C3    A    
C54   O17   A    
O2    C4    A    
C2    O7    A    
C49   C51   A    
O12   V3    S    
C33   C35   A    
O5    C3    A    
O14   C54   A    
C7    C9    A    
C12   C14   A    
C42   C52   A    
C43   C45   A    
C44   C46   A    
C17   H1    S    
N8    H29   S    
C47   C49   A    
N6    H25   S    
C48   C50   A    
C29   C39   A    
C11   H19   S    
C47   N1    S    
C35   C37   A    
C48   N2    S    
C36   C38   A    
N5    H23   S    
C22   C32   A    
C10   H8    S    
N1    H10   S    
C53   O18   A    
C32   C46   A    
O16   V4    S    
C34   C36   A    
O15   V3    S    
O6    V2    S    
C1    C24   S    
C18   H22   S    
N5    H24   S    
C17   H21   S    
C28   C30   A    
C46   H18   S    
C41   C51   A    
C38   C40   A    
C39   C41   A    
C26   N10   S    
C40   C42   A    
C3    C8    S    
C18   H2    S    
C49   C56   S    
C5    C15   A    
C6    C16   A    
O20   V3    S    
O4    C2    A    
C30   C32   A    
C20   N8    S    
N7    H28   S    
C37   C39   A    
C45   H17   S    
O4    V2    S    
C34   H38   S    
O11   V4    S    
O16   C56   A    
O15   C55   A    
O6    C4    A    
N2    H12   S    
C14   C53   S    
C27   C33   A    
C2    C23   S    
O1    V2    S    
C28   C34   A    
O14   V4    S    
O2    V1    S    
C29   C31   A    
O13   V3    S    
N9    H33   S    
C20   N6    S    
N8    H30   S    
O19   V3    S    
C8    C10   A    
N4    H16   S    
C41   C43   A    
C5    C19   S    
C10   C12   A    
C6    C20   S    
O13   C53   A    
C22   C24   A    
C21   C31   A    
O17   V3    S    
O3    V1    S    
N10   H36   S    
N7    H27   S    
C31   C45   A    
C35   H3    S    
C21   C23   A    
C19   N5    S    
O20   V4    S    
C26   C28   A    
O3    C1    A    
N3    H14   S    
C33   H37   S    
C44   N4    S    
C13   C15   A    
C14   C16   A    
C25   N9    S    
C13   C54   S    
C9    C11   A    
O7    V1    S    
C16   C18   S    
C17   C19   S    
O8    V2    S    
C24   C26   A    
C37   C47   A    
C52   H6    S    
C51   H5    S    
C4    C7    S    
O5    V1    S    
N2    H11   S    
C5    C7    A    
C42   C44   A    
C6    C8    A    
C11   C13   A    
C22   H32   S    
N6    H26   S    
C50   C55   S    
N9    H34   S    
C30   C40   A    
O18   V4    S    
C1    O8    A    
O19   V4    S    
C25   C27   A    
C23   C25   A    
N4    H15   S    
C43   N3    S    
O9    V2    S    
O10   V1    S    
C38   C48   A    
C12   H20   S    
N1    H9    S    
C36   H4    S    
C19   N7    S    
O12   C56   A    
C50   C52   A    
N10   H35   S    
O11   C55   A    
