data_mof_unit_18733.cif
_audit_creation_date              2013-03-05T15:45:42-0500
_audit_creation_method            fapswitch 2.2
_symmetry_space_group_name_H-M    P1
_symmetry_Int_Tables_number       1
_space_group_crystal_system       triclinic
_cell_length_a                    6.999775
_cell_length_b                    16.717363
_cell_length_c                    16.92514
_cell_angle_alpha                 101.21248
_cell_angle_beta                  90.7578
_cell_angle_gamma                 90.561324
_cell_volume                      1942.41496537

loop_
_atom_site_label
_atom_site_type_symbol
_atom_site_description
_atom_site_fract_x
_atom_site_fract_y
_atom_site_fract_z
_atom_type_partial_charge
O1    O     O_R   0.506340 0.439070 0.579550 -0.619641
O2    O     O_R   0.170010 0.404890 0.412100 -0.563830
O3    O     O_R   0.005010 0.560930 0.420450 -0.582040
C1    C     C_R   0.338947 0.381174 0.383746 1.141689
O4    O     O_R   0.176280 0.429360 0.578400 -0.560442
O5    O     O_R   0.011320 0.585570 0.587940 -0.589429
C2    C     C_R   0.345571 0.410594 0.601926 1.073202
O6    O     O_R   0.500030 0.414430 0.412060 -0.589884
O7    O     O_3   0.340950 0.551220 0.502940 -0.275734
V1    V     V_3+5 0.064020 0.490500 0.499460 1.291962
O8    O     O_R   0.681910 0.595110 0.587900 -0.608199
C3    C     C_R   0.852416 0.616370 0.617541 1.114623
O9    O     O_R   0.675640 0.570640 0.421600 -0.555926
C4    C     C_R   0.842802 0.584364 0.393455 1.132589
V2    V     V_3+5 0.564670 0.509500 0.500540 1.280566
O10   O     O_3   0.837610 0.448780 0.497060 -0.295513
C5    C     C_R   0.916371 0.862603 0.167391 -0.280442
C6    C     C_R   0.846421 0.634222 0.329083 -0.441626
C7    C     C_R   0.788673 0.650349 0.190386 -0.164059
C8    C     C_R   0.781683 0.601450 0.249153 0.345984
C9    C     C_R   0.912935 0.716275 0.347924 0.293710
C10   C     C_R   0.914869 0.765316 0.287901 -0.002660
C11   C     C_R   0.851396 0.731940 0.208432 -0.049446
C12   C     C_R   0.853018 0.780668 0.148134 0.340245
C13   C     C_R   0.978486 0.895059 0.246147 -0.124902
C14   C     C_R   0.976526 0.847554 0.305702 -0.033015
H1    H     H_    0.028173 0.957813 0.261772 0.179503
H2    H     H_    0.740724 0.624095 0.129828 0.217122
H3    H     H_    0.023603 0.876041 0.365808 0.191737
C15   C     C_3   0.777104 0.808540 0.734736 0.510364
C16   C     C_3   0.941722 0.770671 0.682691 -0.341089
H4    H     H_    0.993130 0.790543 0.627794 0.261761
C17   C     C_3   0.869504 0.684735 0.688848 -0.411583
C18   C     C_3   0.699855 0.721863 0.739687 -0.060589
C19   C     C_3   0.823430 0.725482 0.818040 -0.215880
C20   C     C_3   0.991172 0.688732 0.765484 0.270688
C21   C     C_3   0.060992 0.774420 0.760396 0.403681
C22   C     C_3   0.896403 0.812435 0.812076 -0.430141
H5    H     H_    0.560108 0.689694 0.733643 0.193320
H6    H     H_    0.770951 0.704929 0.872342 0.248441
C23   C     C_3   0.554672 0.280594 0.279141 -0.131153
C24   C     C_3   0.487173 0.191613 0.273877 0.602114
H7    H     H_    0.695817 0.304652 0.304002 0.212697
C25   C     C_3   0.412109 0.188370 0.187751 -0.351766
C26   C     C_3   0.478081 0.277530 0.191838 -0.258025
C27   C     C_3   0.282803 0.306645 0.227085 0.552704
C28   C     C_3   0.214787 0.217786 0.222085 -0.246861
C29   C     C_3   0.291651 0.220742 0.309284 -0.195707
C30   C     C_3   0.356660 0.310096 0.313354 -0.343029
H8    H     H_    0.554552 0.301533 0.144154 0.203580
H9    H     H_    0.072755 0.193451 0.198414 0.215819
H10   H     H_    0.213941 0.195616 0.355834 0.248510
C31   C     C_R   0.409899 0.136603 0.832290 -0.146260
C32   C     C_R   0.356128 0.358510 0.663612 -0.320180
C33   C     C_R   0.427180 0.352043 0.803737 -0.132183
C34   C     C_R   0.410215 0.396486 0.742229 -0.120633
C35   C     C_R   0.321121 0.272630 0.645984 0.390824
C36   C     C_R   0.359393 0.226560 0.707226 -0.003126
C37   C     C_R   0.403399 0.267200 0.787222 0.148746
C38   C     C_R   0.425222 0.222147 0.849434 -0.213379
C39   C     C_R   0.382547 0.096892 0.752378 -0.080110
C40   C     C_R   0.359409 0.140579 0.690863 -0.037879
H11   H     H_    0.452811 0.253436 0.910947 0.120021
H12   H     H_    0.380738 0.031497 0.736621 0.221944
H13   H     H_    0.464156 0.384007 0.864103 0.162794
H14   H     H_    0.346897 0.105381 0.630422 0.217789
H15   H     H_    0.437096 0.461692 0.756435 0.181648
O11   O     O_R   0.266070 0.085680 0.087850 -0.612898
O12   O     O_R   0.590090 0.070660 0.921580 -0.578648
O13   O     O_R   0.754780 0.914400 0.912080 -0.552817
C41   C     C_R   0.420825 0.087746 0.896457 0.989297
O14   O     O_R   0.596110 0.095130 0.087880 -0.579194
O15   O     O_R   0.760850 0.939050 0.079570 -0.574313
C42   C     C_R   0.427660 0.118250 0.116658 1.018160
O16   O     O_R   0.260010 0.061030 0.920360 -0.588389
O17   O     O_3   0.425070 0.948840 0.997010 -0.235048
V3    V     V_3+5 0.702100 0.009490 0.000550 1.304344
O18   O     O_R   0.090200 0.929250 0.078500 -0.589018
C43   C     C_R   0.922468 0.914350 0.105361 1.043360
O19   O     O_R   0.084180 0.904770 0.912200 -0.544561
C44   C     C_R   0.913549 0.882209 0.883211 1.131068
V4    V     V_3+5 0.201420 0.990350 0.999580 1.311754
O20   O     O_3   0.928580 0.051150 0.002990 -0.302080
N1    N     N_R   0.800055 0.746250 0.066491 0.211292
O21   O     O_R   0.622336 0.727846 0.047102 -0.360499
O22   O     O_R   0.927608 0.739726 0.010515 -0.406140
N2    N     N_R   0.113061 0.625357 0.785876 0.240792
O23   O     O_R   0.213332 0.639629 0.852455 -0.311233
O24   O     O_R   0.111156 0.552675 0.741309 -0.439614
S1    S     S_3+6 0.286175 0.817479 0.758436 -0.006601
O25   O     O_2   0.263839 0.907495 0.765083 -0.277678
O26   O     O_2   0.403842 0.801290 0.828310 -0.273515
O27   O     O_3   0.375185 0.777225 0.667503 -0.493932
H16   H     H_    0.319069 0.721663 0.651824 0.326115
S2    S     S_3+6 0.631973 0.116215 0.305517 -0.022260
O28   O     O_2   0.511552 0.042242 0.309509 -0.266633
O29   O     O_2   0.789618 0.093095 0.246329 -0.356858
O30   O     O_3   0.727408 0.154417 0.396879 -0.474772
H17   H     H_    0.818075 0.112513 0.407574 0.401371
S3    S     S_3+6 0.139171 0.380986 0.193738 0.011708
O31   O     O_2   0.940223 0.373090 0.223269 -0.260673
O32   O     O_2   0.215665 0.465268 0.226986 -0.259228
O33   O     O_3   0.134806 0.364534 0.092541 -0.482595
H18   H     H_    0.268640 0.373028 0.077354 0.345664
S4    S     S_3+6 0.229604 0.221970 0.549659 -0.059832
O34   O     O_2   0.393883 0.184345 0.500178 -0.231311
O35   O     O_2   0.091299 0.155291 0.559557 -0.286995
O36   O     O_3   0.114021 0.283592 0.498527 -0.552924
H19   H     H_    0.982415 0.287103 0.519670 0.378509
N3    N     N_R   0.709832 0.518865 0.225154 0.269628
O37   O     O_R   0.708809 0.483258 0.149540 -0.317977
O38   O     O_R   0.625443 0.481826 0.276008 -0.381845
N4    N     N_R   0.970044 0.750593 0.429162 0.220140
O39   O     O_R   0.846290 0.756468 0.486565 -0.394784
O40   O     O_R   0.147568 0.771284 0.446513 -0.354184
N5    N     N_R   0.682675 0.878489 0.712005 0.292921
O41   O     O_R   0.647390 0.878096 0.636250 -0.259049
O42   O     O_R   0.679603 0.947653 0.762652 -0.402039

loop_
_geom_bond_atom_site_label_1
_geom_bond_atom_site_label_2
_geom_bond_distance
_ccdc_geom_bond_type
C36   C40   1.409931 A    
C35   S4    1.791743 S    
N2    O23   1.300231 A    
O14   C42   1.314471 A    
O27   H16   0.990809 S    
C33   C37   1.399114 A    
C6    C9    1.418974 A    
C23   C24   1.541916 S    
C4    C6    1.495273 S    
O12   V3    1.991585 S    
S2    O28   1.502643 D    
C1    O6    1.296107 A    
C35   C36   1.430546 A    
S2    O30   1.680924 S    
C15   N5    1.461411 S    
C26   C27   1.543660 S    
N5    O41   1.301280 A    
S4    O35   1.504532 D    
C27   C30   1.532717 S    
C21   C22   1.523507 S    
C21   S1    1.729791 S    
C38   H11   1.084310 S    
C20   C21   1.527623 S    
N1    O22   1.300291 A    
O5    C3    1.295742 A    
C15   C16   1.526021 S    
V3    O20   1.722031 S    
O11   C42   1.297567 A    
V2    O10   2.168331 S    
C5    C43   1.485280 S    
C17   C20   1.532360 S    
O36   H19   0.990827 S    
C15   C22   1.533589 S    
C18   C19   1.564591 S    
O12   C41   1.306412 A    
O13   C44   1.298951 A    
N3    O37   1.302145 A    
C31   C39   1.395758 A    
C18   H5    1.105520 S    
C19   C20   1.541605 S    
C11   C12   1.424322 A    
C16   C17   1.541313 S    
O1    V2    1.989616 S    
O7    V1    2.174076 S    
C25   C28   1.552631 S    
C37   C38   1.416212 A    
O9    C4    1.304095 A    
O13   V3    2.001371 S    
C23   H7    1.109202 S    
C24   C25   1.533731 S    
C23   C30   1.556669 S    
C33   H13   1.083677 S    
C31   C38   1.405572 A    
C20   N2    1.456591 S    
S4    O36   1.676077 S    
C32   C34   1.403691 A    
C5    C12   1.410575 A    
C15   C18   1.559524 S    
C24   S2    1.782123 S    
C19   C22   1.558209 S    
O17   V3    2.174091 S    
O19   V4    2.007373 S    
O17   V4    1.716269 S    
O4    C2    1.305595 A    
C40   H14   1.078383 S    
O18   C43   1.303701 A    
C28   H9    1.110223 S    
C13   C14   1.399418 A    
S3    O33   1.680900 S    
C16   C21   1.538989 S    
C39   H12   1.073633 S    
O2    C1    1.317587 A    
O14   V3    2.002919 S    
O18   V4    1.994018 S    
S1    O26   1.501104 D    
C28   C29   1.555688 S    
C33   C34   1.396116 A    
S3    O32   1.502484 D    
C17   C18   1.539343 S    
O15   C43   1.306544 A    
C24   C29   1.546163 S    
N1    O21   1.300890 A    
C25   C42   1.513673 S    
C7    H2    1.081150 S    
O3    C4    1.309965 A    
C8    N3    1.444624 S    
C9    N4    1.433075 S    
C29   C30   1.545640 S    
O30   H17   0.990586 S    
O6    V2    2.003914 S    
O8    V2    2.007453 S    
N2    O24   1.299419 A    
C22   C44   1.507251 S    
O2    V1    2.002938 S    
C25   C26   1.544433 S    
C7    C11   1.403287 A    
S1    O27   1.685384 S    
N4    O39   1.300296 A    
C27   S3    1.776550 S    
C27   C28   1.541654 S    
C23   C26   1.556424 S    
O1    C2    1.306656 A    
C16   H4    1.108913 S    
O19   C44   1.308905 A    
O5    V1    2.001281 S    
O8    C3    1.307270 A    
S2    O29   1.502532 D    
O16   V4    1.995814 S    
C13   H1    1.083506 S    
C34   H15   1.083665 S    
S4    O34   1.501360 D    
C1    C30   1.517550 S    
O11   V4    2.004645 S    
C7    C8    1.405937 A    
O9    V2    1.994019 S    
C19   H6    1.107677 S    
C36   C37   1.420136 A    
C5    C13   1.399631 A    
O4    V1    1.991553 S    
O3    V1    1.988060 S    
V1    O10   1.722022 S    
C41   O16   1.304887 A    
S1    O25   1.496956 D    
C26   H8    1.109980 S    
S3    O31   1.499004 D    
N5    O42   1.299109 A    
C6    C8    1.423482 A    
C12   N1    1.432116 S    
C39   C40   1.391840 A    
N3    O38   1.298727 A    
C29   H10   1.108432 S    
C14   H3    1.081629 S    
V4    O20   2.168404 S    
C10   C14   1.411014 A    
O33   H18   0.990855 S    
O15   V3    1.987941 S    
C10   C11   1.416084 A    
C2    C32   1.485375 S    
C3    C17   1.494709 S    
C9    C10   1.424223 A    
O7    V2    1.718276 S    
N4    O40   1.300931 A    
C32   C35   1.426481 A    
C31   C41   1.482033 S    
