data_mof_unit_9860.cif
_audit_creation_date              2012-12-10T17:02:04-0500
_audit_creation_method            fapswitch 2.2
_symmetry_space_group_name_H-M    P1
_symmetry_Int_Tables_number       1
_space_group_crystal_system       triclinic
_cell_length_a                    10.769291
_cell_length_b                    11.069586
_cell_length_c                    10.055635
_cell_angle_alpha                 112.201135
_cell_angle_beta                  99.141215
_cell_angle_gamma                 91.74471
_cell_volume                      1090.40042786

loop_
_atom_site_label
_atom_site_type_symbol
_atom_type_description
_atom_site_fract_x
_atom_site_fract_y
_atom_site_fract_z
_atom_type_partial_charge
C1    C     C_R   0.490766 0.253937 0.439565 0.899183
C2    C     C_R   0.083791 0.621846 0.596610 -0.024139
C3    C     C_R   0.129291 0.508059 0.501860 -0.135835
C4    C     C_R   0.045687 0.398821 0.406884 0.373702
C5    C     C_R   0.917624 0.401086 0.407524 -0.211510
C6    C     C_R   0.871368 0.510357 0.502703 -0.107282
C7    C     C_2   0.485451 0.113148 0.405591 -0.302316
C8    C     C_2   0.505182 0.071598 0.515337 -0.126330
C9    C     C_2   0.516575 0.888678 0.598353 0.005395
C10   C     C_2   0.499396 0.932208 0.488781 -0.106306
C11   C     C_2   0.510512 0.509940 0.081141 0.415886
C12   C     C_R   0.263107 0.501927 0.500437 0.865116
C13   C     C_2   0.489503 0.490037 0.918863 0.417193
C14   C     C_R   0.509690 0.746488 0.560947 0.815285
C15   C     C_R   0.737088 0.503282 0.500920 0.803296
C16   C     C_R   0.165097 0.735447 0.688373 -0.229629
C17   C     C_R   0.118513 0.846908 0.780345 0.452857
C18   C     C_R   0.987851 0.848556 0.779825 0.135885
C19   C     C_R   0.906357 0.737360 0.687208 -0.221436
C20   C     C_R   0.952861 0.622911 0.596708 0.072504
Cu1   Cu    Cu3+1 0.521920 0.521810 0.644910 1.004782
Cu2   Cu    Cu3+1 0.478080 0.478190 0.355090 1.027871
H1    H     H_    0.465199 0.044090 0.292363 0.175884
H2    H     H_    0.265566 0.739945 0.688952 0.175549
H3    H     H_    0.805978 0.742396 0.685614 0.154830
H4    H     H_    0.853716 0.315637 0.335598 0.174288
H5    H     H_    0.480092 0.863398 0.375412 0.191044
H6    H     H_    0.525876 0.142388 0.627343 0.216402
N1    N     N_2   0.445130 0.445430 0.137370 -0.198559
N2    N     N_2   0.554930 0.554500 0.862630 -0.170330
O1    O     O_R   0.511700 0.332330 0.577400 -0.531274
O2    O     O_R   0.474680 0.295500 0.332650 -0.576320
O3    O     O_R   0.338160 0.518420 0.622400 -0.520429
O4    O     O_R   0.301140 0.481590 0.377650 -0.565416
O5    O     O_R   0.525320 0.704500 0.667350 -0.602814
O6    O     O_R   0.488300 0.667670 0.422600 -0.540168
O7    O     O_R   0.698860 0.518410 0.622350 -0.596995
O8    O     O_R   0.661840 0.481580 0.377600 -0.515215
Cl1   Cl    Cl    0.098367 0.254048 0.289911 -0.604434
Cl2   Cl    Cl    0.368540 0.373124 0.792470 -0.621063
Cl3   Cl    Cl    0.631210 0.627153 0.207580 -0.650173
C21   C     C_3   0.656034 0.657778 0.943314 -0.479374
H7    H     H_    0.691427 0.695631 0.867732 0.211286
H8    H     H_    0.620540 0.742710 0.024019 0.209011
H9    H     H_    0.738022 0.618911 0.990267 0.222346
C22   C     C_3   0.344764 0.341465 0.056403 -0.391281
H10   H     H_    0.309718 0.303185 0.131831 0.265055
H11   H     H_    0.262338 0.379724 0.009386 0.218313
H12   H     H_    0.380943 0.257137 0.975692 0.221281
Cl4   Cl    Cl    0.227976 0.982377 0.892825 -0.649584
C23   C     C_3   0.930907 0.966213 0.873982 -0.733533
H13   H     H_    0.002271 0.048838 0.944889 0.302709
H14   H     H_    0.864756 0.001453 0.803157 0.218201
H15   H     H_    0.877465 0.938078 0.945426 0.224110
C24   C     C_3   0.542805 0.982157 0.757709 -0.814407
H16   H     H_    0.553735 0.930442 0.833609 0.255283
H17   H     H_    0.631738 0.046043 0.781583 0.221898
H18   H     H_    0.463328 0.043736 0.781829 0.279706

loop_
_geom_bond_atom_site_label_1
_geom_bond_atom_site_label_2
_ccdc_geom_bond_type
C17   Cl4   S    
C10   H5    S    
C9    C14   S    
C21   H8    S    
C15   O8    A    
Cu1   O5    S    
Cu2   N1    S    
C2    C16   A    
C11   C13   S    
C9    C10   D    
C19   C20   A    
C7    H1    S    
C4    Cl1   S    
N1    C22   S    
C24   H16   S    
C23   H15   S    
C17   C18   A    
C6    C15   S    
C7    C8    D    
C16   H2    S    
Cu1   Cu2   S    
Cu1   O1    S    
C22   H12   S    
C23   H13   S    
Cu2   O2    S    
C6    C20   A    
N2    C21   S    
C9    C24   S    
C4    C5    A    
C18   C23   S    
C11   Cl3   S    
C2    C3    A    
C24   H17   S    
C14   O6    A    
C5    C6    A    
Cu2   O4    S    
C22   H11   S    
Cu1   O3    S    
C21   H7    S    
C19   H3    S    
C12   O4    A    
C5    H4    S    
Cu2   O8    S    
C13   N2    D    
C1    O1    A    
Cu1   O7    S    
C11   N1    D    
C8    H6    S    
C8    C10   S    
C18   C19   A    
Cu1   N2    S    
C24   H18   S    
C14   O5    A    
C22   H10   S    
C15   O7    A    
C13   Cl2   S    
C3    C12   S    
C12   O3    A    
C1    C7    S    
C2    C20   A    
C1    O2    A    
Cu2   O6    S    
C3    C4    A    
C16   C17   A    
C23   H14   S    
C21   H9    S    
