data_mof_unit_47897.cif
_audit_creation_date              2012-12-10T20:34:50-0500
_audit_creation_method            fapswitch 2.2
_symmetry_space_group_name_H-M    P1
_symmetry_Int_Tables_number       1
_space_group_crystal_system       triclinic
_cell_length_a                    10.662122
_cell_length_b                    10.691401
_cell_length_c                    9.870929
_cell_angle_alpha                 89.582375
_cell_angle_beta                  90.062054
_cell_angle_gamma                 89.721215
_cell_volume                      1125.17311101

loop_
_atom_site_label
_atom_site_type_symbol
_atom_type_description
_atom_site_fract_x
_atom_site_fract_y
_atom_site_fract_z
_atom_type_partial_charge
C1    C     C_R   0.501647 0.259793 0.500217 0.926992
C2    C     C_3   0.878997 0.499340 0.502237 -0.024023
C3    C     C_3   0.929468 0.511983 0.649374 -0.353878
C4    C     C_3   0.927627 0.613274 0.415946 -0.220384
C5    C     C_R   0.525637 0.062202 0.622053 0.239294
C6    C     C_R   0.520171 0.128057 0.500054 -0.088834
C7    C     C_R   0.540186 0.065265 0.377432 -0.167651
C8    C     C_R   0.541174 0.935970 0.376948 -0.198621
C9    C     C_R   0.522250 0.871131 0.499096 -0.118424
C10   C     C_R   0.526437 0.934648 0.621454 0.156598
C11   C     C_3   0.442457 0.925589 0.742116 -0.490329
C12   C     C_R   0.257765 0.501701 0.500039 0.852842
C13   C     C_3   0.441872 0.067231 0.743123 -0.531032
C14   C     C_R   0.392374 0.476692 0.071527 0.215187
C15   C     C_R   0.603613 0.534035 0.071720 -0.132523
C16   C     C_R   0.603654 0.533937 0.927865 -0.116356
C17   C     C_R   0.392100 0.477216 0.929003 0.203495
C18   C     C_3   0.316141 0.360658 0.925318 -0.501538
C19   C     C_3   0.317034 0.360125 0.078812 -0.494787
C20   C     C_R   0.503502 0.739912 0.499526 0.878996
C21   C     C_R   0.742273 0.499041 0.500485 0.915384
C22   C     C_3   0.074190 0.384123 0.426159 -0.449700
C23   C     C_3   0.930519 0.374680 0.439581 0.293156
C24   C     C_3   0.071627 0.503250 0.648111 -0.383284
C25   C     C_3   0.071939 0.619686 0.424922 -0.434649
C26   C     C_3   0.121530 0.502177 0.500054 0.095996
H1    H     H_    0.123242 0.299352 0.465449 0.190903
H2    H     H_    0.110626 0.583674 0.705316 0.172034
H3    H     H_    0.900093 0.603163 0.693225 0.166514
H4    H     H_    0.546621 0.114849 0.281606 0.169977
H5    H     H_    0.548117 0.887941 0.280969 0.171883
H6    H     H_    0.349410 0.884720 0.717867 0.203824
H7    H     H_    0.490962 0.883329 0.831222 0.216142
H8    H     H_    0.348331 0.108735 0.719943 0.199121
H9    H     H_    0.490914 0.106066 0.832755 0.221041
H10   H     H_    0.687921 0.559768 0.125499 0.146216
H11   H     H_    0.098449 0.390495 0.316888 0.143031
H12   H     H_    0.687987 0.559538 0.873861 0.146210
H13   H     H_    0.221184 0.376837 0.883050 0.201229
H14   H     H_    0.368191 0.281322 0.880756 0.215541
H15   H     H_    0.222782 0.376748 0.122815 0.196143
H16   H     H_    0.369994 0.280111 0.123792 0.214500
H17   H     H_    0.890524 0.364631 0.335976 0.085903
H18   H     H_    0.100877 0.415763 0.700590 0.218052
H19   H     H_    0.891724 0.437832 0.717393 0.241124
H20   H     H_    0.104023 0.704782 0.479409 0.176871
H21   H     H_    0.111314 0.625225 0.320605 0.175101
H22   H     H_    0.901209 0.598981 0.308013 0.135993
N1    N     N_R   0.499150 0.499140 0.142800 -0.108799
N2    N     N_R   0.499150 0.499180 0.857150 -0.106976
O1    O     O_R   0.500020 0.316790 0.614690 -0.592364
O2    O     O_R   0.500000 0.316760 0.385350 -0.628225
O3    O     O_R   0.314800 0.500000 0.614670 -0.634888
O4    O     O_R   0.314790 0.499960 0.385330 -0.626538
O5    O     O_R   0.500000 0.683240 0.614650 -0.621138
O6    O     O_R   0.499980 0.683210 0.385310 -0.624843
O7    O     O_R   0.685210 0.500040 0.614670 -0.605854
O8    O     O_R   0.685200 0.500000 0.385330 -0.647250
Zn1   Zn    Zn3+2 0.500010 0.500020 0.653130 0.967419
Zn2   Zn    Zn3+2 0.499990 0.499980 0.346870 0.947865
C27   C     C_1   0.871836 0.734020 0.457551 0.173803
N3    N     N_1   0.828650 0.828552 0.490322 -0.141094
S1    S     S_3+6 0.889654 0.233198 0.532150 -0.007999
O9    O     O_2   0.765318 0.246001 0.601456 -0.296626
O10   O     O_2   0.882107 0.126993 0.433480 -0.312932
O11   O     O_3   0.997997 0.199120 0.651353 -0.576073
H23   H     H_    0.045897 0.126731 0.616134 0.363235

loop_
_geom_bond_atom_site_label_1
_geom_bond_atom_site_label_2
_ccdc_geom_bond_type
C17   N2    A    
C8    C9    A    
C2    C4    S    
C18   H13   S    
S1    O10   D    
C21   O7    A    
C6    C7    A    
O5    Zn1   S    
C11   C13   S    
C9    C10   A    
C25   H21   S    
C9    C20   S    
C5    C13   S    
C12   O3    A    
C19   H16   S    
C20   O6    A    
C2    C21   S    
C23   S1    S    
C17   C18   S    
O3    Zn1   S    
S1    O11   S    
C19   H15   S    
C21   O8    A    
C7    H4    S    
O4    Zn2   S    
C1    O1    A    
C14   C17   A    
C3    C24   S    
C5    C6    A    
N1    Zn2   S    
C20   O5    A    
N2    Zn1   S    
C25   H20   S    
C5    C10   A    
C8    H5    S    
C16   N2    A    
C11   H6    S    
O11   H23   S    
C2    C3    S    
C22   H1    S    
C15   N1    A    
C22   C26   S    
C27   N3    T    
C24   H18   S    
C1    O2    A    
O7    Zn1   S    
C14   N1    A    
O1    Zn1   S    
C10   C11   S    
O8    Zn2   S    
C15   C16   A    
C4    C25   S    
C15   H10   S    
C11   H7    S    
C23   H17   S    
C24   H2    S    
O2    Zn2   S    
C18   C19   S    
C4    H22   S    
C12   C26   S    
C2    C23   S    
C3    H3    S    
C7    C8    A    
C18   H14   S    
C22   C23   S    
C14   C19   S    
C13   H8    S    
C1    C6    S    
C16   H12   S    
C25   C26   S    
C22   H11   S    
C4    C27   S    
C3    H19   S    
C13   H9    S    
C12   O4    A    
O6    Zn2   S    
C24   C26   S    
S1    O9    D    
