data_mof_unit_40424.cif
_audit_creation_date              2012-12-10T18:45:04-0500
_audit_creation_method            fapswitch 2.2
_symmetry_space_group_name_H-M    P1
_symmetry_Int_Tables_number       1
_space_group_crystal_system       triclinic
_cell_length_a                    10.6572
_cell_length_b                    9.892774
_cell_length_c                    10.670844
_cell_angle_alpha                 89.331818
_cell_angle_beta                  91.172443
_cell_angle_gamma                 90.382981
_cell_volume                      1124.68390888

loop_
_atom_site_label
_atom_site_type_symbol
_atom_type_description
_atom_site_fract_x
_atom_site_fract_y
_atom_site_fract_z
_atom_type_partial_charge
C1    C     C_R   0.260348 0.499475 0.496235 0.882532
C2    C     C_R   0.739764 0.500455 0.498811 0.945991
C3    C     C_R   0.932647 0.590815 0.410852 0.434935
C4    C     C_R   0.063094 0.586333 0.404898 0.330912
C5    C     C_R   0.568528 0.069659 0.588787 0.280878
C6    C     C_R   0.431215 0.070915 0.411441 0.272254
C7    C     C_R   0.567822 0.925265 0.588564 0.419194
C8    C     C_R   0.431841 0.926522 0.411734 0.412747
C9    C     C_R   0.511689 0.501732 0.260129 0.905073
C10   C     C_R   0.486419 0.499554 0.739186 0.923708
C11   C     C_R   0.548411 0.759054 0.102817 0.523411
C12   C     C_R   0.398271 0.739028 0.884541 0.503687
C13   C     C_R   0.501125 0.876126 0.043120 -0.293034
C14   C     C_R   0.420969 0.865556 0.939262 -0.276115
C15   C     C_R   0.457702 0.622723 0.936974 -0.022180
C16   C     C_R   0.511145 0.629962 0.057395 -0.028854
C17   C     C_R   0.523338 0.506341 0.125788 -0.061561
C18   C     C_R   0.470924 0.499470 0.872681 -0.068806
C19   C     C_R   0.519197 0.382398 0.064298 -0.198085
C20   C     C_R   0.498295 0.379553 0.937539 -0.216719
C21   C     C_R   0.065608 0.408449 0.567415 -0.192156
C22   C     C_R   0.937394 0.409410 0.569329 -0.259220
C23   C     C_R   0.872241 0.501386 0.493356 -0.140927
C24   C     C_R   0.127847 0.497769 0.487845 -0.166228
H1    H     H_    0.532204 0.287135 0.113921 0.193239
H2    H     H_    0.505343 0.283502 0.890456 0.199852
H3    H     H_    0.525003 0.975556 0.078136 0.169531
H4    H     H_    0.379808 0.956441 0.899125 0.163358
H5    H     H_    0.116508 0.340221 0.630064 0.182408
H6    H     H_    0.888961 0.340905 0.632284 0.186505
N1    N     N_R   0.500000 0.857200 0.500000 -0.153859
N2    N     N_R   0.500000 0.142810 0.500000 -0.205171
O1    O     O_R   0.316770 0.614620 0.499990 -0.547426
O2    O     O_R   0.683230 0.614620 0.500010 -0.523542
O3    O     O_R   0.316800 0.385290 0.500000 -0.657298
O4    O     O_R   0.683200 0.385290 0.500000 -0.663498
O5    O     O_R   0.500010 0.614690 0.316770 -0.531871
O6    O     O_R   0.499990 0.614690 0.683230 -0.535723
O7    O     O_R   0.500040 0.385360 0.316770 -0.644712
O8    O     O_R   0.499960 0.385360 0.683230 -0.652578
Zn1   Zn    Zn3+2 0.500000 0.653120 0.500000 1.102457
Zn2   Zn    Zn3+2 0.500000 0.346880 0.500000 0.946634
O9    O     O_3   0.639270 0.768990 0.196519 -0.698181
H7    H     H_    0.654350 0.865644 0.215861 0.329903
O10   O     O_3   0.313388 0.725582 0.785675 -0.751426
H8    H     H_    0.281512 0.816150 0.760751 0.330863
O11   O     O_3   0.861269 0.675503 0.334213 -0.713958
H9    H     H_    0.916416 0.735305 0.284345 0.390028
O12   O     O_3   0.123301 0.665929 0.316935 -0.747487
H10   H     H_    0.203553 0.623084 0.295187 0.352351
O13   O     O_3   0.639303 0.132520 0.680537 -0.788547
H11   H     H_    0.654819 0.226053 0.654196 0.394434
O14   O     O_3   0.360434 0.135200 0.319804 -0.778222
H12   H     H_    0.341405 0.226292 0.348415 0.398779
O15   O     O_3   0.636429 0.849818 0.675051 -0.709815
H13   H     H_    0.679058 0.909765 0.736265 0.371657
O16   O     O_3   0.362673 0.852223 0.325799 -0.700148
H14   H     H_    0.317217 0.913098 0.266668 0.380027

loop_
_geom_bond_atom_site_label_1
_geom_bond_atom_site_label_2
_ccdc_geom_bond_type
C10   O6    A    
C15   C18   A    
C6    N2    A    
O9    H7    S    
C11   O9    S    
C8    O16   S    
C22   H6    S    
C11   C16   A    
C3    C23   A    
C19   C20   A    
C12   C15   A    
C7    O15   S    
C4    O12   S    
O15   H13   S    
C5    N2    A    
O1    Zn1   S    
C21   C22   A    
C2    O2    A    
O8    Zn2   S    
C1    O1    A    
O14   H12   S    
C11   C13   A    
O16   H14   S    
C16   C17   A    
O2    Zn1   S    
C20   H2    S    
C10   C18   S    
O6    Zn1   S    
C4    C24   A    
C3    O11   S    
C17   C19   A    
C12   C14   A    
O12   H10   S    
O7    Zn2   S    
C18   C20   A    
O5    Zn1   S    
C19   H1    S    
C21   H5    S    
C7    N1    A    
C6    O14   S    
C2    O4    A    
O13   H11   S    
O11   H9    S    
O10   H8    S    
C9    O7    A    
C1    O3    A    
C1    C24   S    
C10   O8    A    
C9    O5    A    
C21   C24   A    
C9    C17   S    
C2    C23   S    
C5    C7    A    
O3    Zn2   S    
N2    Zn2   S    
C22   C23   A    
C5    O13   S    
C6    C8    A    
N1    Zn1   S    
C14   H4    S    
C13   C14   A    
C8    N1    A    
O4    Zn2   S    
C13   H3    S    
C3    C4    A    
C15   C16   A    
C12   O10   S    
