data_mof_unit_15032.cif
_audit_creation_date              2012-12-10T19:07:34-0500
_audit_creation_method            fapswitch 2.2
_symmetry_space_group_name_H-M    P1
_symmetry_Int_Tables_number       1
_space_group_crystal_system       triclinic
_cell_length_a                    10.773683
_cell_length_b                    10.817179
_cell_length_c                    9.587801
_cell_angle_alpha                 90.612148
_cell_angle_beta                  89.695253
_cell_angle_gamma                 90.832419
_cell_volume                      1117.17396316

loop_
_atom_site_label
_atom_site_type_symbol
_atom_type_description
_atom_site_fract_x
_atom_site_fract_y
_atom_site_fract_z
_atom_type_partial_charge
C1    C     C_R   0.492002 0.262535 0.499322 0.792337
C2    C     C_R   0.937359 0.559796 0.603743 0.099176
C3    C     C_3   0.935977 0.695411 0.637050 -0.570145
C4    C     C_3   0.076995 0.692236 0.638175 -0.191424
C5    C     C_R   0.495132 0.065439 0.622138 0.129307
C6    C     C_R   0.472289 0.129088 0.499694 -0.190264
C7    C     C_R   0.427002 0.060269 0.383103 -0.021095
C8    C     C_R   0.435776 0.930603 0.384321 -0.184600
C9    C     C_R   0.479472 0.870123 0.503196 -0.163410
C10   C     C_R   0.494230 0.938756 0.626138 0.160878
C11   C     C_3   0.591927 0.937953 0.736583 -0.285376
C12   C     C_R   0.262717 0.497759 0.500383 0.784366
C13   C     C_3   0.595266 0.078725 0.728246 -0.455864
C14   C     C_R   0.571724 0.582582 0.073086 0.281841
C15   C     C_R   0.420382 0.426744 0.074602 -0.051692
C16   C     C_R   0.421195 0.425003 0.926191 0.032952
C17   C     C_R   0.567948 0.585989 0.926729 0.263624
C18   C     C_3   0.703483 0.611913 0.914775 -0.553184
C19   C     C_3   0.710445 0.600686 0.072468 -0.266393
C20   C     C_R   0.496657 0.737539 0.500856 0.803714
C21   C     C_R   0.737543 0.499928 0.499939 0.793774
C22   C     C_R   0.065392 0.557573 0.604554 0.049398
C23   C     C_R   0.129562 0.491050 0.503089 -0.073823
C24   C     C_R   0.064000 0.414210 0.409616 -0.203319
C25   C     C_R   0.934380 0.414545 0.410440 -0.220308
C26   C     C_R   0.871008 0.494167 0.501855 -0.078135
Cu1   Cu    Cu3+1 0.499990 0.499980 0.640670 0.980555
Cu2   Cu    Cu3+1 0.500010 0.500020 0.359330 0.976157
H1    H     H_    0.112687 0.356294 0.335113 0.145917
H2    H     H_    0.679269 0.892230 0.703697 0.137280
H3    H     H_    0.562782 0.128262 0.823747 0.227043
H4    H     H_    0.683254 0.115736 0.682824 0.191222
H5    H     H_    0.356767 0.367227 0.130639 0.126432
H6    H     H_    0.754361 0.539349 0.856023 0.234603
H7    H     H_    0.721889 0.707590 0.878951 0.168769
H8    H     H_    0.740339 0.687716 0.125988 0.132395
H9    H     H_    0.884080 0.354924 0.338441 0.184676
H10   H     H_    0.898259 0.750748 0.550252 0.195474
H11   H     H_    0.893952 0.715639 0.740330 0.188340
H12   H     H_    0.121550 0.746449 0.552922 0.172079
H13   H     H_    0.408461 0.877113 0.293011 0.209253
N1    N     N_R   0.500790 0.500930 0.147930 -0.179038
N2    N     N_R   0.500790 0.500890 0.852020 -0.206218
O1    O     O_R   0.500000 0.319640 0.618810 -0.569627
O2    O     O_R   0.500010 0.319680 0.381230 -0.576666
O3    O     O_R   0.319650 0.499970 0.618810 -0.573924
O4    O     O_R   0.319660 0.500010 0.381230 -0.598985
O5    O     O_R   0.499990 0.680320 0.618770 -0.564303
O6    O     O_R   0.500000 0.680360 0.381190 -0.589946
O7    O     O_R   0.680340 0.499990 0.618770 -0.583407
O8    O     O_R   0.680350 0.500030 0.381190 -0.565883
C27   C     C_1   0.337965 0.340325 0.855748 0.315327
N3    N     N_1   0.270681 0.271866 0.799967 -0.272153
C28   C     C_2   0.785767 0.489927 0.111128 0.449350
H14   H     H_    0.882666 0.503488 0.138016 0.049198
O9    O     O_2   0.741810 0.385208 0.106061 -0.530073
C29   C     C_2   0.133128 0.714605 0.779505 0.445581
H15   H     H_    0.096772 0.666549 0.870189 0.060132
O10   O     O_2   0.220607 0.786585 0.793058 -0.526151
C30   C     C_2   0.365890 0.119746 0.263829 0.411743
H16   H     H_    0.321325 0.208006 0.278425 0.047530
O11   O     O_2   0.360984 0.069095 0.149525 -0.529254
C31   C     C_1   0.540908 0.895227 0.870590 0.379369
N4    N     N_1   0.500267 0.862999 0.976297 -0.245131

loop_
_geom_bond_atom_site_label_1
_geom_bond_atom_site_label_2
_ccdc_geom_bond_type
C4    C29   S    
C2    C22   A    
C28   H14   S    
C23   C24   A    
C17   N2    A    
Cu2   O4    S    
C4    H12   S    
C20   O6    A    
Cu2   O6    S    
C4    C22   S    
C18   H7    S    
C1    C6    S    
C9    C20   S    
C5    C13   S    
C14   C17   A    
Cu1   O7    S    
C21   O8    A    
C14   N1    A    
C17   C18   S    
C24   C25   A    
C3    H11   S    
C5    C10   A    
C2    C26   A    
C8    H13   S    
C18   H6    S    
C16   N2    A    
C1    O2    A    
C29   H15   S    
C20   O5    A    
C30   H16   S    
C12   O4    A    
Cu1   O1    S    
C19   C28   S    
Cu2   N1    S    
C21   O7    A    
C21   C26   S    
C15   H5    S    
C2    C3    S    
C6    C7    A    
C11   C31   S    
C19   H8    S    
Cu1   O5    S    
C5    C6    A    
Cu2   O8    S    
C28   O9    D    
Cu2   O2    S    
C29   O10   D    
C7    C8    A    
C10   C11   S    
C15   C16   A    
C15   N1    A    
Cu1   N2    S    
C7    C30   S    
C11   C13   S    
C27   N3    T    
Cu1   O3    S    
C30   O11   D    
C18   C19   S    
C9    C10   A    
Cu1   Cu2   S    
C22   C23   A    
C8    C9    A    
C12   C23   S    
C1    O1    A    
C25   H9    S    
C25   C26   A    
C24   H1    S    
C13   H4    S    
C14   C19   S    
C13   H3    S    
C3    C4    S    
C16   C27   S    
C11   H2    S    
C3    H10   S    
C31   N4    T    
C12   O3    A    
