data_mof_unit_45107.cif
_audit_creation_date              2013-03-05T16:18:40-0500
_audit_creation_method            fapswitch 2.2
_symmetry_space_group_name_H-M    P1
_symmetry_Int_Tables_number       1
_space_group_crystal_system       triclinic
_cell_length_a                    15.709727
_cell_length_b                    10.648131
_cell_length_c                    9.706914
_cell_angle_alpha                 89.929544
_cell_angle_beta                  89.686615
_cell_angle_gamma                 90.338027
_cell_volume                      1623.71127024

loop_
_atom_site_label
_atom_site_type_symbol
_atom_site_description
_atom_site_fract_x
_atom_site_fract_y
_atom_site_fract_z
_atom_type_partial_charge
O1    O     O_R   0.499980 0.314910 0.616040 -0.629688
O2    O     O_R   0.500040 0.314680 0.383960 -0.607690
C1    C     C_R   0.498116 0.257668 0.500222 0.890214
O3    O     O_R   0.376750 0.500100 0.616020 -0.536597
O4    O     O_R   0.376810 0.499870 0.383940 -0.652399
C2    C     C_R   0.337827 0.500485 0.500268 0.941184
Zn1   Zn    Zn3+2 0.499960 0.500150 0.654960 0.976963
Zn2   Zn    Zn3+2 0.500040 0.499850 0.345040 0.934642
O5    O     O_R   0.499960 0.685320 0.616040 -0.625065
O6    O     O_R   0.500020 0.685090 0.383960 -0.646138
O7    O     O_R   0.623190 0.500130 0.616060 -0.641852
O8    O     O_R   0.623250 0.499900 0.383980 -0.605338
C3    C     C_R   0.496083 0.742016 0.500171 0.921583
C4    C     C_R   0.662201 0.499908 0.499707 0.939760
C5    C     C_3   0.971699 0.383372 0.534689 -0.170629
C6    C     C_3   0.028980 0.412563 0.408077 -0.190316
H1    H     H_    0.054238 0.343244 0.333223 0.136657
H2    H     H_    0.946358 0.289504 0.564103 0.153172
C7    C     C_1   0.248958 0.500420 0.500734 -0.116067
C8    C     C_1   0.751133 0.498841 0.499011 -0.158254
C9    C     C_3   0.027567 0.469402 0.626084 -0.140453
C10   C     C_3   0.082868 0.498979 0.499537 0.172517
C11   C     C_3   0.971601 0.583841 0.589774 -0.199431
C12   C     C_3   0.917386 0.497810 0.498433 0.162245
C13   C     C_3   0.028824 0.613731 0.463309 -0.173224
C14   C     C_3   0.973428 0.526970 0.373342 0.146410
C15   C     C_1   0.173659 0.499932 0.500437 -0.051163
C16   C     C_1   0.826461 0.498025 0.498649 -0.071170
H3    H     H_    0.054217 0.707560 0.433793 0.139540
H4    H     H_    0.946028 0.653424 0.664092 0.150045
H5    H     H_    0.052284 0.445508 0.729727 0.162940
C17   C     C_3   0.585106 0.070338 0.466070 0.151124
H6    H     H_    0.627185 0.096110 0.554040 0.103499
C18   C     C_3   0.582366 0.926200 0.458541 -0.544043
H7    H     H_    0.598526 0.892609 0.353078 0.233859
H8    H     H_    0.631546 0.887027 0.528587 0.144364
H9    H     H_    0.515603 0.107892 0.724343 0.168146
H10   H     H_    0.524215 0.900899 0.718918 0.098937
C19   C     C_3   0.469626 0.072540 0.646187 -0.478985
C20   C     C_3   0.426390 0.071388 0.393393 -0.051048
C21   C     C_3   0.493932 0.121230 0.500026 -0.051225
H11   H     H_    0.450213 0.099868 0.290073 0.201833
C22   C     C_3   0.492700 0.878051 0.501193 -0.014899
C23   C     C_3   0.471213 0.928923 0.649548 0.173503
C24   C     C_3   0.427063 0.926155 0.394144 -0.367280
H12   H     H_    0.445176 0.893112 0.289205 0.178116
H13   H     H_    0.363911 0.883946 0.413807 0.200172
H14   H     H_    0.406751 0.109485 0.677516 0.255829
C25   C     C_3   0.447314 0.392993 0.084368 -0.289789
H15   H     H_    0.381532 0.397232 0.126868 0.190111
H16   H     H_    0.473831 0.303031 0.122911 0.165319
C26   C     C_3   0.447195 0.390686 0.921609 0.277667
H17   H     H_    0.477390 0.300799 0.889459 0.092548
H18   H     H_    0.394555 0.627031 0.114559 0.185585
H19   H     H_    0.403195 0.639547 0.873404 0.245020
C27   C     C_3   0.461736 0.616507 0.079826 -0.236457
C28   C     C_3   0.585698 0.486833 0.080864 -0.239671
N1    N     N_3   0.498170 0.499750 0.138610 -0.067938
H20   H     H_    0.626050 0.566519 0.116434 0.161953
H21   H     H_    0.615435 0.399873 0.121591 0.207545
N2    N     N_3   0.498850 0.496730 0.861320 -0.105894
C29   C     C_3   0.466167 0.617363 0.917782 -0.180223
C30   C     C_3   0.586072 0.483164 0.918395 -0.351974
H22   H     H_    0.614607 0.393601 0.882166 0.169863
H23   H     H_    0.628068 0.559513 0.878282 0.178646
H24   H     H_    0.496936 0.699551 0.119804 0.162191
H25   H     H_    0.508389 0.696010 0.884154 0.152593
C31   C     C_3   0.335880 0.133241 0.400275 -0.436018
C32   C     C_3   0.265869 0.066328 0.485271 -0.278826
C33   C     C_3   0.190312 0.152847 0.511230 -0.849202
H26   H     H_    0.209816 0.233111 0.577037 0.290191
H27   H     H_    0.165175 0.188874 0.412153 0.248932
H28   H     H_    0.138810 0.100155 0.565214 0.256021
H29   H     H_    0.241820 0.983235 0.428023 0.218608
H30   H     H_    0.289826 0.034757 0.585971 0.280240
H31   H     H_    0.341703 0.231355 0.437140 0.209935
H32   H     H_    0.311535 0.140912 0.293124 0.202999
N3    N     N_R   0.391860 0.879569 0.711481 0.199001
O9    O     O_R   0.373640 0.908137 0.838537 -0.409763
O10   O     O_R   0.341391 0.803131 0.646003 -0.441536
N4    N     N_R   0.359521 0.388697 0.869599 0.221967
O11   O     O_R   0.303728 0.470199 0.911728 -0.422074
O12   O     O_R   0.333357 0.293549 0.797036 -0.421658
C34   C     C_3   0.939763 0.558882 0.230175 -0.444900
C35   C     C_3   0.012866 0.582048 0.127924 -0.316810
C36   C     C_3   0.979234 0.612517 0.984621 -0.865428
H33   H     H_    0.941126 0.532534 0.944289 0.257874
H34   H     H_    0.938982 0.697884 0.988022 0.260816
H35   H     H_    0.033549 0.630191 0.913379 0.262826
H36   H     H_    0.052830 0.661864 0.163990 0.227533
H37   H     H_    0.053484 0.497119 0.121144 0.232579
H38   H     H_    0.899472 0.479572 0.193812 0.217770
H39   H     H_    0.899627 0.644208 0.237879 0.206579
N5    N     N_R   0.623230 0.124949 0.340558 0.220548
O13   O     O_R   0.689141 0.198883 0.350696 -0.419218
O14   O     O_R   0.596070 0.094485 0.218571 -0.440382

loop_
_geom_bond_atom_site_label_1
_geom_bond_atom_site_label_2
_geom_bond_distance
_ccdc_geom_bond_type
C5    H2    1.110136 S    
C17   N5    1.472200 S    
C30   H23   1.112606 S    
N4    O11   1.301753 A    
C35   H37   1.111682 S    
C19   C21   1.554814 S    
C24   H12   1.114123 S    
Zn1   O7    1.970365 S    
C2    C7    1.396085 S    
C9    H5    1.110159 S    
C29   H25   1.112762 S    
C12   C14   1.526459 S    
C26   N2    1.502790 S    
O4    C2    1.281662 A    
O7    C4    1.282050 A    
N3    O10   1.301630 A    
C28   H20   1.112571 S    
C5    C6    1.549358 S    
H19   C29   1.107782 S    
C18   H7    1.113338 S    
N2    C30   1.488550 S    
O5    C3    1.277771 A    
Zn1   N2    2.003383 S    
Zn2   N1    2.004176 S    
C1    C21   1.453913 S    
C6    H1    1.109881 S    
C25   H16   1.112050 S    
C10   C13   1.533608 S    
C14   C34   1.528213 S    
C11   C12   1.533540 S    
C33   H26   1.110297 S    
C7    C15   1.182928 T    
C18   H8    1.114479 S    
C20   H11   1.109818 S    
C9    C10   1.531988 S    
C13   H3    1.110306 S    
N5    O13   1.301259 A    
O3    Zn1   1.974184 S    
N4    O12   1.300588 A    
C28   C30   1.577591 S    
C24   H13   1.102330 S    
C6    C14   1.540811 S    
C20   C24   1.546569 S    
H18   C27   1.112511 S    
C11   H4    1.110155 S    
C4    C8    1.397185 S    
C34   C35   1.532462 S    
O3    C2    1.282146 A    
C36   H33   1.111034 S    
C31   C32   1.541883 S    
C28   H21   1.112723 S    
C8    C16   1.183441 T    
C13   C14   1.540872 S    
C35   C36   1.525882 S    
C36   H35   1.110423 S    
C25   N1    1.484286 S    
O1    C1    1.279890 A    
C17   C18   1.536987 S    
C22   C23   1.574782 S    
H10   C23   1.115498 S    
C26   N4    1.469581 S    
Zn2   O8    1.974184 S    
C25   C26   1.580115 S    
C33   H28   1.110534 S    
C32   H29   1.110830 S    
N5    O14   1.301639 A    
C22   C24   1.556293 S    
C5    C12   1.533376 S    
O8    C4    1.282144 A    
C10   C15   1.426361 S    
C9    C11   1.548257 S    
C27   C29   1.574113 S    
C17   C21   1.567883 S    
C3    C22   1.449855 S    
C26   H17   1.114884 S    
C31   H32   1.113226 S    
Zn1   O5    2.007126 S    
C20   C21   1.576586 S    
C6    C10   1.533818 S    
O1    Zn1   2.008772 S    
O2    Zn2   2.007127 S    
C18   C22   1.550183 S    
C12   C16   1.428428 S    
O6    C3    1.282618 A    
O4    Zn2   1.970365 S    
C35   H36   1.111699 S    
C19   C23   1.529911 S    
C31   H31   1.108164 S    
C17   H6    1.116282 S    
C23   N3    1.474762 S    
O2    C1    1.280931 A    
H9    C19   1.114649 S    
N3    O9    1.301392 A    
C28   N1    1.489245 S    
C27   H24   1.111627 S    
C27   N1    1.486297 S    
C32   H30   1.102194 S    
C36   H34   1.110792 S    
C34   H39   1.111336 S    
C11   C13   1.549194 S    
N2    C29   1.490112 S    
C32   C33   1.526885 S    
C30   H22   1.112773 S    
C5    C9    1.548409 S    
Zn2   O6    2.008772 S    
C25   H15   1.111804 S    
C20   C31   1.571674 S    
C33   H27   1.110430 S    
C34   H38   1.111440 S    
C19   H14   1.106556 S    
