data_mof_unit_55193.cif
_audit_creation_date              2012-12-10T17:51:30-0500
_audit_creation_method            fapswitch 2.2
_symmetry_space_group_name_H-M    P1
_symmetry_Int_Tables_number       1
_space_group_crystal_system       triclinic
_cell_length_a                    9.90508
_cell_length_b                    10.660023
_cell_length_c                    16.763063
_cell_angle_alpha                 92.806117
_cell_angle_beta                  85.534787
_cell_angle_gamma                 90.402494
_cell_volume                      1762.48729974

loop_
_atom_site_label
_atom_site_type_symbol
_atom_type_description
_atom_site_fract_x
_atom_site_fract_y
_atom_site_fract_z
_atom_type_partial_charge
C1    C     C_R   0.500008 0.740626 0.496467 0.881699
C2    C     C_R   0.529944 0.541401 0.265081 -0.093114
C3    C     C_R   0.258773 0.889969 0.460577 -0.141133
C4    C     C_R   0.481515 0.501205 0.653204 0.816926
C5    C     C_R   0.133888 0.950395 0.472627 -0.142611
C6    C     C_R   0.123205 0.063264 0.517685 -0.116611
C7    C     C_R   0.239003 0.120753 0.544384 -0.118435
C8    C     C_R   0.367999 0.065827 0.525512 0.069281
C9    C     C_R   0.374842 0.941999 0.494610 0.107461
C10   C     C_R   0.496950 0.875779 0.500498 -0.166388
C11   C     C_R   0.611027 0.937027 0.527787 -0.234311
C12   C     C_R   0.345529 0.538859 0.782513 -0.225519
C13   C     C_R   0.611029 0.065257 0.544049 0.092325
C14   C     C_R   0.491232 0.131709 0.533195 -0.188520
C15   C     C_R   0.848148 0.671502 0.602331 -0.360750
C16   C     C_R   0.497647 0.262742 0.512874 0.881808
C17   C     C_R   0.912604 0.763211 0.648163 0.380389
C18   C     C_R   0.053326 0.763910 0.648317 0.404429
C19   C     C_R   0.128076 0.670721 0.602681 -0.359711
C20   C     C_R   0.066169 0.582743 0.551689 0.084030
C21   C     C_R   0.921841 0.583176 0.551366 0.107804
C22   C     C_R   0.932430 0.421485 0.450553 -0.146254
C23   C     C_R   0.444910 0.666125 0.164026 -0.233212
C24   C     C_R   0.075557 0.422247 0.448644 0.131309
C25   C     C_R   0.518523 0.504625 0.347310 0.888913
C26   C     C_R   0.471262 0.515948 0.740060 -0.017435
C27   C     C_R   0.589670 0.518633 0.780454 -0.241254
C28   C     C_R   0.583755 0.550905 0.861426 -0.182366
C29   C     C_R   0.459128 0.582282 0.903114 0.215965
C30   C     C_R   0.339659 0.571801 0.863898 -0.180358
C31   C     C_3   0.750235 0.403052 0.050160 0.054716
C32   C     C_3   0.866551 0.373299 0.986782 -0.312954
C33   C     C_3   0.843664 0.248534 0.941013 -0.990104
C34   C     C_R   0.430657 0.620131 0.239861 -0.209194
C35   C     C_3   0.738452 0.124479 0.574988 -0.379096
C36   C     C_3   0.709701 0.193876 0.656798 -0.290166
C37   C     C_3   0.839408 0.248945 0.687910 -0.895347
C38   C     C_3   0.807245 0.830137 0.767709 0.091971
C39   C     C_3   0.734730 0.941719 0.812340 -0.316526
C40   C     C_3   0.699660 0.916776 0.900256 -0.994287
C41   C     C_3   0.201874 0.826315 0.741897 0.067496
C42   C     C_3   0.242436 0.940673 0.793236 -0.312237
C43   C     C_3   0.333487 0.903516 0.857463 -0.962303
C44   C     C_3   0.148144 0.336363 0.385266 -0.390531
C45   C     C_R   0.646357 0.512424 0.214958 -0.310818
C46   C     C_3   0.136457 0.384893 0.301308 -0.347927
C47   C     C_3   0.222229 0.307023 0.237717 -0.869224
C48   C     C_R   0.659461 0.555466 0.137479 0.501051
C49   C     C_R   0.557390 0.631932 0.112089 0.101851
C50   C     C_2   0.449679 0.614502 0.989022 -0.277988
C51   C     C_2   0.556542 0.654774 0.027448 -0.212153
H1    H     H_    0.687696 0.499200 0.749212 0.161120
H2    H     H_    0.234475 0.672631 0.605703 0.231991
H3    H     H_    0.725558 0.454996 0.235252 0.157800
H4    H     H_    0.652123 0.677636 0.995480 0.179049
H5    H     H_    0.242253 0.591527 0.895911 0.121665
H6    H     H_    0.366067 0.724986 0.144731 0.158511
H7    H     H_    0.252509 0.535485 0.752514 0.144930
H8    H     H_    0.355682 0.590368 0.022861 0.162316
H9    H     H_    0.677158 0.550096 0.890579 0.131028
H10   H     H_    0.653390 0.400024 0.020280 0.150775
H11   H     H_    0.747384 0.330081 0.095637 0.140166
H12   H     H_    0.701454 0.884515 0.536575 0.188015
H13   H     H_    0.875701 0.449348 0.943613 0.213536
H14   H     H_    0.963018 0.368818 0.016259 0.224116
H15   H     H_    0.836262 0.170575 0.982756 0.273134
H16   H     H_    0.929948 0.229633 0.895751 0.266085
H17   H     H_    0.749216 0.252055 0.909510 0.268070
H18   H     H_    0.914647 0.173530 0.693111 0.279126
H19   H     H_    0.883671 0.319626 0.646764 0.263016
H20   H     H_    0.816266 0.295423 0.748088 0.243563
H21   H     H_    0.636434 0.270757 0.652827 0.224528
H22   H     H_    0.663922 0.127859 0.700319 0.214393
H23   H     H_    0.262884 0.804165 0.423413 0.153641
H24   H     H_    0.814021 0.050402 0.582763 0.221822
H25   H     H_    0.788938 0.186801 0.530747 0.209484
H26   H     H_    0.901138 0.811141 0.797610 0.139816
H27   H     H_    0.739457 0.746591 0.770892 0.136821
H28   H     H_    0.800695 0.026312 0.808274 0.240740
H29   H     H_    0.639627 0.960221 0.784017 0.220033
H30   H     H_    0.628597 0.836296 0.905147 0.276581
H31   H     H_    0.649750 0.000730 0.931021 0.272875
H32   H     H_    0.792594 0.896183 0.930238 0.267185
H33   H     H_    0.295947 0.784548 0.711500 0.146450
H34   H     H_    0.045101 0.908442 0.448311 0.131840
H35   H     H_    0.149981 0.757179 0.781794 0.115555
H36   H     H_    0.297385 0.008831 0.754239 0.223936
H37   H     H_    0.150038 0.987107 0.822539 0.224133
H38   H     H_    0.276700 0.843641 0.901002 0.267763
H39   H     H_    0.368901 0.989123 0.890158 0.266874
H40   H     H_    0.423029 0.851189 0.829625 0.277258
H41   H     H_    0.330816 0.312263 0.249906 0.260218
H42   H     H_    0.188597 0.207374 0.236985 0.257623
H43   H     H_    0.211066 0.344156 0.177839 0.250745
H44   H     H_    0.029187 0.380795 0.286163 0.211890
H45   H     H_    0.026506 0.109176 0.529335 0.122477
H46   H     H_    0.170491 0.484302 0.299936 0.236524
H47   H     H_    0.254960 0.325260 0.394889 0.273927
H48   H     H_    0.102938 0.240759 0.388178 0.171161
H49   H     H_    0.226757 0.208203 0.579742 0.155880
H50   H     H_    0.880893 0.358087 0.410486 0.141697
H51   H     H_    0.740422 0.674750 0.606779 0.239782
H52   H     H_    0.343205 0.648291 0.279338 0.154344
N1    N     N_R   0.857140 0.501200 0.500750 -0.106558
N2    N     N_R   0.142740 0.501280 0.500770 -0.117047
O1    O     O_R   0.385310 0.683220 0.500000 -0.639471
O2    O     O_3   0.837545 0.859719 0.687174 -0.630837
O3    O     O_3   0.115508 0.865992 0.684981 -0.608760
O4    O     O_R   0.614640 0.683250 0.500010 -0.626954
O5    O     O_R   0.371780 0.500010 0.615800 -0.639356
O6    O     O_R   0.601110 0.500030 0.615800 -0.635671
O7    O     O_R   0.385360 0.316750 0.499990 -0.646725
O8    O     O_R   0.614690 0.316780 0.500000 -0.612641
O9    O     O_R   0.398890 0.499970 0.384200 -0.628595
O10   O     O_R   0.628220 0.499990 0.384200 -0.605651
O11   O     O_3   0.771879 0.523121 0.086600 -0.661971
Zn1   Zn    Zn3+2 0.346870 0.499980 0.499990 0.906305
Zn2   Zn    Zn3+2 0.653130 0.500020 0.500010 0.927339

loop_
_geom_bond_atom_site_label_1
_geom_bond_atom_site_label_2
_ccdc_geom_bond_type
C41   O3    S    
C37   H18   S    
C47   H41   S    
C31   H10   S    
C35   C36   S    
C40   H32   S    
C16   O8    A    
C7    C8    A    
C41   H35   S    
C35   H24   S    
C26   C27   A    
C43   H38   S    
C22   H50   S    
O6    Zn2   S    
C5    C6    A    
C50   H8    S    
C22   C24   A    
C36   C37   S    
C13   C35   S    
C11   H12   S    
C17   O2    S    
C38   C39   S    
C44   H48   S    
C23   C49   A    
C22   N1    A    
C23   H6    S    
C18   C19   A    
C41   C42   S    
C38   O2    S    
C3    H23   S    
C1    O4    A    
C21   N1    A    
C44   H47   S    
C46   H44   S    
C19   C20   A    
C8    C9    A    
C49   C51   S    
C33   H15   S    
C9    C10   A    
C1    O1    A    
C48   O11   S    
C12   H7    S    
C19   H2    S    
C13   C14   A    
C31   H11   S    
N2    Zn1   S    
O5    Zn1   S    
C44   C46   S    
O4    Zn2   S    
C50   C51   D    
N1    Zn2   S    
C29   C50   S    
C28   H9    S    
C2    C45   A    
C35   H25   S    
C43   H39   S    
C7    H49   S    
C40   H31   S    
C32   H13   S    
C36   H22   S    
C39   C40   S    
C38   H27   S    
C41   H33   S    
C30   H5    S    
C43   H40   S    
C12   C26   A    
C39   H28   S    
C29   C30   A    
C3    C9    A    
C31   C32   S    
O10   Zn2   S    
C17   C18   A    
C47   H42   S    
C48   C49   A    
C4    O6    A    
C45   H3    S    
C6    H45   S    
C37   H20   S    
O1    Zn1   S    
C24   C44   S    
C14   C16   S    
C42   H37   S    
C42   C43   S    
C31   O11   S    
C27   H1    S    
C16   O7    A    
C20   N2    A    
C45   C48   A    
C15   C17   A    
C4    O5    A    
C46   C47   S    
C28   C29   A    
C23   C34   A    
C8    C14   A    
C12   C30   A    
C40   H30   S    
C46   H46   S    
C1    C10   S    
C3    C5    A    
C4    C26   S    
C6    C7    A    
C42   H36   S    
C38   H26   S    
C34   H52   S    
C32   C33   S    
C25   O10   A    
C5    H34   S    
C33   H16   S    
C25   O9    A    
C39   H29   S    
C11   C13   A    
C2    C34   A    
O7    Zn1   S    
C47   H43   S    
C2    C25   S    
C51   H4    S    
C15   H51   S    
C18   O3    S    
O9    Zn1   S    
C10   C11   A    
O8    Zn2   S    
C15   C21   A    
C20   C21   A    
C27   C28   A    
C24   N2    A    
C37   H19   S    
C36   H21   S    
C33   H17   S    
C32   H14   S    
