data_mof_unit_59746.cif
_audit_creation_date              2012-12-11T16:56:17-0500
_audit_creation_method            fapswitch 2.2
_symmetry_space_group_name_H-M    P1
_symmetry_Int_Tables_number       1
_space_group_crystal_system       triclinic
_cell_length_a                    6.961164
_cell_length_b                    14.531836
_cell_length_c                    16.192037
_cell_angle_alpha                 90.454465
_cell_angle_beta                  89.971944
_cell_angle_gamma                 89.991684
_cell_volume                      1637.91033087

loop_
_atom_site_label
_atom_site_type_symbol
_atom_type_description
_atom_site_fract_x
_atom_site_fract_y
_atom_site_fract_z
_atom_type_partial_charge
O1    O     O_R   0.505830 0.583360 0.413880 -0.538732
O2    O     O_R   0.175830 0.595460 0.585520 -0.544427
O3    O     O_R   0.005520 0.416640 0.586120 -0.538746
C1    C     C_R   0.344509 0.617455 0.614432 0.691106
O4    O     O_R   0.176120 0.594390 0.414490 -0.545504
O5    O     O_R   0.005810 0.415570 0.413870 -0.534566
C2    C     C_R   0.344954 0.616266 0.385938 0.688151
O6    O     O_R   0.505540 0.584430 0.586130 -0.539072
O7    O     O_3   0.339200 0.441330 0.500000 -0.361539
V1    V     V_3+5 0.064350 0.510880 0.500000 1.403666
O8    O     O_R   0.676100 0.404540 0.414480 -0.543400
C3    C     C_R   0.845148 0.382563 0.385746 0.700053
O9    O     O_R   0.675810 0.405610 0.585510 -0.538454
C4    C     C_R   0.845010 0.383685 0.613605 0.749622
V2    V     V_3+5 0.564340 0.489120 0.500000 1.417332
O10   O     O_3   0.839360 0.558670 0.500000 -0.376410
C5    C     C_2   0.721120 0.208587 0.785815 -0.129293
C6    C     C_2   0.885663 0.181708 0.822534 -0.312838
H1    H     H_    0.585722 0.179694 0.806574 0.138072
H2    H     H_    0.022730 0.209891 0.803860 0.128274
C7    C     C_2   0.708691 0.277083 0.717848 -0.132179
C8    C     C_2   0.861540 0.315384 0.680391 -0.303181
H3    H     H_    0.565168 0.295933 0.697850 0.138600
H4    H     H_    0.006199 0.297157 0.698491 0.131866
C9    C     C_R   0.730456 0.179784 0.244249 0.086819
C10   C     C_R   0.882526 0.180488 0.187499 -0.101196
C11   C     C_R   0.032364 0.243728 0.201972 -0.181236
H5    H     H_    0.153851 0.246356 0.160467 0.127240
C12   C     C_R   0.020569 0.308674 0.266842 -0.159401
H6    H     H_    0.133659 0.359232 0.273388 0.117160
C13   C     C_R   0.859023 0.312102 0.319363 -0.111598
C14   C     C_R   0.718829 0.243982 0.308543 0.076302
C15   C     C_3   0.506830 0.253570 0.298908 -0.228299
C16   C     C_3   0.519137 0.182610 0.229275 -0.433144
H7    H     H_    0.463303 0.323382 0.278645 0.117234
H8    H     H_    0.484523 0.211416 0.167675 0.166301
H9    H     H_    0.449399 0.115442 0.242639 0.168687
C17   C     C_R   0.509320 0.746871 0.691453 0.107523
C18   C     C_R   0.352415 0.687358 0.681838 -0.111590
C19   C     C_R   0.200304 0.697009 0.738707 -0.177251
H10   H     H_    0.076841 0.652284 0.734225 0.130621
C20   C     C_R   0.212550 0.759497 0.805685 -0.179228
H11   H     H_    0.096810 0.762017 0.850177 0.129620
C21   C     C_R   0.378014 0.813728 0.818276 -0.111777
C22   C     C_R   0.521807 0.808403 0.757881 0.108305
C23   C     C_3   0.731437 0.791467 0.767853 -0.416341
C24   C     C_3   0.717925 0.724894 0.695257 -0.399613
H12   H     H_    0.764555 0.757117 0.827253 0.168985
H13   H     H_    0.818528 0.853671 0.754342 0.177314
H14   H     H_    0.744065 0.652031 0.712411 0.165993
H15   H     H_    0.796528 0.748794 0.639636 0.176273
C25   C     C_R   0.507857 0.681518 0.260354 0.097977
C26   C     C_R   0.353104 0.681362 0.315780 -0.111233
C27   C     C_R   0.201482 0.743032 0.300134 -0.175288
H16   H     H_    0.078765 0.745449 0.340944 0.134775
C28   C     C_R   0.212823 0.806783 0.235099 -0.173815
H17   H     H_    0.097853 0.856049 0.227636 0.129428
C29   C     C_R   0.376469 0.811107 0.183862 -0.111499
C30   C     C_R   0.519528 0.744865 0.196248 0.101204
C31   C     C_3   0.729997 0.757545 0.208352 -0.408277
C32   C     C_3   0.717424 0.688164 0.277841 -0.398512
H18   H     H_    0.765478 0.828248 0.230104 0.168716
H19   H     H_    0.814705 0.732390 0.154519 0.173793
H20   H     H_    0.746432 0.718386 0.339872 0.172490
H21   H     H_    0.794104 0.622714 0.264029 0.165457
O11   O     O_R   0.229930 0.912420 0.917160 -0.538869
O12   O     O_R   0.559420 0.902500 0.088780 -0.539521
O13   O     O_R   0.729660 0.081330 0.089380 -0.536912
C33   C     C_R   0.390360 0.880823 0.117534 0.694569
O14   O     O_R   0.559650 0.901420 0.917750 -0.539653
O15   O     O_R   0.729880 0.080250 0.917130 -0.536833
C34   C     C_R   0.390675 0.879227 0.889016 0.697231
O16   O     O_R   0.229700 0.913500 0.089410 -0.540124
O17   O     O_3   0.396250 0.055540 0.003280 -0.371153
V3    V     V_3+5 0.671130 0.986010 0.003260 1.398576
O18   O     O_R   0.059600 0.091310 0.917720 -0.544193
C35   C     C_R   0.890922 0.113157 0.889528 0.745433
O19   O     O_R   0.059370 0.092380 0.088750 -0.544120
C36   C     C_R   0.890551 0.114508 0.117351 0.694663
V4    V     V_3+5 0.171120 0.007820 0.003230 1.392446
O20   O     O_3   0.896130 0.938240 0.003240 -0.371683
C37   C     C_1   0.402764 0.220618 0.371990 0.375691
N1    N     N_1   0.320561 0.194878 0.429487 -0.362869

loop_
_geom_bond_atom_site_label_1
_geom_bond_atom_site_label_2
_ccdc_geom_bond_type
C11   C12   A    
C16   H9    S    
C1    O6    A    
C26   C27   A    
C21   C22   A    
O13   V3    S    
C23   H13   S    
C10   C11   A    
C31   H19   S    
C25   C32   S    
O5    C3    A    
C17   C18   A    
O19   V4    S    
V2    O10   S    
C28   H17   S    
C31   H18   S    
C17   C22   A    
C15   H7    S    
C27   H16   S    
O8    V2    S    
O11   C34   A    
C33   O16   A    
O1    V2    S    
C15   C37   S    
C16   H8    S    
C9    C16   S    
C9    C14   A    
C19   C20   A    
C30   C31   S    
O17   V4    S    
O9    C4    A    
C20   C21   A    
C5    C6    D    
C24   H14   S    
C23   H12   S    
C27   C28   A    
O17   V3    S    
O18   C35   A    
C18   C19   A    
O4    C2    A    
O19   C36   A    
V3    O20   S    
C24   H15   S    
C29   C30   A    
C22   C23   S    
C5    C7    S    
C31   C32   S    
O12   C33   A    
C32   H20   S    
O2    C1    A    
C12   H6    S    
C25   C30   A    
C13   C14   A    
C1    C18   S    
C15   C16   S    
C17   C24   S    
O3    C4    A    
C19   H10   S    
O6    V2    S    
O9    V2    S    
C3    C13   S    
C8    H4    S    
O12   V3    S    
C20   H11   S    
C2    C26   S    
O2    V1    S    
O15   C35   A    
C25   C26   A    
O7    V1    S    
C23   C24   S    
O1    C2    A    
O18   V4    S    
V4    O20   S    
O5    V1    S    
O8    C3    A    
C29   C33   S    
O11   V4    S    
C10   C36   S    
C14   C15   S    
C4    C8    S    
C7    H3    S    
C9    C10   A    
O4    V1    S    
C12   C13   A    
O3    V1    S    
V1    O10   S    
O15   V3    S    
O13   C36   A    
C6    C35   S    
C5    H1    S    
O16   V4    S    
C28   C29   A    
C21   C34   S    
C6    H2    S    
O7    V2    S    
C32   H21   S    
C37   N1    T    
O14   V3    S    
O14   C34   A    
C7    C8    D    
C11   H5    S    
