data_mof_unit_39424.cif
_audit_creation_date              2012-12-10T19:02:42-0500
_audit_creation_method            fapswitch 2.2
_symmetry_space_group_name_H-M    P1
_symmetry_Int_Tables_number       1
_space_group_crystal_system       triclinic
_cell_length_a                    9.566941
_cell_length_b                    10.801733
_cell_length_c                    13.865735
_cell_angle_alpha                 89.905354
_cell_angle_beta                  84.394256
_cell_angle_gamma                 90.061642
_cell_volume                      1426.02307937

loop_
_atom_site_label
_atom_site_type_symbol
_atom_type_description
_atom_site_fract_x
_atom_site_fract_y
_atom_site_fract_z
_atom_type_partial_charge
C1    C     C_R   0.500126 0.737447 0.500541 0.791491
C2    C     C_1   0.461964 0.497992 0.786400 -0.169169
C3    C     C_R   0.418231 0.935491 0.438723 0.064709
C4    C     C_R   0.503618 0.870572 0.496752 -0.081447
C5    C     C_R   0.606214 0.936067 0.541668 -0.214875
C6    C     C_R   0.606486 0.065242 0.539813 -0.180969
C7    C     C_R   0.506040 0.129344 0.491244 -0.141058
C8    C     C_R   0.422893 0.062110 0.432270 0.054415
C9    C     C_3   0.272107 0.069446 0.411233 0.252243
C10   C     C_3   0.265878 0.929050 0.425297 -0.457834
C11   C     C_R   0.935369 0.574957 0.439602 0.183798
C12   C     C_R   0.476778 0.499460 0.683019 0.821336
C13   C     C_R   0.915800 0.428524 0.564300 -0.180384
C14   C     C_R   0.066478 0.425302 0.563416 0.525912
C15   C     C_R   0.082103 0.577463 0.441347 0.105090
C16   C     C_3   0.105961 0.583019 0.333626 -0.541787
C17   C     C_3   0.947870 0.575179 0.331151 0.260030
C18   C     C_R   0.500695 0.262547 0.497239 0.780597
C19   C     C_R   0.522985 0.500939 0.317024 0.803938
C20   C     C_1   0.536395 0.502350 0.213750 -0.184536
C21   C     C_2   0.556197 0.503576 0.023012 -0.162607
C22   C     C_2   0.440251 0.495409 0.977272 -0.159275
C23   C     C_1   0.450736 0.496671 0.873433 0.003511
C24   C     C_1   0.546143 0.503141 0.126768 -0.015663
Cu1   Cu    Cu3+1 0.359330 0.500020 0.500000 0.971641
Cu2   Cu    Cu3+1 0.640670 0.499980 0.500000 0.971975
H1    H     H_    0.150401 0.673446 0.307544 0.160173
H2    H     H_    0.898100 0.658463 0.301500 0.066368
H3    H     H_    0.659258 0.510772 0.982823 0.151224
H4    H     H_    0.680637 0.888067 0.582446 0.153049
H5    H     H_    0.680104 0.114592 0.580400 0.147358
H6    H     H_    0.201091 0.121524 0.465044 0.093918
H7    H     H_    0.201051 0.900334 0.492590 0.158757
H8    H     H_    0.245905 0.876503 0.359158 0.213626
H9    H     H_    0.849482 0.373864 0.615550 0.132354
N1    N     N_R   0.852140 0.499070 0.499400 -0.177329
N2    N     N_R   0.148050 0.499110 0.499400 -0.209785
O1    O     O_R   0.381190 0.680360 0.500000 -0.576470
O2    O     O_R   0.618770 0.680320 0.499990 -0.592493
O3    O     O_R   0.364410 0.500000 0.637850 -0.518534
O4    O     O_R   0.602000 0.499960 0.637840 -0.590223
O5    O     O_R   0.381230 0.319680 0.500010 -0.571577
O6    O     O_R   0.618810 0.319640 0.500000 -0.565668
O7    O     O_R   0.398000 0.500040 0.362160 -0.602221
O8    O     O_R   0.635590 0.500000 0.362150 -0.523887
H10   H     H_    0.337178 0.488186 0.017447 0.149337
O9    O     O_3   0.134838 0.354474 0.628370 -0.542184
C25   C     C_3   0.065377 0.241760 0.653499 0.016430
H11   H     H_    0.024491 0.196651 0.589651 0.121698
H12   H     H_    0.977948 0.258115 0.710951 0.141913
C26   C     C_3   0.168555 0.153247 0.694161 -0.767073
H13   H     H_    0.209364 0.194243 0.759289 0.249419
H14   H     H_    0.115106 0.064423 0.714750 0.194370
H15   H     H_    0.258019 0.134453 0.639029 0.241672
H16   H     H_    0.162471 0.500966 0.301712 0.222978
O10   O     O_3   0.906083 0.459955 0.295044 -0.527874
C27   C     C_3   0.913030 0.464898 0.192991 0.083561
H17   H     H_    0.022555 0.482324 0.160922 0.129315
H18   H     H_    0.843123 0.538666 0.168763 0.140406
C28   C     C_3   0.864970 0.341246 0.155414 -0.765027
H19   H     H_    0.755484 0.321320 0.185509 0.253181
H20   H     H_    0.869739 0.343719 0.075096 0.192032
H21   H     H_    0.933485 0.265781 0.177677 0.245231
O11   O     O_3   0.259074 0.098113 0.312917 -0.562895
C29   C     C_3   0.264764 0.227158 0.298433 0.118884
H22   H     H_    0.363263 0.266128 0.321887 0.150774
H23   H     H_    0.171978 0.272637 0.338209 0.160086
C30   C     C_3   0.264997 0.254275 0.190720 -0.786338
H24   H     H_    0.173084 0.209987 0.161940 0.249346
H25   H     H_    0.260693 0.355660 0.178421 0.193096
H26   H     H_    0.362454 0.217426 0.150882 0.247944

loop_
_geom_bond_atom_site_label_1
_geom_bond_atom_site_label_2
_ccdc_geom_bond_type
Cu1   O5    S    
C12   O3    A    
C21   C22   D    
C19   O8    A    
C14   O9    S    
C7    C18   S    
Cu1   O1    S    
C10   H7    S    
C9    O11   S    
C9    C10   S    
C19   C20   S    
C9    H6    S    
C29   C30   S    
C2    C12   S    
O11   C29   S    
C26   H15   S    
C16   H1    S    
C25   H12   S    
C6    H5    S    
C16   H16   S    
C7    C8    A    
C10   H8    S    
C3    C10   S    
C15   N2    A    
C13   C14   A    
C19   O7    A    
C14   N2    A    
C17   O10   S    
C27   H17   S    
C12   O4    A    
C21   H3    S    
C1    O1    A    
C30   H26   S    
Cu1   O7    S    
Cu2   N1    S    
C25   H11   S    
C22   H10   S    
Cu2   O6    S    
C13   H9    S    
C6    C7    A    
C18   O5    A    
Cu1   O3    S    
C5    C6    A    
C28   H21   S    
Cu2   O2    S    
C27   H18   S    
C1    C4    S    
C16   C17   S    
C1    O2    A    
C26   H13   S    
O9    C25   S    
C20   C24   T    
C4    C5    A    
O10   C27   S    
C3    C8    A    
C13   N1    A    
C28   H20   S    
C29   H22   S    
C5    H4    S    
C21   C24   S    
C2    C23   T    
C30   H25   S    
C22   C23   S    
C28   H19   S    
C27   C28   S    
C29   H23   S    
Cu2   O8    S    
Cu1   N2    S    
Cu1   Cu2   S    
C18   O6    A    
C17   H2    S    
C11   C15   A    
C30   H24   S    
C25   C26   S    
C11   C17   S    
C3    C4    A    
C15   C16   S    
Cu2   O4    S    
C8    C9    S    
C26   H14   S    
C11   N1    A    
