data_mof_unit_9070.cif
_audit_creation_date              2012-12-10T17:14:06-0500
_audit_creation_method            fapswitch 2.2
_symmetry_space_group_name_H-M    P1
_symmetry_Int_Tables_number       1
_space_group_crystal_system       triclinic
_cell_length_a                    15.948572
_cell_length_b                    12.988847
_cell_length_c                    11.873217
_cell_angle_alpha                 100.892438
_cell_angle_beta                  91.818018
_cell_angle_gamma                 96.203929
_cell_volume                      2397.6937724

loop_
_atom_site_label
_atom_site_type_symbol
_atom_type_description
_atom_site_fract_x
_atom_site_fract_y
_atom_site_fract_z
_atom_type_partial_charge
C1    C     C_R   0.503829 0.298349 0.477426 0.881016
C2    C     C_3   0.944830 0.470318 0.602575 -0.430521
C3    C     C_3   0.914591 0.485979 0.480799 -0.219907
C4    C     C_3   0.959147 0.594983 0.459348 0.121157
C5    C     C_3   0.060250 0.595495 0.461703 0.068474
C6    C     C_1   0.822456 0.489400 0.484688 0.230406
C7    C     C_1   0.174441 0.484137 0.504809 0.285023
C8    C     C_1   0.250339 0.488898 0.504626 0.076578
C9    C     C_R   0.520638 0.818168 0.538195 -0.222843
C10   C     C_R   0.521842 0.184805 0.464106 -0.247738
C11   C     C_R   0.535523 0.012089 0.344850 -0.093949
C12   C     C_R   0.340330 0.496835 0.501384 0.848602
C13   C     C_R   0.510002 0.113263 0.355698 0.362134
C14   C     C_R   0.553560 0.146546 0.561198 -0.086117
C15   C     C_R   0.558745 0.037064 0.552372 -0.069182
C16   C     C_R   0.543142 0.969428 0.444275 -0.025806
C17   C     C_R   0.530168 0.860516 0.438751 -0.167990
C18   C     C_R   0.536982 0.886960 0.646527 0.329235
C19   C     C_R   0.573157 0.990922 0.649480 0.334065
C20   C     C_R   0.398421 0.457535 0.035419 -0.176161
C21   C     C_R   0.408255 0.447837 0.148781 0.152553
C22   C     C_R   0.548878 0.531379 0.154875 0.121375
C23   C     C_R   0.503994 0.701838 0.523101 0.873465
C24   C     C_R   0.542027 0.534536 0.032516 -0.155334
C25   C     C_R   0.466043 0.485772 0.972172 -0.103627
C26   C     C_R   0.455952 0.469808 0.850060 0.514715
C27   C     C_R   0.586139 0.575036 0.846225 0.033401
C28   C     C_R   0.602826 0.585327 0.965659 0.246951
C29   C     C_R   0.659229 0.499087 0.498019 0.796183
C30   C     C_3   0.042080 0.466372 0.618491 0.594812
C31   C     C_3   0.039266 0.390695 0.397625 0.099788
C32   C     C_3   0.938313 0.391231 0.382506 0.110686
C33   C     C_1   0.747821 0.493842 0.491787 0.006464
C34   C     C_3   0.081883 0.484453 0.499079 -0.319573
Cu1   Cu    Cu3+1 0.506190 0.507730 0.615930 1.104267
Cu2   Cu    Cu3+1 0.493810 0.492270 0.384070 1.076222
H1    H     H_    0.908980 0.397781 0.620788 0.242026
H2    H     H_    0.923744 0.532871 0.668322 0.258171
H3    H     H_    0.936706 0.597481 0.371757 0.169267
H4    H     H_    0.518759 0.808320 0.356887 0.251077
H5    H     H_    0.630659 0.612012 0.795507 0.197689
H6    H     H_    0.335033 0.442596 0.997108 0.238677
H7    H     H_    0.063802 0.418790 0.322542 0.124035
N1    N     N_R   0.515490 0.519350 0.790130 -0.260466
N2    N     N_R   0.484510 0.480650 0.209890 -0.246400
O1    O     O_R   0.504390 0.354460 0.582000 -0.542823
O2    O     O_R   0.493940 0.341410 0.386200 -0.496342
O3    O     O_R   0.384660 0.506540 0.597940 -0.488540
O4    O     O_R   0.374210 0.493480 0.402140 -0.600237
O5    O     O_R   0.506060 0.658590 0.613800 -0.528273
O6    O     O_R   0.495610 0.645540 0.418000 -0.580890
O7    O     O_R   0.625790 0.506520 0.597860 -0.596904
O8    O     O_R   0.615340 0.493460 0.402060 -0.575885
S1    S     S_3+6 0.087132 0.561661 0.748723 0.138073
O9    O     O_2   0.098570 0.508509 0.849335 -0.159494
O10   O     O_2   0.173048 0.612737 0.730130 -0.195210
O11   O     O_3   0.023989 0.654873 0.793577 -0.454814
H8    H     H_    0.053082 0.698474 0.864399 0.408862
S2    S     S_3+6 0.503236 0.853752 0.777751 0.094532
O12   O     O_2   0.420523 0.783830 0.758397 -0.232760
O13   O     O_2   0.568988 0.798115 0.827239 -0.255168
O14   O     O_3   0.489769 0.964139 0.871862 -0.426148
H9    H     H_    0.485770 0.942091 0.947095 0.400604
C35   C     C_2   0.554009 0.953629 0.229500 0.996957
O15   O     O_2   0.608034 0.993693 0.175146 -0.495342
O16   O     O_R   0.507451 0.857233 0.180060 -0.723484
H10   H     H_    0.525415 0.827696 0.100385 0.368175
S3    S     S_3+6 0.661108 0.040601 0.748595 0.114091
O17   O     O_2   0.702595 0.949929 0.778325 -0.190598
O18   O     O_2   0.724664 0.108136 0.695052 -0.218191
O19   O     O_3   0.630196 0.112230 0.870074 -0.451557
H11   H     H_    0.682845 0.137320 0.918475 0.403176
S4    S     S_3+6 0.434333 0.128195 0.248954 0.071550
O20   O     O_2   0.355706 0.151224 0.310359 -0.273400
O21   O     O_2   0.465778 0.215817 0.189056 -0.222534
O22   O     O_3   0.409005 0.017989 0.148792 -0.504518
H12   H     H_    0.364789 0.035708 0.097545 0.407123
C36   C     C_2   0.567843 0.216126 0.675965 0.989265
O23   O     O_2   0.629623 0.282596 0.696126 -0.539211
O24   O     O_R   0.509256 0.206928 0.759601 -0.661837
H13   H     H_    0.524951 0.259636 0.833764 0.356507
S5    S     S_3+6 0.362755 0.386040 0.782094 0.060948
O25   O     O_2   0.342404 0.298501 0.847337 -0.283033
O26   O     O_2   0.292378 0.454773 0.793192 -0.211052
O27   O     O_3   0.362901 0.325095 0.644590 -0.501734
H14   H     H_    0.313130 0.270874 0.631967 0.386921
S6    S     S_3+6 0.057620 0.339160 0.658147 0.130723
O28   O     O_2   0.013542 0.330800 0.766825 -0.190395
O29   O     O_2   0.023167 0.243959 0.572565 -0.163874
O30   O     O_3   0.160795 0.332555 0.681900 -0.448854
H15   H     H_    0.163390 0.270006 0.717858 0.403644
S7    S     S_3+6 0.698430 0.668525 0.017098 0.073652
O31   O     O_2   0.682990 0.754839 0.114862 -0.194717
O32   O     O_2   0.763384 0.604670 0.054498 -0.256794
O33   O     O_3   0.739332 0.727824 0.913247 -0.443755
H16   H     H_    0.776403 0.678477 0.871986 0.363839
C37   C     C_2   0.330579 0.403911 0.195426 0.937588
O34   O     O_2   0.262928 0.435090 0.175607 -0.564508
O35   O     O_R   0.332945 0.324707 0.258202 -0.644171
H17   H     H_    0.275677 0.303296 0.286293 0.373634
C38   C     C_2   0.622763 0.586957 0.224729 0.992149
O36   O     O_2   0.619162 0.674111 0.283424 -0.562670
O37   O     O_R   0.696366 0.538747 0.227357 -0.679582
H18   H     H_    0.742268 0.586037 0.279580 0.384916
S8    S     S_3+6 0.087962 0.267102 0.357977 0.134199
O38   O     O_2   0.030120 0.168909 0.361346 -0.107075
O39   O     O_2   0.115603 0.258979 0.236932 -0.208139
O40   O     O_3   0.173741 0.265802 0.443477 -0.541273
H19   H     H_    0.193027 0.195595 0.417679 0.393107
S9    S     S_3+6 0.869150 0.267599 0.380826 0.115502
O41   O     O_2   0.876132 0.224750 0.488889 -0.177352
O42   O     O_2   0.778589 0.285917 0.363182 -0.289832
O43   O     O_3   0.887630 0.175203 0.267341 -0.397734
H20   H     H_    0.845575 0.113759 0.269703 0.405471
C39   C     C_2   0.917250 0.408760 0.260711 0.873407
O44   O     O_2   0.954989 0.366930 0.179296 -0.453742
O45   O     O_R   0.849187 0.462199 0.239049 -0.723733
H21   H     H_    0.840772 0.464607 0.154638 0.402948
S10   S     S_3+6 0.119724 0.719382 0.540713 0.144493
O46   O     O_2   0.084411 0.763388 0.652640 -0.128971
O47   O     O_2   0.211156 0.706772 0.561316 -0.253775
O48   O     O_3   0.118701 0.811494 0.458044 -0.442806
H22   H     H_    0.154008 0.874558 0.502116 0.394202
C40   C     C_2   0.092772 0.601009 0.340552 0.860378
O49   O     O_2   0.046007 0.611621 0.260832 -0.532937
O50   O     O_R   0.178888 0.598635 0.322393 -0.702295
H23   H     H_    0.193619 0.609024 0.242555 0.389757
S11   S     S_3+6 0.912371 0.712210 0.529653 0.114127
O51   O     O_2   0.959727 0.811991 0.507407 -0.121305
O52   O     O_2   0.824071 0.707308 0.479102 -0.306136
O53   O     O_3   0.906797 0.719818 0.671795 -0.464467
H24   H     H_    0.872634 0.778383 0.697528 0.403443

loop_
_geom_bond_atom_site_label_1
_geom_bond_atom_site_label_2
_ccdc_geom_bond_type
S6    O28   D    
C38   O36   D    
C31   S8    S    
S4    O20   D    
Cu1   Cu2   S    
C12   O3    A    
C3    C6    S    
S11   O51   D    
C37   O34   D    
O11   H8    S    
C26   N1    A    
C7    C8    T    
O27   H14   S    
C15   C19   A    
S8    O39   D    
C5    C40   S    
O50   H23   S    
C22   C38   S    
C31   H7    S    
C5    S10   S    
C36   O24   S    
C1    O1    A    
C20   C25   A    
C39   O44   D    
C29   C33   S    
C21   C37   S    
O40   H19   S    
Cu2   O2    S    
C18   C19   A    
C2    H2    S    
S9    O41   D    
Cu2   O8    S    
S3    O17   D    
C27   N1    A    
O33   H16   S    
C16   C17   A    
C39   O45   S    
O16   H10   S    
S2    O12   D    
C26   S5    S    
S4    O21   D    
Cu1   O3    S    
C37   O35   S    
C12   O4    A    
C21   N2    A    
S10   O47   D    
S8    O40   S    
S1    O10   D    
S2    O13   D    
C4    S11   S    
Cu2   N2    S    
O22   H12   S    
C11   C35   S    
C10   C14   A    
C30   C34   S    
C36   O23   D    
C9    C23   S    
C23   O5    A    
C25   C26   A    
S7    O33   S    
C3    C4    S    
C17   H4    S    
C35   O16   S    
O14   H9    S    
C30   S1    S    
C11   C16   A    
C27   H5    S    
C23   O6    A    
C31   C32   S    
C4    H3    S    
C8    C12   S    
C5    C34   S    
Cu1   O5    S    
S7    O32   D    
C31   C34   S    
C19   S3    S    
C28   S7    S    
C24   C25   A    
Cu1   N1    S    
S9    O43   S    
Cu2   O6    S    
C32   S9    S    
C18   S2    S    
C9    C17   A    
C13   S4    S    
S5    O26   D    
S6    O29   D    
S4    O22   S    
C22   C24   A    
O53   H24   S    
S11   O53   S    
Cu1   O7    S    
C40   O50   S    
O43   H20   S    
S10   O48   S    
S1    O9    D    
S2    O14   S    
C1    O2    A    
C1    C10   S    
C24   C28   A    
O24   H13   S    
C10   C13   A    
S11   O52   D    
C20   H6    S    
S10   O46   D    
S5    O27   S    
S8    O38   D    
C6    C33   T    
C2    C30   S    
C35   O15   D    
C2    C3    S    
O48   H22   S    
O19   H11   S    
O35   H17   S    
C11   C13   A    
C2    H1    S    
O30   H15   S    
C29   O8    A    
S3    O19   S    
S7    O31   D    
C7    C34   S    
C14   C36   S    
C32   C39   S    
C3    C32   S    
S9    O42   D    
C9    C18   A    
C4    C5    S    
C22   N2    A    
C20   C21   A    
C38   O37   S    
S5    O25   D    
S6    O30   S    
O37   H18   S    
S3    O18   D    
C14   C15   A    
C30   S6    S    
O45   H21   S    
Cu1   O1    S    
S1    O11   S    
Cu2   O4    S    
C15   C16   A    
C40   O49   D    
C27   C28   A    
C29   O7    A    
