data_mof_unit_14322.cif
_audit_creation_date              2012-10-26T21:13:39-0400
_audit_creation_method            fapswitch 2.2
_symmetry_space_group_name_H-M    P1
_symmetry_Int_Tables_number       1
_space_group_crystal_system       triclinic
_cell_length_a                    9.079101
_cell_length_b                    10.828431
_cell_length_c                    9.553737
_cell_angle_alpha                 89.888894
_cell_angle_beta                  90.023844
_cell_angle_gamma                 90.057625
_cell_volume                      939.248670719

loop_
_atom_site_label
_atom_site_type_symbol
_atom_type_description
_atom_site_fract_x
_atom_site_fract_y
_atom_site_fract_z
_atom_type_partial_charge
C1    C     C_R   0.501941 0.262448 0.500117 0.560324
C2    C     C_R   0.622058 0.536478 0.926253 0.165892
C3    C     C_3   0.696360 0.659035 0.919315 -0.275515
C4    C     C_R   0.220697 0.499878 0.499969 0.565773
C5    C     C_3   0.695199 0.659961 0.078324 -0.278250
C6    C     C_R   0.501623 0.737671 0.499961 0.545548
C7    C     C_R   0.779305 0.500044 0.500045 0.555735
C8    C     C_1   0.065551 0.499902 0.499990 -0.046931
C9    C     C_1   0.934449 0.499970 0.500062 -0.052091
C10   C     C_R   0.501122 0.063300 0.625713 0.019598
C11   C     C_R   0.513950 0.129419 0.500623 0.016554
C12   C     C_R   0.543830 0.936149 0.376429 -0.154090
C13   C     C_R   0.544477 0.064888 0.376517 -0.153397
C14   C     C_1   0.247132 0.122243 0.696221 0.200127
C15   C     C_R   0.513641 0.870888 0.500511 0.010989
C16   C     C_R   0.502472 0.936212 0.625852 -0.000414
C17   C     C_3   0.389833 0.928354 0.739832 -0.260750
C18   C     C_3   0.389045 0.069071 0.740701 -0.127674
C19   C     C_R   0.621923 0.536792 0.073422 0.165378
C20   C     C_R   0.385915 0.450921 0.074407 -0.014528
C21   C     C_R   0.385927 0.450877 0.925657 -0.016644
Cu1   Cu    Cu3+1 0.499990 0.499980 0.640670 0.954524
Cu2   Cu    Cu3+1 0.500010 0.500020 0.359330 0.945067
H1    H     H_    0.562573 0.113254 0.278667 0.137812
H2    H     H_    0.292600 0.412547 0.870395 0.132149
H3    H     H_    0.808985 0.652365 0.874399 0.133709
H4    H     H_    0.625839 0.731727 0.872065 0.149402
H5    H     H_    0.807168 0.654966 0.125077 0.133274
H6    H     H_    0.622761 0.732576 0.122291 0.140046
H7    H     H_    0.560952 0.888550 0.278508 0.124248
H8    H     H_    0.285540 0.884413 0.703948 0.145235
H9    H     H_    0.436001 0.888414 0.837615 0.120584
H10   H     H_    0.433426 0.110160 0.838581 0.116867
H11   H     H_    0.292539 0.412685 0.129744 0.126029
N1    N     N_R   0.500920 0.500930 0.147930 -0.233298
N2    N     N_R   0.500930 0.500890 0.852020 -0.235287
N3    N     N_1   0.135830 0.164221 0.661262 -0.305966
O1    O     O_R   0.500000 0.319640 0.618810 -0.494540
O2    O     O_R   0.500020 0.319680 0.381230 -0.507173
O3    O     O_R   0.288380 0.499980 0.618770 -0.499895
O4    O     O_R   0.288400 0.500020 0.381190 -0.503931
O5    O     O_R   0.499980 0.680320 0.618770 -0.504351
O6    O     O_R   0.500000 0.680360 0.381190 -0.508513
O7    O     O_R   0.711600 0.499980 0.618810 -0.494053
O8    O     O_R   0.711620 0.500020 0.381230 -0.497573

loop_
_geom_bond_atom_site_label_1
_geom_bond_atom_site_label_2
_ccdc_geom_bond_type
C5    C19   S    
C5    H5    S    
Cu1   N2    S    
C14   C18   S    
Cu2   N1    S    
Cu2   O4    S    
C12   C15   A    
C4    C8    S    
C20   H11   S    
C3    H4    S    
C2    C3    S    
C2    C19   A    
Cu1   O3    S    
C21   N2    A    
C10   C16   A    
C7    O7    A    
C12   C13   A    
C14   N3    T    
C11   C13   A    
Cu1   O5    S    
C1    O1    A    
C10   C18   S    
Cu2   O8    S    
C7    O8    A    
C17   C18   S    
C5    H6    S    
C6    O6    A    
C6    O5    A    
C17   H8    S    
C18   H10   S    
Cu2   O2    S    
C10   C11   A    
C1    O2    A    
C15   C16   A    
Cu1   O1    S    
Cu2   O6    S    
C20   C21   A    
C4    O4    A    
C2    N2    A    
C7    C9    S    
C17   H9    S    
C21   H2    S    
Cu1   Cu2   S    
C8    C9    T    
C19   N1    A    
C12   H7    S    
C6    C15   S    
C20   N1    A    
C3    H3    S    
Cu1   O7    S    
C4    O3    A    
C13   H1    S    
C16   C17   S    
C3    C5    S    
C1    C11   S    
