data_mof_unit_27720.cif
_audit_creation_date              2012-12-11T14:03:18-0500
_audit_creation_method            fapswitch 2.2
_symmetry_space_group_name_H-M    P1
_symmetry_Int_Tables_number       1
_space_group_crystal_system       triclinic
_cell_length_a                    6.932857
_cell_length_b                    11.437354
_cell_length_c                    18.689016
_cell_angle_alpha                 90.000011
_cell_angle_beta                  93.13576
_cell_angle_gamma                 90.0
_cell_volume                      1479.69939178

loop_
_atom_site_label
_atom_site_type_symbol
_atom_type_description
_atom_site_fract_x
_atom_site_fract_y
_atom_site_fract_z
_atom_type_partial_charge
O1    O     O_R   0.330540 0.606360 0.598870 -0.555770
O2    O     O_R   0.669460 0.106360 0.401130 -0.555770
O3    O     O_R   0.026770 0.620470 0.750430 -0.551799
O4    O     O_R   0.973230 0.120470 0.249570 -0.551799
O5    O     O_R   0.856460 0.393640 0.750930 -0.547112
O6    O     O_R   0.143540 0.893640 0.249070 -0.547112
C1    C     C_R   0.199039 0.648056 0.774728 0.663338
C2    C     C_R   0.800961 0.148056 0.225272 0.663338
O7    O     O_R   0.000920 0.620350 0.599420 -0.510432
O8    O     O_R   0.999080 0.120350 0.400580 -0.510432
O9    O     O_R   0.830430 0.393520 0.598850 -0.502047
O10   O     O_R   0.169570 0.893520 0.401150 -0.502047
C3    C     C_R   0.166391 0.649183 0.575445 0.757443
C4    C     C_R   0.833608 0.149183 0.424555 0.757443
O11   O     O_R   0.356570 0.606480 0.750960 -0.542794
O12   O     O_R   0.643430 0.106480 0.249040 -0.542794
O13   O     O_3   0.176990 0.425580 0.674890 -0.355662
O14   O     O_3   0.823010 0.925580 0.325110 -0.355662
V1    V     V_3+5 0.902170 0.513810 0.674910 1.535248
V2    V     V_3+5 0.097830 0.013810 0.325090 1.535249
O15   O     O_R   0.500800 0.379530 0.599380 -0.529767
O16   O     O_R   0.499200 0.879530 0.400620 -0.529767
C5    C     C_R   0.667113 0.353017 0.573977 0.829690
C6    C     C_R   0.332887 0.853017 0.426023 0.829690
O17   O     O_R   0.526650 0.379650 0.750390 -0.548487
O18   O     O_R   0.473350 0.879650 0.249610 -0.548488
C7    C     C_R   0.699150 0.351792 0.774547 0.687557
C8    C     C_R   0.300850 0.851792 0.225453 0.687557
V3    V     V_3+5 0.402160 0.486190 0.674900 1.507726
V4    V     V_3+5 0.597840 0.986190 0.325100 1.507726
O19   O     O_3   0.677210 0.574420 0.674910 -0.380072
O20   O     O_3   0.322790 0.074420 0.325090 -0.380073
C9    C     C_R   0.752721 0.068316 0.876623 -0.019890
C10   C     C_R   0.247280 0.568316 0.123377 -0.019891
H1    H     H_    0.717251 0.119666 0.765272 0.150643
H2    H     H_    0.282750 0.619666 0.234728 0.150644
H3    H     H_    0.842589 0.942878 0.999491 0.176998
H4    H     H_    0.157409 0.442878 0.000508 0.176999
C11   C     C_R   0.718402 0.268545 0.834028 -0.053874
C12   C     C_R   0.281598 0.768544 0.165972 -0.053874
C13   C     C_R   0.760687 0.348927 0.180168 -0.110259
C14   C     C_R   0.239315 0.848927 0.819832 -0.110256
C15   C     C_R   0.743105 0.430106 0.124964 -0.076919
C16   C     C_R   0.256896 0.930106 0.875036 -0.076915
C17   C     C_R   0.741487 0.393875 0.053753 -0.135221
C18   C     C_R   0.258514 0.893875 0.946248 -0.135222
C19   C     C_R   0.760229 0.273971 0.035684 0.103352
C20   C     C_R   0.239771 0.773970 0.964316 0.103351
C21   C     C_R   0.785794 0.192036 0.092801 0.088556
C22   C     C_R   0.214205 0.692036 0.907199 0.088555
C23   C     C_R   0.752586 0.232778 0.963100 0.065015
C24   C     C_R   0.247414 0.732778 0.036900 0.065015
C25   C     C_R   0.770333 0.110301 0.948817 0.067297
C26   C     C_R   0.229666 0.610301 0.051183 0.067297
C27   C     C_R   0.810302 0.034125 0.006805 -0.183427
C28   C     C_R   0.189697 0.534125 0.993195 -0.183426
C29   C     C_R   0.814660 0.073649 0.076986 -0.216113
C30   C     C_R   0.185338 0.573649 0.923014 -0.216113
C31   C     C_R   0.728095 0.309837 0.904188 -0.217328
C32   C     C_R   0.271904 0.809837 0.095811 -0.217328
C33   C     C_R   0.729554 0.149285 0.820443 -0.227604
C34   C     C_R   0.270447 0.649285 0.179557 -0.227604
C35   C     C_R   0.783271 0.230363 0.164943 -0.076582
C36   C     C_R   0.216729 0.730363 0.835056 -0.076584
H5    H     H_    0.717559 0.403140 0.910528 0.106036
H6    H     H_    0.282439 0.903140 0.089471 0.106036
H7    H     H_    0.758518 0.378802 0.235142 0.120206
H8    H     H_    0.241484 0.878802 0.764858 0.120206
H9    H     H_    0.723905 0.462414 0.014519 0.115910
H10   H     H_    0.276097 0.962414 0.985481 0.115911
H11   H     H_    0.727614 0.521995 0.137389 0.121783
H12   H     H_    0.272389 0.021995 0.862611 0.121783
H13   H     H_    0.842227 0.009765 0.119075 0.123620
H14   H     H_    0.157771 0.509765 0.880925 0.123620
C37   C     C_2   0.835208 0.239880 0.480588 0.191098
C38   C     C_2   0.164792 0.739880 0.519412 0.191098
C39   C     C_2   0.673129 0.266310 0.515355 -0.391587
C40   C     C_2   0.326871 0.766310 0.484645 -0.391587
H15   H     H_    0.538951 0.220934 0.500846 0.155003
H16   H     H_    0.461049 0.720934 0.499154 0.155003
C41   C     C_2   0.750712 0.941976 0.856078 0.734992
O21   O     O_2   0.693611 0.867055 0.896444 -0.569071
O22   O     O_R   0.804160 0.909359 0.787779 -0.667457
H17   H     H_    0.791859 0.822113 0.779045 0.304219
C42   C     C_2   0.249289 0.441976 0.143922 0.734992
O23   O     O_2   0.306387 0.367055 0.103555 -0.569071
O24   O     O_R   0.195848 0.409359 0.212222 -0.667457
H18   H     H_    0.208149 0.322113 0.220955 0.304219
Cl1   Cl    Cl    0.059623 0.313001 0.496669 -0.636458
Cl2   Cl    Cl    0.940377 0.813001 0.503331 -0.636458

loop_
_geom_bond_atom_site_label_1
_geom_bond_atom_site_label_2
_ccdc_geom_bond_type
O24   H18   S    
C21   C35   A    
C22   C36   A    
O4    C2    A    
V1    O19   S    
C41   O21   D    
C21   C29   A    
C19   C21   A    
C42   O23   D    
O9    V1    S    
C12   C32   A    
C38   C40   D    
O3    C1    A    
C40   H16   S    
C8    C12   S    
O12   V4    S    
C10   C34   A    
C12   C34   A    
O17   V3    S    
C17   C19   A    
C29   H13   S    
O7    C3    A    
C24   C32   A    
O5    C7    A    
O7    V1    S    
O6    C8    A    
O8    V2    S    
O3    V1    S    
O14   V4    S    
C24   C26   A    
C39   H15   S    
C32   H6    S    
C2    O12   A    
C14   H8    S    
C13   C15   A    
C14   C16   A    
H2    C34   S    
C41   O22   S    
C16   C18   A    
O11   V3    S    
C18   C20   A    
C25   C27   A    
C9    C25   A    
C11   C33   A    
C26   C28   A    
C42   O24   S    
C17   H9    S    
C22   C30   A    
C13   H7    S    
O8    C4    A    
C7    C11   S    
C19   C23   A    
C1    O11   A    
O15   V3    S    
C23   C25   A    
C10   C42   S    
H3    C27   S    
O1    C3    A    
C37   C39   D    
O22   H17   S    
C3    C38   S    
C11   C31   A    
O10   V2    S    
O1    V3    S    
H1    C33   S    
C5    C39   S    
C20   C22   A    
C15   C17   A    
C6    C40   S    
C10   C26   A    
O15   C5    A    
O16   C6    A    
C23   C31   A    
C13   C35   A    
C14   C36   A    
C30   H14   S    
V2    O20   S    
C15   H11   S    
O16   V4    S    
O18   V4    S    
O5    V1    S    
O17   C7    A    
O6    V2    S    
O10   C6    A    
O18   C8    A    
O2    V4    S    
C4    C37   S    
C27   C29   A    
V3    O19   S    
O13   V3    S    
C31   H5    S    
V4    O20   S    
O9    C5    A    
O13   V1    S    
C28   C30   A    
C16   H12   S    
O14   V2    S    
O2    C4    A    
C1    C36   S    
C18   H10   S    
C37   Cl1   S    
C2    C35   S    
O4    V2    S    
C20   C24   A    
H4    C28   S    
C9    C33   A    
C9    C41   S    
C38   Cl2   S    
