data_mof_unit_56986.cif
_audit_creation_date              2012-10-26T19:29:37-0400
_audit_creation_method            fapswitch 2.2
_symmetry_space_group_name_H-M    P1
_symmetry_Int_Tables_number       1
_space_group_crystal_system       triclinic
_cell_length_a                    15.891427
_cell_length_b                    14.677817
_cell_length_c                    10.652554
_cell_angle_alpha                 89.868609
_cell_angle_beta                  89.22885
_cell_angle_gamma                 90.487656
_cell_volume                      2484.40150591

loop_
_atom_site_label
_atom_site_type_symbol
_atom_type_description
_atom_site_fract_x
_atom_site_fract_y
_atom_site_fract_z
_atom_type_partial_charge
C1    C     C_R   0.339810 0.499603 0.500300 0.548480
C2    C     C_3   0.949743 0.501645 0.356663 -0.192355
C3    C     C_3   0.049127 0.510657 0.346395 0.033938
C4    C     C_1   0.825232 0.499684 0.498687 -0.081738
C5    C     C_1   0.175100 0.497127 0.492824 -0.087611
C6    C     C_R   0.502016 0.500102 0.258580 0.533783
C7    C     C_1   0.250428 0.498443 0.497524 -0.048559
C8    C     C_3   0.593557 0.054950 0.545636 -0.079489
C9    C     C_3   0.594428 0.946699 0.537850 -0.075974
C10   C     C_3   0.484573 0.052487 0.369593 -0.223014
C11   C     C_3   0.479428 0.946257 0.372226 -0.217401
C12   C     C_3   0.504730 0.500481 0.121877 0.037005
C13   C     C_3   0.506140 0.092313 0.501104 0.023162
C14   C     C_3   0.505415 0.907982 0.501869 0.026719
C15   C     C_3   0.440861 0.946423 0.598934 -0.241283
C16   C     C_3   0.438179 0.052842 0.593763 -0.237360
C17   C     C_1   0.502991 0.804811 0.502561 0.113034
C18   C     C_1   0.502854 0.195270 0.502343 0.101541
C19   C     C_R   0.660131 0.500259 0.501316 0.532822
C20   C     C_R   0.498490 0.499917 0.740932 0.547366
C21   C     C_3   0.437210 0.548771 0.044763 -0.127955
C22   C     C_3   0.495967 0.414035 0.041545 -0.121430
C23   C     C_3   0.050379 0.574853 0.571224 -0.216935
C24   C     C_3   0.428599 0.462470 0.962733 -0.128415
C25   C     C_3   0.499038 0.499880 0.877068 0.029992
C26   C     C_3   0.507501 0.586356 0.956340 -0.113564
C27   C     C_3   0.566317 0.451232 0.952954 -0.126719
C28   C     C_3   0.574546 0.537484 0.034225 -0.006931
C29   C     C_R   0.666815 0.905570 0.460529 0.040737
C30   C     C_R   0.684817 0.932370 0.335717 -0.071729
C31   C     C_R   0.754296 0.897253 0.270950 -0.101976
C32   C     C_R   0.806710 0.834854 0.329297 -0.101643
C33   C     C_R   0.788985 0.806198 0.451819 -0.108985
C34   C     C_3   0.046779 0.406068 0.544366 -0.232209
C35   C     C_R   0.719648 0.841111 0.517085 -0.091228
C36   C     C_R   0.674656 0.101945 0.497446 0.030285
C37   C     C_R   0.749548 0.085593 0.563136 -0.087960
C38   C     C_R   0.825997 0.124386 0.523403 -0.107320
C39   C     C_R   0.829058 0.180924 0.418057 -0.107364
C40   C     C_R   0.755565 0.199405 0.353009 -0.106010
C41   C     C_R   0.678916 0.160495 0.391948 -0.077222
C42   C     C_R   0.659735 0.579681 0.056727 0.021704
C43   C     C_R   0.709663 0.606903 0.953042 -0.101984
C44   C     C_R   0.789586 0.644923 0.970750 -0.117605
C45   C     C_3   0.949649 0.409316 0.554678 -0.221595
C46   C     C_R   0.820127 0.656485 0.092039 -0.116993
C47   C     C_R   0.770696 0.629992 0.195456 -0.114918
C48   C     C_R   0.691197 0.591227 0.177929 -0.082802
C49   C     C_R   0.080182 0.605509 0.296753 0.035657
C50   C     C_R   0.164018 0.615097 0.251061 -0.081924
C51   C     C_R   0.195138 0.698611 0.206878 -0.112721
C52   C     C_R   0.143792 0.774983 0.207351 -0.105971
C53   C     C_R   0.061312 0.768021 0.252456 -0.123874
C54   C     C_R   0.029655 0.684692 0.296986 -0.117026
C55   C     C_R   0.077444 0.440214 0.245491 0.017224
C56   C     C_3   0.953335 0.579116 0.569897 -0.222031
C57   C     C_R   0.137644 0.371106 0.264579 -0.108667
C58   C     C_R   0.161592 0.312947 0.166870 -0.117927
C59   C     C_R   0.126955 0.322461 0.048119 -0.106853
C60   C     C_R   0.068330 0.390482 0.026328 -0.114692
C61   C     C_R   0.044076 0.448828 0.123391 -0.102100
C62   C     C_1   0.749743 0.500511 0.500499 -0.044279
C63   C     C_3   0.083035 0.496173 0.485745 0.071485
C64   C     C_3   0.917327 0.498168 0.494873 0.051487
Cu1   Cu    Cu3+1 0.499910 0.589920 0.499840 0.960589
Cu2   Cu    Cu3+1 0.499910 0.410080 0.499840 0.962014
H1    H     H_    0.368651 0.431829 0.930165 0.111902
H2    H     H_    0.374519 0.074647 0.564134 0.118299
H3    H     H_    0.376950 0.918433 0.580215 0.118453
H4    H     H_    0.594182 0.071559 0.647820 0.092845
H5    H     H_    0.604086 0.923471 0.636326 0.077816
H6    H     H_    0.384255 0.588768 0.084616 0.107110
H7    H     H_    0.491482 0.343239 0.078097 0.118977
H8    H     H_    0.511923 0.657110 0.919544 0.119108
H9    H     H_    0.619004 0.411062 0.912593 0.110617
H10   H     H_    0.928638 0.577046 0.668204 0.111164
H11   H     H_    0.929739 0.405490 0.655183 0.118064
H12   H     H_    0.916945 0.553665 0.301367 0.091959
H13   H     H_    0.071067 0.563645 0.669539 0.112829
H14   H     H_    0.072872 0.395705 0.639794 0.110401
H15   H     H_    0.064533 0.345376 0.488955 0.110808
H16   H     H_    0.077557 0.641760 0.541939 0.131188
H17   H     H_    0.921980 0.349024 0.506972 0.117643
H18   H     H_    0.932765 0.644657 0.529337 0.103160
H19   H     H_    0.647551 0.982905 0.289180 0.100218
H20   H     H_    0.768103 0.919370 0.175834 0.100304
H21   H     H_    0.860917 0.808537 0.279355 0.092517
H22   H     H_    0.829236 0.757283 0.496697 0.091053
H23   H     H_    0.927961 0.436936 0.312526 0.115853
H24   H     H_    0.707807 0.818267 0.612478 0.091395
H25   H     H_    0.748765 0.041574 0.644913 0.089979
H26   H     H_    0.882969 0.110355 0.574253 0.097971
H27   H     H_    0.888369 0.210457 0.386790 0.098009
H28   H     H_    0.757971 0.243878 0.271802 0.103826
H29   H     H_    0.624332 0.177180 0.338217 0.100348
H30   H     H_    0.686801 0.598237 0.858416 0.109590
H31   H     H_    0.827791 0.665352 0.890456 0.097590
H32   H     H_    0.881985 0.685892 0.105840 0.102040
H33   H     H_    0.793845 0.639323 0.289537 0.111266
H34   H     H_    0.422931 0.079618 0.339064 0.108757
H35   H     H_    0.655184 0.570077 0.258949 0.139994
H36   H     H_    0.205951 0.557441 0.248536 0.116750
H37   H     H_    0.259336 0.703997 0.172193 0.101287
H38   H     H_    0.168024 0.839704 0.173200 0.100248
H39   H     H_    0.021754 0.827690 0.253702 0.099428
H40   H     H_    0.966152 0.684914 0.332998 0.085985
H41   H     H_    0.168186 0.360837 0.352760 0.110575
H42   H     H_    0.207733 0.260551 0.183264 0.101611
H43   H     H_    0.145936 0.277421 0.972775 0.099415
H44   H     H_    0.041863 0.398421 0.933855 0.096712
H45   H     H_    0.413616 0.924590 0.352545 0.111476
H46   H     H_    0.999156 0.501781 0.103031 0.105188
H47   H     H_    0.530786 0.074181 0.296868 0.095872
H48   H     H_    0.518248 0.916725 0.295471 0.113202
H49   H     H_    0.447643 0.080661 0.689685 0.106633
H50   H     H_    0.457599 0.924115 0.695260 0.106094
N1    N     N_1   0.501390 0.724970 0.502570 -0.195704
N2    N     N_1   0.501390 0.275030 0.502570 -0.198831
O1    O     O_R   0.379360 0.575970 0.499860 -0.488160
O2    O     O_R   0.379360 0.424030 0.499860 -0.494402
O3    O     O_R   0.499910 0.575920 0.316720 -0.503515
O4    O     O_R   0.499910 0.424080 0.316720 -0.503333
O5    O     O_R   0.620490 0.575900 0.499870 -0.500741
O6    O     O_R   0.620490 0.424100 0.499870 -0.484287
O7    O     O_R   0.499950 0.575950 0.683010 -0.503928
O8    O     O_R   0.499950 0.424050 0.683010 -0.495320

loop_
_geom_bond_atom_site_label_1
_geom_bond_atom_site_label_2
_ccdc_geom_bond_type
C21   C26   S    
C8    C13   S    
C56   H10   S    
C23   H16   S    
C38   H26   S    
C43   C44   A    
C3    C49   S    
C23   C56   S    
C41   H29   S    
C53   C54   A    
C19   O5    A    
C37   C38   A    
C13   C18   S    
C12   C28   S    
C15   H50   S    
C36   C37   A    
C33   H22   S    
C1    O1    A    
C30   C31   A    
C11   C14   S    
C20   C25   S    
C19   C62   S    
C51   H37   S    
C15   C16   S    
C4    C62   T    
C47   H33   S    
C5    C63   S    
C8    C36   S    
C49   C50   A    
C11   H48   S    
C39   H27   S    
C24   H1    S    
C34   H14   S    
C3    C55   S    
C47   C48   A    
C44   C46   A    
C8    C9    S    
C56   C64   S    
C56   H18   S    
C16   H2    S    
C34   H15   S    
Cu1   O3    S    
C18   N2    T    
C58   H42   S    
C17   N1    T    
C23   C63   S    
C46   H32   S    
C59   C60   A    
C31   H20   S    
Cu2   O2    S    
C14   C17   S    
C36   C41   A    
C45   H17   S    
C59   H43   S    
C27   H9    S    
C2    C64   S    
C50   C51   A    
C15   H3    S    
C19   O6    A    
C37   H25   S    
C21   H6    S    
C11   H45   S    
C51   C52   A    
C24   C25   S    
C39   C40   A    
C5    C7    T    
C54   H40   S    
C25   C26   S    
C32   H21   S    
C12   C21   S    
Cu2   O8    S    
C60   C61   A    
C1    O2    A    
Cu1   O7    S    
C2    H23   S    
C9    C14   S    
C20   O8    A    
C29   C30   A    
C2    H12   S    
C44   H31   S    
C31   C32   A    
Cu2   O4    S    
C43   H30   S    
Cu1   O1    S    
C34   C45   S    
C42   C48   A    
C30   H19   S    
C10   H34   S    
C10   H47   S    
C40   C41   A    
C57   H41   S    
C50   H36   S    
C22   C27   S    
C55   C57   A    
C12   C22   S    
C22   C24   S    
C21   C24   S    
C42   C43   A    
C6    O4    A    
C16   H49   S    
C52   C53   A    
C29   C35   A    
C46   C47   A    
C52   H38   S    
C1    C7    S    
C26   C28   S    
C9    H5    S    
C40   H28   S    
C10   C13   S    
C3    C63   S    
C25   C27   S    
C4    C64   S    
C45   C64   S    
C8    H4    S    
C22   H7    S    
C32   C33   A    
C2    C3    S    
C58   C59   A    
C20   O7    A    
C6    C12   S    
C9    C29   S    
C57   C58   A    
C38   C39   A    
C48   H35   S    
C55   C61   A    
C28   C42   S    
C34   C63   S    
C33   C35   A    
Cu2   O6    S    
Cu1   O5    S    
C60   H44   S    
C10   C11   S    
C35   H24   S    
C53   H39   S    
C26   H8    S    
Cu1   Cu2   S    
Cu2   N2    S    
C13   C16   S    
C27   C28   S    
Cu1   N1    S    
C14   C15   S    
C45   H11   S    
C6    O3    A    
C23   H13   S    
C61   H46   S    
C49   C54   A    
