data_mof_unit_9121.cif
_audit_creation_date              2012-12-10T18:50:54-0500
_audit_creation_method            fapswitch 2.2
_symmetry_space_group_name_H-M    P1
_symmetry_Int_Tables_number       1
_space_group_crystal_system       triclinic
_cell_length_a                    10.65421
_cell_length_b                    9.884446
_cell_length_c                    15.718486
_cell_angle_alpha                 90.02004
_cell_angle_beta                  90.922863
_cell_angle_gamma                 90.154409
_cell_volume                      1655.10804505

loop_
_atom_site_label
_atom_site_type_symbol
_atom_type_description
_atom_site_fract_x
_atom_site_fract_y
_atom_site_fract_z
_atom_type_partial_charge
C1    C     C_R   0.260400 0.499792 0.498853 0.911808
C2    C     C_R   0.938980 0.579650 0.559398 0.501104
C3    C     C_R   0.872755 0.498401 0.500780 -0.257130
C4    C     C_R   0.128494 0.499119 0.499051 -0.149124
C5    C     C_R   0.592903 0.072383 0.542257 0.466735
C6    C     C_R   0.590585 0.927888 0.544212 0.481720
C7    C     C_R   0.500179 0.499950 0.338336 0.893509
C8    C     C_R   0.408286 0.928038 0.457786 -0.202387
C9    C     C_R   0.407549 0.071440 0.458527 -0.195513
C10   C     C_R   0.739876 0.499896 0.500656 0.965749
C11   C     C_R   0.499712 0.499998 0.661617 0.880082
C12   C     C_3   0.643890 0.457365 0.952379 0.348640
C13   C     C_3   0.479136 0.644932 0.048972 0.336205
C14   C     C_3   0.399040 0.403865 0.048368 0.337986
C15   C     C_3   0.400424 0.405653 0.949999 -0.474502
C16   C     C_3   0.473698 0.642957 0.950129 -0.556704
C17   C     C_1   0.501190 0.499894 0.750398 -0.235122
C18   C     C_3   0.504783 0.498679 0.082489 0.111215
C19   C     C_3   0.507720 0.499135 0.917196 0.206122
C20   C     C_3   0.301964 0.202194 0.086950 -0.353702
C21   C     C_3   0.527931 0.866930 0.086913 -0.299218
C22   C     C_3   0.741544 0.572961 0.930571 -0.422761
C23   C     C_3   0.634154 0.446330 0.051475 -0.364202
C24   C     C_3   0.880923 0.539918 0.946250 -0.963438
C25   C     C_3   0.697822 0.322997 0.912533 -0.352649
C26   C     C_3   0.618090 0.194334 0.911938 -0.947206
C27   C     C_3   0.893426 0.196823 0.394097 -0.213966
C28   C     C_3   0.887422 0.593712 0.698608 -0.359420
C29   C     C_3   0.684797 0.177712 0.658462 -0.225346
C30   C     C_3   0.661733 0.855653 0.674899 -0.148305
C31   C     C_1   0.503532 0.499611 0.825679 -0.068733
C32   C     C_1   0.503541 0.499201 0.174136 0.003848
C33   C     C_1   0.501937 0.499702 0.249458 -0.150137
C34   C     C_R   0.063781 0.412889 0.443756 -0.307300
C35   C     C_R   0.067950 0.583325 0.555774 -0.293721
C36   C     C_R   0.933828 0.410949 0.444464 0.479521
H1    H     H_    0.376997 0.670416 0.928474 0.153589
H2    H     H_    0.647917 0.340149 0.072882 0.198116
H3    H     H_    0.114285 0.351195 0.398805 0.154556
H4    H     H_    0.120739 0.648549 0.598892 0.171606
H5    H     H_    0.247833 0.202376 0.025821 0.158229
H6    H     H_    0.245459 0.247521 0.138507 0.170019
H7    H     H_    0.320725 0.095306 0.104250 0.183193
H8    H     H_    0.459979 0.872848 0.139738 0.163941
H9    H     H_    0.483746 0.903208 0.026512 0.157506
H10   H     H_    0.607325 0.935857 0.102580 0.203935
H11   H     H_    0.897049 0.495913 0.010394 0.266431
H12   H     H_    0.308198 0.445008 0.926664 0.133066
H13   H     H_    0.915680 0.469195 0.897118 0.251509
H14   H     H_    0.937313 0.634232 0.941617 0.259361
H15   H     H_    0.730386 0.602348 0.862785 0.184723
H16   H     H_    0.723659 0.665096 0.968408 0.264570
H17   H     H_    0.573144 0.176876 0.973936 0.307352
H18   H     H_    0.548593 0.196669 0.858672 0.252966
H19   H     H_    0.679598 0.106088 0.899678 0.238990
H20   H     H_    0.724991 0.342470 0.845560 0.195628
H21   H     H_    0.785367 0.295789 0.947845 0.214211
H22   H     H_    0.898289 0.164089 0.461916 0.195139
H23   H     H_    0.335060 0.873834 0.423509 0.174617
H24   H     H_    0.982308 0.172316 0.361583 0.131072
H25   H     H_    0.817457 0.137305 0.362593 0.190038
H26   H     H_    0.985669 0.566016 0.716320 0.158803
H27   H     H_    0.825866 0.502768 0.700275 0.140687
H28   H     H_    0.855571 0.665350 0.747855 0.184470
H29   H     H_    0.590173 0.158217 0.685405 0.126488
H30   H     H_    0.706668 0.286871 0.665053 0.176676
H31   H     H_    0.756581 0.125189 0.697831 0.147329
H32   H     H_    0.656212 0.749721 0.696867 0.191264
H33   H     H_    0.574393 0.907894 0.695230 0.063301
H34   H     H_    0.333683 0.125213 0.424900 0.168172
H35   H     H_    0.743445 0.900114 0.709272 0.151732
H36   H     H_    0.384732 0.675577 0.072522 0.054012
H37   H     H_    0.307680 0.446764 0.069905 0.051784
H38   H     H_    0.402531 0.302429 0.923884 0.212626
H39   H     H_    0.534448 0.722570 0.922472 0.193563
H40   H     H_    0.710148 0.504695 0.084227 0.194513
N1    N     N_R   0.499970 0.857200 0.499980 -0.141310
N2    N     N_R   0.499970 0.142800 0.499980 -0.134888
O1    O     O_R   0.316750 0.614620 0.499990 -0.627170
O2    O     O_3   0.574778 0.734142 0.078971 -0.598437
O3    O     O_3   0.864840 0.335606 0.385492 -0.602452
O4    O     O_3   0.877854 0.657888 0.618542 -0.550117
O5    O     O_3   0.698376 0.140064 0.572375 -0.588402
O6    O     O_3   0.684654 0.857849 0.586386 -0.529738
O7    O     O_R   0.316750 0.385380 0.499990 -0.628118
O8    O     O_R   0.499990 0.614720 0.377140 -0.618359
O9    O     O_R   0.499990 0.385280 0.377140 -0.599776
O10   O     O_R   0.683220 0.614710 0.500000 -0.546332
O11   O     O_R   0.683220 0.385290 0.500000 -0.552581
O12   O     O_R   0.499980 0.614620 0.622860 -0.609432
O13   O     O_R   0.499980 0.385380 0.622860 -0.625513
O14   O     O_3   0.417771 0.270404 0.079521 -0.596370
Zn1   Zn    Zn3+2 0.499980 0.653120 0.500000 0.992074
Zn2   Zn    Zn3+2 0.499980 0.346880 0.500000 0.983481

loop_
_geom_bond_atom_site_label_1
_geom_bond_atom_site_label_2
_ccdc_geom_bond_type
C2    C35   A    
C16   H39   S    
C14   C18   S    
C25   H20   S    
C23   H40   S    
C19   C31   S    
C26   H19   S    
C30   H33   S    
C30   H35   S    
C15   C19   S    
C20   O14   S    
C12   C23   S    
C10   O10   A    
C13   C18   S    
C29   O5    S    
C27   H24   S    
C8    H23   S    
C5    C6    A    
C5    O5    S    
C7    O8    A    
O9    Zn2   S    
C12   C22   S    
C21   O2    S    
O11   Zn2   S    
C27   H25   S    
C29   H31   S    
C7    O9    A    
C10   O11   A    
C8    C9    A    
C16   H1    S    
C4    C35   A    
C24   H14   S    
C7    C33   S    
C25   H21   S    
C15   H12   S    
C26   H18   S    
C20   H5    S    
C21   H9    S    
C1    O7    A    
C4    C34   A    
C6    O6    S    
C28   O4    S    
C18   C23   S    
C14   H37   S    
C27   O3    S    
C9    H34   S    
C6    N1    A    
C25   C26   S    
C34   H3    S    
O8    Zn1   S    
C21   H8    S    
O7    Zn2   S    
C36   O3    S    
C14   O14   S    
C29   H29   S    
C28   H28   S    
C8    N1    A    
C17   C31   T    
C22   C24   S    
C2    O4    S    
C18   C32   S    
C26   H17   S    
C20   H7    S    
O12   Zn1   S    
C22   H16   S    
C21   H10   S    
C24   H13   S    
O10   Zn1   S    
C11   C17   S    
C24   H11   S    
C27   H22   S    
C20   H6    S    
O1    Zn1   S    
C13   H36   S    
C23   H2    S    
C12   C25   S    
C1    C4    S    
C32   C33   T    
C35   H4    S    
C3    C10   S    
O13   Zn2   S    
C11   O12   A    
C3    C36   A    
N2    Zn2   S    
C16   C19   S    
C1    O1    A    
C12   C19   S    
N1    Zn1   S    
C2    C3    A    
C34   C36   A    
C9    N2    A    
C30   O6    S    
C13   O2    S    
C29   H30   S    
C28   H27   S    
C11   O13   A    
C15   H38   S    
C13   C16   S    
C14   C15   S    
C5    N2    A    
C30   H32   S    
C22   H15   S    
C28   H26   S    
