data_mof_unit_10197.cif
_audit_creation_date              2012-12-11T16:24:14-0500
_audit_creation_method            fapswitch 2.2
_symmetry_space_group_name_H-M    P1
_symmetry_Int_Tables_number       1
_space_group_crystal_system       triclinic
_cell_length_a                    14.747075
_cell_length_b                    14.748888
_cell_length_c                    33.297048
_cell_angle_alpha                 96.180287
_cell_angle_beta                  96.289409
_cell_angle_gamma                 61.29137
_cell_volume                      6301.12586217

loop_
_atom_site_label
_atom_site_type_symbol
_atom_type_description
_atom_site_fract_x
_atom_site_fract_y
_atom_site_fract_z
_atom_type_partial_charge
C1    C     C_R   0.391978 0.697527 0.445678 0.543769
C2    C     C_R   0.332592 0.352457 0.308024 0.051314
C3    C     C_R   0.407304 0.266412 0.328294 -0.131352
C4    C     C_R   0.426719 0.274763 0.370072 -0.140839
C5    C     C_R   0.397738 0.254672 0.164898 -0.111956
C6    C     C_R   0.387211 0.236102 0.123172 -0.125522
C7    C     C_R   0.211321 0.378152 0.121739 -0.123294
C8    C     C_R   0.222090 0.396463 0.163511 -0.102317
C9    C     C_R   0.314070 0.332521 0.185168 0.043274
C10   C     C_1   0.319804 0.340739 0.228388 -0.027172
C11   C     C_1   0.324857 0.345695 0.264673 -0.028990
C12   C     C_R   0.406169 0.386791 0.433858 0.547242
C13   C     C_R   0.292464 0.295085 0.101443 0.020934
C14   C     C_R   0.764977 0.369339 0.411733 -0.024494
C15   C     C_R   0.799680 0.432991 0.397464 -0.138173
C16   C     C_R   0.840219 0.412163 0.359416 0.269834
C17   C     C_R   0.842512 0.327935 0.334412 0.022328
C18   C     C_R   0.820799 0.256884 0.350455 -0.162111
C19   C     C_R   0.782164 0.276037 0.388812 -0.032777
C20   C     C_R   0.860702 0.306806 0.208900 0.331295
C21   C     C_R   0.856478 0.318602 0.290644 0.349593
C22   C     C_R   0.847472 0.387140 0.144750 -0.119251
C23   C     C_R   0.701763 0.409253 0.447611 0.542139
C24   C     C_R   0.870254 0.377137 0.104487 -0.129699
C25   C     C_R   0.925112 0.193357 0.102349 -0.134991
C26   C     C_R   0.902896 0.203322 0.142707 -0.124912
C27   C     C_R   0.867978 0.299463 0.164750 0.037047
C28   C     C_R   0.913595 0.279370 0.083503 0.022758
C29   C     C_R   0.380915 0.734543 0.405539 -0.022430
C30   C     C_R   0.283467 0.797708 0.386898 -0.153505
C31   C     C_R   0.274484 0.816079 0.346013 -0.167727
C32   C     C_R   0.362205 0.768056 0.323136 0.026948
C33   C     C_R   0.459277 0.700053 0.341510 0.270942
C34   C     C_R   0.393467 0.701480 0.561229 0.541182
C35   C     C_R   0.468654 0.688946 0.382862 -0.104107
C36   C     C_R   0.342984 0.808224 0.200048 0.362324
C37   C     C_R   0.352780 0.787236 0.280300 0.331949
C38   C     C_R   0.268194 0.806509 0.128752 0.279067
C39   C     C_R   0.251915 0.841544 0.089522 -0.123432
C40   C     C_R   0.369225 0.913500 0.107325 -0.152335
C41   C     C_R   0.387986 0.877428 0.145678 -0.171698
C42   C     C_R   0.334763 0.828059 0.157209 0.052817
C43   C     C_R   0.297497 0.900027 0.079711 -0.019617
C44   C     C_R   0.374164 0.370407 0.586566 0.034920
C45   C     C_R   0.408410 0.389636 0.549642 0.579217
C46   C     C_R   0.267487 0.406602 0.591288 0.251080
C47   C     C_R   0.235810 0.389387 0.627237 -0.002020
C48   C     C_R   0.310785 0.343059 0.659135 -0.001603
C49   C     C_R   0.415077 0.309781 0.654366 -0.123946
C50   C     C_R   0.447921 0.322804 0.618938 -0.062295
C51   C     C_R   0.279219 0.324354 0.779741 0.343220
C52   C     C_R   0.285758 0.332057 0.699240 0.341047
C53   C     C_R   0.199010 0.391655 0.846262 -0.122226
C54   C     C_R   0.198846 0.379143 0.887225 -0.129316
C55   C     C_R   0.370306 0.231036 0.884770 -0.129782
C56   C     C_R   0.702529 0.413281 0.562420 0.536149
C57   C     C_R   0.370072 0.243070 0.843899 -0.120976
C58   C     C_R   0.282771 0.320763 0.823903 0.036346
C59   C     C_R   0.282681 0.295758 0.906359 0.022304
C60   C     C_R   0.759797 0.379649 0.601951 0.015576
C61   C     C_R   0.772353 0.452047 0.629943 -0.128470
C62   C     C_R   0.805162 0.428800 0.670187 -0.114048
C63   C     C_R   0.826491 0.332882 0.682934 0.040908
C64   C     C_R   0.821618 0.257498 0.654755 -0.118741
C65   C     C_R   0.789112 0.280490 0.614326 -0.142841
C66   C     C_R   0.902697 0.201935 0.821311 0.016437
C67   C     C_R   0.371024 0.369402 0.392017 0.005146
C68   C     C_R   0.924336 0.195131 0.863343 -0.105658
C69   C     C_R   0.879337 0.376880 0.871398 -0.133926
C70   C     C_R   0.856642 0.384586 0.829732 -0.125668
C71   C     C_R   0.870753 0.297210 0.804468 0.054766
C72   C     C_1   0.856587 0.306233 0.761322 -0.024027
C73   C     C_1   0.844528 0.316173 0.725411 -0.029234
C74   C     C_R   0.916231 0.281440 0.888515 0.005521
C75   C     C_R   0.375867 0.756054 0.601768 0.020380
C76   C     C_R   0.280020 0.792374 0.618571 -0.129255
C77   C     C_R   0.269637 0.823367 0.659633 -0.111692
C78   C     C_R   0.291492 0.453709 0.371825 -0.118739
C79   C     C_R   0.354635 0.818700 0.684307 0.042868
C80   C     C_R   0.448504 0.788695 0.667451 -0.110359
C81   C     C_R   0.459074 0.757873 0.626320 -0.128426
C82   C     C_R   0.395034 0.887152 0.832384 -0.110681
C83   C     C_R   0.376165 0.912722 0.873334 -0.126882
C84   C     C_R   0.223876 0.888144 0.861771 -0.126416
C85   C     C_R   0.242950 0.862632 0.820877 -0.112739
C86   C     C_R   0.327007 0.864589 0.805990 0.041090
C87   C     C_1   0.339642 0.848937 0.763293 -0.023591
C88   C     C_1   0.347441 0.836314 0.727303 -0.022715
C89   C     C_R   0.272124 0.446342 0.329852 0.003236
C90   C     C_R   0.288607 0.916415 0.888223 0.020737
C91   C     C_R   0.964256 0.263923 0.045814 0.545628
C92   C     C_R   0.272907 0.259642 0.059936 0.544043
C93   C     C_R   0.259458 0.959022 0.043398 0.549201
C94   C     C_R   0.963637 0.266979 0.930417 0.542730
C95   C     C_R   0.269865 0.263027 0.944691 0.544608
C96   C     C_R   0.255741 0.965505 0.928817 0.542642
Cr1   Cr    Cr6+3 0.576280 0.580550 0.506370 1.008941
Cr2   Cr    Cr6+3 0.346780 0.572400 0.496520 0.999082
Cr3   Cr    Cr6+3 0.576960 0.347070 0.497150 0.995529
Cr4   Cr    Cr6+3 0.087320 0.083240 0.984860 1.009159
Cr5   Cr    Cr6+3 0.087720 0.316210 0.996740 1.011804
Cr6   Cr    Cr6+3 0.317350 0.090340 0.995890 1.012780
H1    H     H_    0.451167 0.171823 0.108388 0.128255
H2    H     H_    0.859816 0.444913 0.090589 0.128710
H3    H     H_    0.826410 0.189767 0.331767 0.142558
H4    H     H_    0.818890 0.462702 0.160713 0.138899
H5    H     H_    0.958484 0.116907 0.086971 0.129975
H6    H     H_    0.918623 0.134633 0.157231 0.130013
H7    H     H_    0.214647 0.831422 0.403776 0.132391
H8    H     H_    0.543951 0.636147 0.396309 0.151097
H9    H     H_    0.202531 0.826134 0.066601 0.117132
H10   H     H_    0.469363 0.205219 0.181573 0.112278
H11   H     H_    0.199003 0.866715 0.332138 0.142704
H12   H     H_    0.405896 0.957780 0.100291 0.143970
H13   H     H_    0.439504 0.894152 0.167177 0.144095
H14   H     H_    0.130126 0.430477 0.903080 0.128774
H15   H     H_    0.471709 0.275894 0.679377 0.143137
H16   H     H_    0.454073 0.194116 0.311513 0.119308
H17   H     H_    0.131381 0.453117 0.831662 0.128269
H18   H     H_    0.436338 0.166478 0.898630 0.128983
H19   H     H_    0.437039 0.188921 0.827628 0.130757
H20   H     H_    0.953384 0.120783 0.876057 0.128378
H21   H     H_    0.838424 0.182785 0.664348 0.106083
H22   H     H_    0.781152 0.222910 0.593359 0.117102
H23   H     H_    0.750785 0.529022 0.621435 0.125348
H24   H     H_    0.831700 0.458177 0.816994 0.111359
H25   H     H_    0.872733 0.444525 0.889930 0.129255
H26   H     H_    0.488767 0.208871 0.384822 0.129054
H27   H     H_    0.809163 0.487489 0.691757 0.110191
H28   H     H_    0.427138 0.934684 0.892823 0.125639
H29   H     H_    0.460432 0.888636 0.821074 0.111358
H30   H     H_    0.514720 0.784838 0.686394 0.110221
H31   H     H_    0.534038 0.729782 0.614369 0.125150
H32   H     H_    0.214567 0.791828 0.600514 0.115528
H33   H     H_    0.189968 0.845076 0.800601 0.109788
H34   H     H_    0.155517 0.890826 0.872167 0.125394
H35   H     H_    0.196616 0.846647 0.672475 0.107443
H36   H     H_    0.248895 0.527578 0.388323 0.129340
H37   H     H_    0.157146 0.457195 0.179122 0.115704
H38   H     H_    0.137436 0.424909 0.105853 0.127023
H39   H     H_    0.789719 0.503202 0.414782 0.140558
N1    N     N_R   0.836431 0.397597 0.230826 -0.236768
N2    N     N_R   0.217390 0.415843 0.721099 -0.233225
N3    N     N_R   0.348532 0.243848 0.718150 -0.232137
N4    N     N_R   0.344955 0.239910 0.757535 -0.237157
N5    N     N_R   0.833782 0.403468 0.270835 -0.152778
N6    N     N_R   0.880790 0.227743 0.268704 -0.253802
N7    N     N_R   0.883535 0.221796 0.228672 -0.239169
N8    N     N_R   0.262259 0.810845 0.217168 -0.186373
N9    N     N_R   0.267150 0.800119 0.256612 -0.253817
N10   N     N_R   0.432898 0.785828 0.263290 -0.168548
N11   N     N_R   0.427914 0.796637 0.223933 -0.243573
N12   N     N_R   0.213506 0.411761 0.760638 -0.237294
O1    O     O_R   0.679450 0.499830 0.463150 -0.525890
O2    O     O_R   0.356040 0.477400 0.534170 -0.483441
O3    O     O_R   0.495910 0.323070 0.537100 -0.523882
O4    O     O_R   0.663920 0.359620 0.542290 -0.509439
O5    O     O_3   0.500010 0.500010 0.500010 -0.239408
O6    O     O_R   0.170070 0.978950 0.027680 -0.522274
O7    O     O_R   0.001760 0.175230 0.026640 -0.501278
O8    O     O_R   0.984760 0.333570 0.037150 -0.519115
O9    O     O_R   0.183410 0.309240 0.041890 -0.501475
O10   O     O_R   0.340240 0.172500 0.045430 -0.520333
O11   O     O_R   0.309670 0.000990 0.032050 -0.498667
O12   O     O_R   0.480650 0.664000 0.464630 -0.501561
O13   O     O_R   0.168330 0.982130 0.939200 -0.522388
O14   O     O_R   0.000140 0.178170 0.944610 -0.503564
O15   O     O_R   0.983010 0.336750 0.948660 -0.517865
O16   O     O_R   0.181800 0.312190 0.959860 -0.502640
O17   O     O_R   0.338500 0.175680 0.956950 -0.519659
O18   O     O_R   0.308050 0.003930 0.950020 -0.501798
O19   O     O_3   0.164130 0.163270 0.992500 -0.236432
O20   O     O_R   0.323930 0.675950 0.455370 -0.517256
O21   O     O_R   0.354700 0.475360 0.451930 -0.505599
O22   O     O_R   0.494470 0.320860 0.448390 -0.522231
O23   O     O_R   0.662580 0.357570 0.460050 -0.499473
O24   O     O_R   0.680900 0.502040 0.551870 -0.518279
O25   O     O_R   0.481990 0.666040 0.546870 -0.499225
O26   O     O_R   0.325370 0.678160 0.544080 -0.532456
C97   C     C_3   0.754850 0.198672 0.402742 -0.368592
H40   H     H_    0.791539 0.175666 0.433483 0.144900
H41   H     H_    0.669455 0.232381 0.402674 0.165572
H42   H     H_    0.783003 0.126889 0.382471 0.108064
O27   O     O_3   0.865686 0.480851 0.344616 -0.534037
C98   C     C_3   0.947990 0.487203 0.368834 0.014100
H43   H     H_    0.013115 0.463292 0.349221 0.160988
H44   H     H_    0.979602 0.435196 0.394553 0.114092
C99   C     C_3   0.912558 0.599402 0.385048 -0.254154
H45   H     H_    0.887585 0.649968 0.359227 0.187274
H46   H     H_    0.845369 0.625823 0.403755 0.164668
C100  C     C_3   0.999282 0.610527 0.410782 -0.488795
H47   H     H_    0.025479 0.560756 0.436867 0.147993
H48   H     H_    0.970764 0.692337 0.422534 0.144602
H49   H     H_    0.065758 0.588162 0.392222 0.146651
O28   O     O_3   0.546323 0.642037 0.319730 -0.537436
C101  C     C_3   0.539486 0.557672 0.297386 0.031007
H50   H     H_    0.603134 0.522750 0.276443 0.195142
H51   H     H_    0.466114 0.582796 0.278012 0.135030
C102  C     C_3   0.552452 0.474215 0.324791 -0.290152
H52   H     H_    0.619428 0.457578 0.346874 0.185799
H53   H     H_    0.482047 0.502558 0.341825 0.155624
C103  C     C_3   0.569509 0.374499 0.300219 -0.466213
H54   H     H_    0.502098 0.389520 0.278347 0.160647
H55   H     H_    0.578800 0.315979 0.320913 0.158669
H56   H     H_    0.640596 0.342759 0.283399 0.165632
O29   O     O_3   0.228205 0.744794 0.139802 -0.553655
C104  C     C_3   0.123456 0.777499 0.125835 0.017163
H57   H     H_    0.102402 0.720908 0.135803 0.159493
H58   H     H_    0.112624 0.772570 0.092351 0.112627
C105  C     C_3   0.049044 0.885097 0.144297 -0.270457
H59   H     H_    0.060443 0.885553 0.177845 0.203157
H60   H     H_    0.064982 0.945018 0.134083 0.152582
C106  C     C_3   0.936461 0.912836 0.131772 -0.486528
H61   H     H_    0.922281 0.917038 0.098396 0.146091
H62   H     H_    0.883994 0.989257 0.146334 0.153275
H63   H     H_    0.918104 0.854054 0.141465 0.151578
O30   O     O_3   0.195606 0.453281 0.559648 -0.572082
C107  C     C_3   0.146945 0.562117 0.567503 0.018878
H64   H     H_    0.204066 0.590240 0.578134 0.151855
H65   H     H_    0.090220 0.586236 0.590993 0.119732
C108  C     C_3   0.089294 0.613474 0.528473 -0.243870
H66   H     H_    0.144700 0.587827 0.504379 0.187429
H67   H     H_    0.029361 0.589198 0.518350 0.159522
C109  C     C_3   0.037242 0.731320 0.534495 -0.487974
H68   H     H_    0.980691 0.758994 0.558199 0.141059
H69   H     H_    0.995478 0.765850 0.505691 0.140805
H70   H     H_    0.096145 0.757460 0.543488 0.157939
C110  C     C_3   0.561212 0.292003 0.618076 -0.370361
H71   H     H_    0.604225 0.267659 0.647852 0.116634
H72   H     H_    0.598617 0.225600 0.595741 0.159591
H73   H     H_    0.569005 0.359207 0.610434 0.156549
C111  C     C_3   0.124505 0.416033 0.631100 -0.375399
H74   H     H_    0.088323 0.483699 0.653047 0.135527
H75   H     H_    0.077856 0.434429 0.601787 0.165482
H76   H     H_    0.121315 0.348970 0.641871 0.141706
C112  C     C_3   0.918011 0.106828 0.794812 -0.400869
H77   H     H_    0.943542 0.038543 0.812870 0.116665
H78   H     H_    0.844045 0.121288 0.777499 0.135301
H79   H     H_    0.978018 0.087932 0.773292 0.140428
C113  C     C_3   0.190941 0.539879 0.308659 -0.399702
H80   H     H_    0.150860 0.607272 0.330358 0.121774
H81   H     H_    0.227718 0.562500 0.287060 0.150082
H82   H     H_    0.131917 0.521415 0.291859 0.145071

loop_
_geom_bond_atom_site_label_1
_geom_bond_atom_site_label_2
_ccdc_geom_bond_type
Cr6   O17   S    
C7    C13   A    
C66   C68   A    
C87   C88   T    
C40   C41   A    
C80   H30   S    
C55   C59   A    
Cr4   O19   S    
C41   C42   A    
N1    N5    A    
C36   C42   S    
N6    N7    A    
C89   C113  S    
C37   N9    A    
Cr5   O15   S    
C109  H68   S    
C110  H72   S    
Cr1   O25   S    
C7    C8    A    
C106  H61   S    
C112  H77   S    
C25   C28   A    
C1    O20   A    
C26   C27   A    
C52   N3    A    
C103  H55   S    
C8    H37   S    
C5    C6    A    
C21   N6    A    
Cr4   O13   S    
Cr5   O9    S    
C77   H35   S    
C38   C42   A    
C108  C109  S    
C7    H38   S    
Cr2   O21   S    
C36   N8    A    
N2    N12   A    
C51   N4    A    
C68   C74   A    
C15   C16   A    
C23   O1    A    
O27   C98   S    
Cr5   O19   S    
C99   H46   S    
C18   C19   A    
C46   C47   A    
C65   H22   S    
C109  H69   S    
C93   O6    A    
C74   C94   S    
C79   C88   S    
C44   C50   A    
C43   C93   S    
C15   H39   S    
C50   C110  S    
C105  H59   S    
C40   C43   A    
C40   H12   S    
Cr3   O23   S    
Cr2   O5    S    
C53   C54   A    
C97   H41   S    
C16   C17   A    
C96   O18   A    
C54   H14   S    
C104  C105  S    
N10   N11   A    
C20   N7    A    
Cr5   O16   S    
C70   C71   A    
C45   O2    A    
C9    C10   S    
Cr5   O8    S    
C54   C59   A    
C97   H42   S    
C34   C75   S    
C55   H18   S    
C70   H24   S    
C39   H9    S    
C102  H52   S    
C63   C64   A    
C46   O30   S    
C62   H27   S    
C34   O26   A    
C69   C70   A    
C67   C78   A    
C84   C90   A    
C37   N10   A    
C101  C102  S    
C2    C11   S    
C78   H36   S    
C113  H81   S    
C110  H71   S    
C44   C46   A    
C57   C58   A    
C56   O24   A    
C106  H62   S    
C78   C89   A    
Cr6   O19   S    
C12   C67   S    
C49   H15   S    
C52   N2    A    
C103  H54   S    
C4    H26   S    
C30   H7    S    
C100  H47   S    
C20   N1    A    
C76   C77   A    
C72   C73   T    
C101  H51   S    
C68   H20   S    
C51   C58   S    
Cr2   O20   S    
C76   H32   S    
O29   C104  S    
Cr6   O10   S    
C98   C99   S    
C39   C43   A    
C23   O23   A    
C63   C73   S    
C93   O11   A    
C25   C26   A    
C85   C86   A    
C103  H56   S    
C113  H82   S    
C17   C21   S    
C56   C60   S    
C66   C112  S    
C60   C61   A    
C24   H2    S    
Cr3   O4    S    
C14   C23   S    
C2    C89   A    
C75   C76   A    
C100  H48   S    
C66   C71   A    
C5    C9    A    
C29   C30   A    
C3    H16   S    
C102  C103  S    
C108  H66   S    
Cr4   O7    S    
Cr1   O24   S    
C47   C48   A    
C1    O12   A    
C30   C31   A    
Cr3   O3    S    
C62   C63   A    
C111  H75   S    
C17   C18   A    
C8    C9    A    
C77   C79   A    
C69   C74   A    
C45   O3    A    
C56   O4    A    
C32   C37   S    
C84   C85   A    
C90   C96   S    
C95   O16   A    
C33   O28   S    
C91   O7    A    
C35   H8    S    
C59   C95   S    
C12   O22   A    
C92   O10   A    
C22   H4    S    
C48   C49   A    
C5    H10   S    
C85   H33   S    
C83   H28   S    
C49   C50   A    
C105  H60   S    
C22   C27   A    
C99   C100  S    
C13   C92   S    
C96   O13   A    
C80   C81   A    
C34   O25   A    
C1    C29   S    
C41   H13   S    
C94   O15   A    
C3    C4    A    
C105  C106  S    
C109  H70   S    
C53   H17   S    
C97   H40   S    
C25   H5    S    
C107  C108  S    
C12   O21   A    
C106  H63   S    
C92   O9    A    
Cr6   O18   S    
C83   C90   A    
C6    H1    S    
Cr2   O2    S    
C51   N12   A    
C38   O29   S    
C86   C87   S    
C14   C19   A    
C82   H29   S    
C31   C32   A    
C75   C81   A    
C44   C45   S    
C24   C28   A    
C101  H50   S    
Cr1   O1    S    
C94   O14   A    
C60   C65   A    
C4    C67   A    
C53   C58   A    
C16   O27   S    
C81   H31   S    
C47   C111  S    
C20   C27   S    
O28   C101  S    
C64   H21   S    
C29   C35   A    
C98   H43   S    
C112  H79   S    
C107  H65   S    
N3    N4    A    
C32   C33   A    
C55   C57   A    
C2    C3    A    
O30   C107  S    
C18   H3    S    
C71   C72   S    
C108  H67   S    
C82   C86   A    
N8    N9    A    
Cr1   O5    S    
C6    C13   A    
Cr4   O6    S    
C107  H64   S    
C38   C39   A    
C91   O8    A    
Cr1   O12   S    
C64   C65   A    
Cr4   O14   S    
C113  H80   S    
C33   C35   A    
C112  H78   S    
C28   C91   S    
C22   C24   A    
C111  H76   S    
C61   C62   A    
C95   O17   A    
C102  H53   S    
C100  H49   S    
C98   H44   S    
C10   C11   T    
C57   H19   S    
C79   C80   A    
C48   C52   S    
C21   N5    A    
Cr3   O22   S    
C69   H25   S    
Cr6   O11   S    
C82   C83   A    
Cr3   O5    S    
C104  H58   S    
C104  H57   S    
C14   C15   A    
C99   H45   S    
C61   H23   S    
Cr2   O26   S    
C19   C97   S    
C31   H11   S    
C110  H73   S    
C26   H6    S    
C36   N11   A    
C111  H74   S    
C84   H34   S    
