data_mof_unit_54266.cif
_audit_creation_date              2012-12-11T14:46:04-0500
_audit_creation_method            fapswitch 2.2
_symmetry_space_group_name_H-M    P1
_symmetry_Int_Tables_number       1
_space_group_crystal_system       triclinic
_cell_length_a                    10.882442
_cell_length_b                    10.945505
_cell_length_c                    18.782787
_cell_angle_alpha                 90.259307
_cell_angle_beta                  89.694822
_cell_angle_gamma                 119.885771
_cell_volume                      1939.74392785

loop_
_atom_site_label
_atom_site_type_symbol
_atom_type_description
_atom_site_fract_x
_atom_site_fract_y
_atom_site_fract_z
_atom_type_partial_charge
C1    C     C_R   0.868193 0.636033 0.605121 0.545162
C2    C     C_R   0.269946 0.548201 0.796243 -0.146058
C3    C     C_R   0.254527 0.533527 0.723576 -0.132896
C4    C     C_R   0.298142 0.652508 0.680336 0.026466
C5    C     C_R   0.862327 0.179440 0.826237 -0.044386
C6    C     C_R   0.066305 0.138886 0.814413 -0.083498
C7    C     C_R   0.147436 0.099299 0.773047 -0.129340
C8    C     C_R   0.122694 0.076652 0.700343 -0.121113
C9    C     C_R   0.020334 0.098764 0.668175 -0.085194
C10   C     C_R   0.938360 0.141162 0.708827 -0.001020
C11   C     C_R   0.955498 0.152994 0.783942 0.007818
C12   C     C_R   0.265565 0.629086 0.605313 0.547367
C13   C     C_R   0.738555 0.183278 0.720418 0.024696
C14   C     C_R   0.771972 0.218683 0.792266 0.014759
C15   C     C_R   0.609322 0.168870 0.695149 -0.077795
C16   C     C_R   0.532273 0.214419 0.735769 -0.138613
C17   C     C_R   0.580418 0.272427 0.802718 -0.114888
C18   C     C_R   0.700822 0.276820 0.830592 -0.067289
C19   C     C_R   0.835809 0.165984 0.676369 -0.036240
C20   C     C_R   0.707750 0.590643 0.707539 -0.130635
C21   C     C_R   0.690711 0.596434 0.780509 -0.124796
C22   C     C_R   0.809575 0.651251 0.825555 0.027733
C23   C     C_R   0.859375 0.224221 0.602980 0.539157
C24   C     C_R   0.944495 0.697178 0.797705 -0.130356
C25   C     C_R   0.961676 0.694806 0.725140 -0.114558
C26   C     C_R   0.844017 0.644473 0.679869 0.042495
C27   C     C_R   0.256432 0.538351 0.276232 -0.133907
C28   C     C_R   0.267931 0.553110 0.203565 -0.136604
C29   C     C_R   0.332761 0.687634 0.173639 0.022443
C30   C     C_R   0.371031 0.806420 0.216874 -0.140564
C31   C     C_R   0.353850 0.790586 0.290343 -0.147406
C32   C     C_R   0.301365 0.656718 0.320204 0.029542
C33   C     C_R   0.804390 0.293987 0.267610 -0.137328
C34   C     C_R   0.869100 0.637054 0.395898 0.539407
C35   C     C_R   0.793388 0.258839 0.196055 -0.129251
C36   C     C_R   0.857386 0.183656 0.169569 0.023618
C37   C     C_R   0.942955 0.155297 0.214098 -0.145522
C38   C     C_R   0.954841 0.191695 0.285711 -0.140923
C39   C     C_R   0.881739 0.257325 0.313133 0.026987
C40   C     C_R   0.964667 0.709765 0.276436 -0.128749
C41   C     C_R   0.948655 0.711156 0.203853 -0.137770
C42   C     C_R   0.812878 0.651626 0.175099 0.024285
C43   C     C_R   0.692660 0.580208 0.219141 -0.139410
C44   C     C_R   0.708988 0.577399 0.292330 -0.153845
C45   C     C_R   0.267524 0.631514 0.395141 0.539997
C46   C     C_R   0.845195 0.646474 0.321126 0.029271
C47   C     C_R   0.812564 0.109455 0.896624 0.531983
C48   C     C_R   0.393470 0.700680 0.897187 0.543657
C49   C     C_R   0.796710 0.690448 0.897413 0.541917
C50   C     C_R   0.809868 0.110340 0.101611 0.543486
C51   C     C_R   0.393205 0.704375 0.103061 0.544983
C52   C     C_R   0.797451 0.693071 0.104172 0.545655
C53   C     C_R   0.887679 0.291788 0.388464 0.558215
C54   C     C_R   0.349888 0.785763 0.710973 -0.154834
C55   C     C_R   0.368491 0.801153 0.784248 -0.141156
C56   C     C_R   0.333503 0.682527 0.826673 0.019985
Cr1   Cr    Cr6+3 0.791660 0.390250 0.499930 1.012323
Cr2   Cr    Cr6+3 0.098520 0.708290 0.500540 1.002262
Cr3   Cr    Cr6+3 0.109770 0.401430 0.499480 1.006443
Cr4   Cr    Cr6+3 0.874790 0.925890 0.000070 1.009505
Cr5   Cr    Cr6+3 0.574120 0.948670 0.999300 1.010414
Cr6   Cr    Cr6+3 0.551420 0.625320 0.000920 1.001839
H1    H     H_    0.436460 0.206683 0.714662 0.104020
H2    H     H_    0.564623 0.119342 0.644624 0.131827
H3    H     H_    0.522158 0.310172 0.833936 0.107814
H4    H     H_    0.616298 0.548443 0.672873 0.118969
H5    H     H_    0.585775 0.563826 0.801273 0.138926
H6    H     H_    0.037074 0.741142 0.831695 0.124822
H7    H     H_    0.067371 0.732415 0.704262 0.140872
H8    H     H_    0.211019 0.433289 0.297952 0.136918
H9    H     H_    0.235930 0.459870 0.171182 0.132338
H10   H     H_    0.421883 0.911570 0.194583 0.138780
H11   H     H_    0.417696 0.906161 0.806917 0.147668
H12   H     H_    0.383932 0.882110 0.323719 0.127292
H13   H     H_    0.749288 0.346202 0.287923 0.131911
H14   H     H_    0.727541 0.282757 0.162433 0.130417
H15   H     H_    0.992544 0.096685 0.194903 0.135616
H16   H     H_    0.016979 0.163961 0.319901 0.134207
H17   H     H_    0.071131 0.757910 0.297606 0.144114
H18   H     H_    0.042347 0.765538 0.170633 0.129448
H19   H     H_    0.586505 0.534320 0.197716 0.142285
H20   H     H_    0.616414 0.523981 0.326310 0.124352
H21   H     H_    0.240408 0.455267 0.828118 0.128302
H22   H     H_    0.207130 0.428226 0.701376 0.152324
H23   H     H_    0.229385 0.085521 0.797687 0.104355
H24   H     H_    0.183731 0.042828 0.668626 0.110849
H25   H     H_    0.094178 0.162039 0.869921 0.126792
H26   H     H_    0.002514 0.077676 0.611718 0.131738
H27   H     H_    0.734100 0.318845 0.883772 0.119637
O1    O     O_R   0.766500 0.250040 0.579790 -0.518053
O2    O     O_R   0.218690 0.701900 0.425960 -0.507134
O3    O     O_R   0.249490 0.516440 0.419420 -0.529938
O4    O     O_R   0.982880 0.281910 0.424890 -0.510222
O5    O     O_3   0.999980 0.499990 0.499980 -0.264436
O6    O     O_R   0.895110 0.806860 0.920430 -0.515491
O7    O     O_R   0.872260 0.046970 0.925000 -0.504135
O8    O     O_R   0.691430 0.085060 0.918550 -0.518109
O9    O     O_R   0.451490 0.822460 0.925250 -0.503671
O10   O     O_R   0.413330 0.603360 0.920440 -0.530390
O11   O     O_R   0.676110 0.626250 0.926750 -0.512709
O12   O     O_R   0.798570 0.516780 0.574780 -0.493776
O13   O     O_R   0.895350 0.809870 0.080950 -0.522956
O14   O     O_R   0.872490 0.049760 0.073800 -0.506171
O15   O     O_R   0.691680 0.088070 0.079070 -0.526660
O16   O     O_R   0.451720 0.825250 0.074050 -0.505004
O17   O     O_R   0.413580 0.606370 0.080960 -0.525956
O18   O     O_R   0.676340 0.629040 0.075550 -0.507168
O19   O     O_3   0.666780 0.833290 0.000090 -0.234452
O20   O     O_R   0.984000 0.732950 0.581090 -0.527598
O21   O     O_R   0.218600 0.700890 0.574760 -0.507110
O22   O     O_R   0.249390 0.515350 0.579940 -0.521033
O23   O     O_R   0.982790 0.280900 0.573700 -0.500602
O24   O     O_R   0.766600 0.251130 0.419260 -0.511341
O25   O     O_R   0.798660 0.517790 0.425980 -0.522084
O26   O     O_R   0.984100 0.734040 0.420570 -0.519905
H28   H     H_    0.377355 0.877032 0.678263 0.111589

loop_
_geom_bond_atom_site_label_1
_geom_bond_atom_site_label_2
_ccdc_geom_bond_type
C55   C56   A    
C50   O15   A    
Cr2   O20   S    
C41   C42   A    
C14   C18   A    
C35   C36   A    
C41   H18   S    
C12   O21   A    
C7    C8    A    
C39   C53   S    
C40   C46   A    
C23   O23   A    
C5    C47   S    
C52   O13   A    
C33   C39   A    
C20   H4    S    
C28   C29   A    
C5    C11   A    
C44   H20   S    
C9    H26   S    
C29   C51   S    
C30   C31   A    
Cr6   O19   S    
C15   C16   A    
C32   C45   S    
C45   O3    A    
Cr5   O19   S    
C1    O20   A    
C33   H13   S    
Cr5   O9    S    
C52   O18   A    
C44   C46   A    
C8    C9    A    
C54   H28   S    
Cr3   O22   S    
C15   H2    S    
C34   C46   S    
C16   H1    S    
C4    C12   S    
Cr4   O14   S    
Cr5   O16   S    
Cr2   O2    S    
Cr4   O19   S    
Cr3   O3    S    
C50   O14   A    
C21   C22   A    
C21   H5    S    
C2    H21   S    
Cr4   O13   S    
C53   O24   A    
C17   C18   A    
C38   C39   A    
C35   H14   S    
C23   O1    A    
Cr1   O1    S    
C13   C19   A    
C53   O4    A    
Cr5   O15   S    
C24   C25   A    
C47   O7    A    
C6    C11   A    
C16   C17   A    
C31   H12   S    
Cr1   O24   S    
Cr6   O18   S    
C38   H16   S    
C25   C26   A    
C37   H15   S    
C6    H25   S    
C19   C23   S    
C43   C44   A    
C37   C38   A    
C31   C32   A    
C10   C19   A    
C51   O16   A    
Cr3   O23   S    
C40   H17   S    
C49   O6    A    
C5    C14   A    
C6    C7    A    
C27   H8    S    
C22   C49   S    
Cr6   O11   S    
Cr4   O7    S    
C40   C41   A    
Cr3   O5    S    
Cr1   O5    S    
C13   C15   A    
C1    C26   S    
C43   H19   S    
C22   C24   A    
C28   H9    S    
C25   H7    S    
C42   C43   A    
C3    C4    A    
C1    O12   A    
C27   C28   A    
C36   C50   S    
C9    C10   A    
C48   C56   S    
C48   O10   A    
C54   C55   A    
C36   C37   A    
C4    C54   A    
C27   C32   A    
Cr2   O21   S    
C18   H27   S    
Cr5   O8    S    
C30   H10   S    
Cr1   O25   S    
Cr6   O17   S    
C34   O25   A    
Cr1   O12   S    
C17   H3    S    
C47   O8    A    
C2    C3    A    
C34   O26   A    
C2    C56   A    
C49   O11   A    
Cr2   O26   S    
C7    H23   S    
C20   C26   A    
C51   O17   A    
C33   C35   A    
C8    H24   S    
C48   O9    A    
Cr2   O5    S    
C45   O2    A    
C10   C11   A    
C24   H6    S    
C29   C30   A    
Cr6   O10   S    
C55   H11   S    
Cr4   O6    S    
C20   C21   A    
C3    H22   S    
Cr3   O4    S    
C13   C14   A    
C12   O22   A    
C42   C52   S    
