data_mof_unit_62640.cif
_audit_creation_date              2012-12-10T20:01:15-0500
_audit_creation_method            fapswitch 2.2
_symmetry_space_group_name_H-M    P1
_symmetry_Int_Tables_number       1
_space_group_crystal_system       triclinic
_cell_length_a                    32.144809
_cell_length_b                    32.144553
_cell_length_c                    23.561028
_cell_angle_alpha                 90.005102
_cell_angle_beta                  90.004877
_cell_angle_gamma                 89.866536
_cell_volume                      24345.0849497

loop_
_atom_site_label
_atom_site_type_symbol
_atom_type_description
_atom_site_fract_x
_atom_site_fract_y
_atom_site_fract_z
_atom_type_partial_charge
C1    C     C_R   0.000047 0.419365 0.499943 0.903888
C2    C     C_1   0.161862 0.999468 0.499034 -0.034036
C3    C     C_R   0.728333 0.966513 0.474773 -0.041303
C4    C     C_R   0.034183 0.271668 0.523451 -0.041321
C5    C     C_R   0.728043 0.034275 0.522282 -0.040394
C6    C     C_R   0.967207 0.728336 0.526858 -0.041314
C7    C     C_R   0.271962 0.967055 0.525756 -0.040230
C8    C     C_R   0.465330 0.771954 0.978915 -0.040422
C9    C     C_R   0.771663 0.532340 0.972160 -0.041258
C10   C     C_R   0.533481 0.228038 0.975579 -0.040287
C11   C     C_R   0.228334 0.466345 0.975189 -0.041292
C12   C     C_R   0.533931 0.771667 0.024112 -0.041318
C13   C     C_1   0.000482 0.838139 0.500988 -0.033928
C14   C     C_R   0.228045 0.534437 0.021800 -0.040396
C15   C     C_R   0.467365 0.228336 0.027201 -0.041297
C16   C     C_R   0.771961 0.466787 0.025099 -0.040255
C17   C     C_R   0.999835 0.293366 0.501090 -0.016667
C18   C     C_R   0.293368 0.999773 0.499041 -0.016464
C19   C     C_R   0.000195 0.706632 0.500980 -0.016518
C20   C     C_R   0.706634 0.000194 0.498951 -0.016596
C21   C     C_R   0.499823 0.793367 0.001080 -0.016643
C22   C     C_R   0.793368 0.499780 0.999023 -0.016494
C23   C     C_R   0.500211 0.206632 0.000990 -0.016512
C24   C     C_1   0.838138 0.000467 0.498948 -0.033704
C25   C     C_R   0.206633 0.500193 0.998925 -0.016623
C26   C     C_1   0.069924 0.294626 0.544199 0.181577
C27   C     C_1   0.295212 0.934673 0.554826 0.180500
C28   C     C_1   0.932740 0.705380 0.551284 0.181311
C29   C     C_1   0.704801 0.068157 0.548000 0.180867
C30   C     C_1   0.930513 0.295195 0.455730 0.181008
C31   C     C_1   0.705379 0.931391 0.452132 0.181429
C32   C     C_1   0.066732 0.704790 0.448454 0.180631
C33   C     C_1   0.294615 0.065853 0.445441 0.181163
C34   C     C_1   0.569450 0.794625 0.045556 0.181523
C35   C     C_1   0.499564 0.661861 0.001075 -0.033662
C36   C     C_1   0.795212 0.434104 0.053535 0.180551
C37   C     C_1   0.433027 0.205384 0.051971 0.181300
C38   C     C_1   0.204801 0.568499 0.047066 0.180899
C39   C     C_1   0.430989 0.795198 0.954361 0.180954
C40   C     C_1   0.205378 0.431067 0.953011 0.181459
C41   C     C_1   0.566470 0.204789 0.947804 0.180623
C42   C     C_1   0.794616 0.566408 0.946704 0.181227
C43   C     C_3   0.070833 0.203907 0.549276 -0.390342
C44   C     C_3   0.102165 0.192806 0.503022 -0.839523
C45   C     C_3   0.204545 0.930949 0.553618 -0.400138
C46   C     C_1   0.661862 0.499482 0.999020 -0.033993
C47   C     C_3   0.193981 0.942022 0.614917 -0.819690
C48   C     C_3   0.932110 0.796108 0.556377 -0.389465
C49   C     C_3   0.898333 0.807275 0.513471 -0.840365
C50   C     C_3   0.795467 0.071804 0.546390 -0.400375
C51   C     C_3   0.806032 0.064126 0.608650 -0.820724
C52   C     C_3   0.926925 0.204529 0.457535 -0.400512
C53   C     C_3   0.932787 0.193994 0.394904 -0.821203
C54   C     C_3   0.796099 0.930630 0.447031 -0.389839
C55   C     C_3   0.807244 0.898024 0.491601 -0.839978
C56   C     C_3   0.070407 0.795460 0.449834 -0.400283
C57   C     C_1   0.500502 0.338138 0.000993 -0.033932
C58   C     C_3   0.060966 0.806014 0.388031 -0.820077
C59   C     C_3   0.203889 0.066347 0.440338 -0.389070
C60   C     C_3   0.192709 0.101225 0.481571 -0.840575
C61   C     C_3   0.570302 0.703904 0.050646 -0.390182
C62   C     C_3   0.602106 0.692788 0.005004 -0.839727
C63   C     C_3   0.704544 0.430397 0.052259 -0.400195
C64   C     C_3   0.693979 0.440832 0.113764 -0.819847
C65   C     C_3   0.432432 0.296108 0.057082 -0.389348
C66   C     C_3   0.398412 0.307264 0.014525 -0.840414
C67   C     C_3   0.295467 0.572134 0.045401 -0.400447
C68   C     C_1   0.338138 0.500458 0.998931 -0.033695
C69   C     C_3   0.306012 0.564912 0.107764 -0.820845
C70   C     C_3   0.427380 0.704531 0.956095 -0.400497
C71   C     C_3   0.433908 0.693993 0.893589 -0.821034
C72   C     C_3   0.296097 0.430273 0.947909 -0.390001
C73   C     C_3   0.307214 0.397967 0.992891 -0.839886
C74   C     C_3   0.570160 0.295456 0.949153 -0.400212
C75   C     C_3   0.560398 0.306010 0.887438 -0.819980
C76   C     C_3   0.703890 0.566950 0.941597 -0.389232
C77   C     C_3   0.692734 0.601415 0.983480 -0.840508
C78   C     C_1   0.000097 0.338053 0.500460 -0.006196
C79   C     C_1   0.338054 0.000080 0.499592 -0.006116
C80   C     C_1   0.999907 0.661945 0.500414 -0.006143
C81   C     C_R   0.419365 0.000047 0.500048 0.904278
C82   C     C_1   0.661947 0.999913 0.499556 -0.006168
C83   C     C_1   0.500093 0.838054 0.000457 -0.006186
C84   C     C_1   0.838055 0.500082 0.999584 -0.006127
C85   C     C_1   0.499915 0.161945 0.000420 -0.006144
C86   C     C_1   0.161947 0.499913 0.999543 -0.006174
C87   C     C_1   0.000140 0.375261 0.500135 -0.162536
C88   C     C_1   0.375262 0.000139 0.499877 -0.162554
C89   C     C_1   0.999858 0.624738 0.500122 -0.162533
C90   C     C_1   0.624738 0.999861 0.499869 -0.162559
C91   C     C_1   0.500139 0.875261 0.000135 -0.162529
C92   C     C_R   0.999953 0.580634 0.499949 0.904142
C93   C     C_1   0.875262 0.500139 0.999875 -0.162554
C94   C     C_1   0.499860 0.124738 0.000126 -0.162533
C95   C     C_1   0.124739 0.499862 0.999864 -0.162556
C96   C     C_1   0.999829 0.124671 0.500279 -0.198849
C97   C     C_1   0.124671 0.999774 0.499761 -0.198959
C98   C     C_1   0.000201 0.875329 0.500244 -0.198946
C99   C     C_1   0.875329 0.000197 0.499729 -0.198865
C100  C     C_1   0.499819 0.624671 0.000276 -0.198855
C101  C     C_1   0.624672 0.499780 0.999757 -0.198945
C102  C     C_1   0.500211 0.375329 0.000246 -0.198944
C103  C     C_R   0.580636 0.999953 0.500054 0.904020
C104  C     C_1   0.375329 0.500192 0.999725 -0.198863
C105  C     C_R   0.999998 0.500001 0.390467 0.904617
C106  C     C_R   0.500000 0.999998 0.390467 0.904480
C107  C     C_R   0.000001 0.500000 0.609533 0.904357
C108  C     C_R   0.500000 0.000002 0.609533 0.904752
C109  C     C_R   0.499998 0.000000 0.890467 0.904648
C110  C     C_R   1.000000 0.499998 0.890467 0.904444
C111  C     C_R   0.500001 0.000000 0.109533 0.904387
C112  C     C_R   0.999999 0.500002 0.109533 0.904711
C113  C     C_R   0.080602 0.000015 0.499980 0.911737
C114  C     C_R   0.500047 0.919365 0.999944 0.903936
C115  C     C_R   0.999983 0.919398 0.500020 0.911735
C116  C     C_R   0.919398 0.999985 0.499974 0.911791
C117  C     C_R   0.000016 0.080602 0.500026 0.911774
C118  C     C_R   0.580602 0.500016 0.999980 0.911740
C119  C     C_R   0.499984 0.419398 0.000020 0.911732
C120  C     C_R   0.419398 0.499985 0.999974 0.911787
C121  C     C_R   0.500016 0.580602 0.000026 0.911783
C122  C     C_1   0.999995 0.500003 0.330322 -0.177786
C123  C     C_1   0.500001 0.999996 0.330322 -0.178760
C124  C     C_1   0.000004 0.499998 0.669678 -0.178846
C125  C     C_R   0.919365 0.500047 0.000049 0.904227
C126  C     C_1   0.499997 0.000005 0.669678 -0.177709
C127  C     C_1   0.499995 0.000002 0.830322 -0.177745
C128  C     C_1   0.000002 0.499996 0.830322 -0.178809
C129  C     C_1   0.500004 0.999999 0.169678 -0.178800
C130  C     C_1   0.999997 0.500005 0.169678 -0.177753
C131  C     C_1   0.999995 0.500004 0.279601 0.014363
C132  C     C_1   0.500003 0.999996 0.279601 0.013454
C133  C     C_1   0.000004 0.499997 0.720399 0.013383
C134  C     C_1   0.499996 0.000005 0.720399 0.014430
C135  C     C_1   0.499995 0.000004 0.779601 0.014410
C136  C     C_R   0.499953 0.080635 0.999950 0.904164
C137  C     C_1   0.000003 0.499996 0.779601 0.013402
C138  C     C_1   0.500004 0.999997 0.220399 0.013434
C139  C     C_1   0.999996 0.500005 0.220399 0.014382
C140  C     C_R   0.033987 0.227847 0.524702 0.095399
C141  C     C_R   0.228151 0.966278 0.524974 0.095884
C142  C     C_R   0.967475 0.772157 0.528070 0.095193
C143  C     C_R   0.771857 0.035004 0.521421 0.096255
C144  C     C_R   0.964414 0.228141 0.480504 0.096398
C145  C     C_R   0.772156 0.966750 0.473539 0.095299
C146  C     C_R   0.034346 0.771851 0.476713 0.096005
C147  C     C_R   0.080635 0.499953 0.000055 0.903991
C148  C     C_R   0.227842 0.031748 0.470356 0.095095
C149  C     C_R   0.533719 0.727846 0.025358 0.095362
C150  C     C_R   0.728151 0.466019 0.024304 0.095945
C151  C     C_R   0.467643 0.272158 0.028414 0.095175
C152  C     C_R   0.271856 0.535159 0.020928 0.096291
C153  C     C_R   0.464620 0.728143 0.979800 0.096344
C154  C     C_R   0.272154 0.466573 0.973948 0.095324
C155  C     C_R   0.534238 0.271850 0.976388 0.095987
C156  C     C_R   0.727842 0.532048 0.970955 0.095137
C157  C     C_R   0.999244 0.206447 0.502345 0.060670
C158  C     C_1   0.999584 0.161861 0.501084 -0.033610
C159  C     C_R   0.206449 0.999059 0.497889 0.060616
C160  C     C_R   0.000865 0.793552 0.502159 0.060705
C161  C     C_R   0.793552 0.000832 0.497725 0.060625
C162  C     C_R   0.499214 0.706447 0.002324 0.060675
C163  C     C_R   0.706449 0.499080 0.997859 0.060628
C164  C     C_R   0.500894 0.293551 0.002168 0.060638
C165  C     C_R   0.293553 0.500821 0.997690 0.060643
C166  C     C_R   0.965112 0.271953 0.479606 -0.040441
C167  C     C_R   0.271663 0.032052 0.471552 -0.041262
C168  C     C_R   0.033596 0.728041 0.475899 -0.040299
H1    H     H_    0.087496 0.172714 0.470347 0.261460
H2    H     H_    0.222804 0.901592 0.552981 0.209818
H3    H     H_    0.911183 0.827368 0.479404 0.261131
H4    H     H_    0.885238 0.778615 0.494199 0.265765
H5    H     H_    0.872896 0.824427 0.535207 0.248164
H6    H     H_    0.918037 0.777912 0.591489 0.210375
H7    H     H_    0.943810 0.824943 0.576798 0.210013
H8    H     H_    0.777119 0.059775 0.633751 0.262933
H9    H     H_    0.825954 0.036036 0.613065 0.263609
H10   H     H_    0.823147 0.091295 0.625904 0.246647
H11   H     H_    0.824527 0.077829 0.522288 0.205843
H12   H     H_    0.114127 0.221491 0.482495 0.265775
H13   H     H_    0.777214 0.101047 0.542766 0.209853
H14   H     H_    0.936389 0.222922 0.369609 0.263064
H15   H     H_    0.960736 0.174088 0.388954 0.263612
H16   H     H_    0.905145 0.176873 0.379130 0.246589
H17   H     H_    0.921617 0.175454 0.481922 0.205834
H18   H     H_    0.897808 0.222773 0.462760 0.209870
H19   H     H_    0.827344 0.911774 0.525005 0.261281
H20   H     H_    0.778578 0.885475 0.511512 0.265777
H21   H     H_    0.824380 0.872007 0.471156 0.248115
H22   H     H_    0.777907 0.915628 0.412634 0.210370
H23   H     H_    0.128748 0.175677 0.522077 0.248061
H24   H     H_    0.824944 0.941757 0.426054 0.209818
H25   H     H_    0.055898 0.777094 0.363190 0.262766
H26   H     H_    0.032775 0.825941 0.385094 0.263569
H27   H     H_    0.087628 0.823121 0.369358 0.246893
H28   H     H_    0.077108 0.824524 0.473596 0.205881
H29   H     H_    0.099729 0.777204 0.451924 0.209840
H30   H     H_    0.172621 0.089270 0.516247 0.260982
H31   H     H_    0.221363 0.114827 0.500188 0.265737
H32   H     H_    0.175547 0.126070 0.458612 0.248113
H33   H     H_    0.222085 0.079497 0.404565 0.210324
H34   H     H_    0.086779 0.222092 0.582880 0.210420
H35   H     H_    0.175059 0.054114 0.420496 0.210158
H36   H     H_    0.587772 0.672694 0.972055 0.261403
H37   H     H_    0.614285 0.721468 0.984701 0.265784
H38   H     H_    0.628485 0.675657 0.024573 0.248085
H39   H     H_    0.585903 0.722093 0.084547 0.210413
H40   H     H_    0.559561 0.675047 0.071965 0.209735
H41   H     H_    0.722894 0.446304 0.138455 0.262695
H42   H     H_    0.674049 0.469061 0.115849 0.263563
H43   H     H_    0.676875 0.414476 0.133232 0.246910
H44   H     H_    0.675485 0.423310 0.028697 0.205901
H45   H     H_    0.060321 0.175043 0.570791 0.209663
H46   H     H_    0.722803 0.401050 0.051055 0.209825
H47   H     H_    0.411069 0.327352 0.980318 0.261100
H48   H     H_    0.385214 0.278600 0.995399 0.265761
H49   H     H_    0.373095 0.324415 0.036520 0.248135
H50   H     H_    0.418558 0.277916 0.092346 0.210359
H51   H     H_    0.444240 0.324948 0.077372 0.210038
H52   H     H_    0.277090 0.560748 0.132906 0.262973
H53   H     H_    0.325929 0.536853 0.112572 0.263615
H54   H     H_    0.323126 0.592204 0.124652 0.246650
H55   H     H_    0.324536 0.577976 0.021234 0.205850
H56   H     H_    0.222896 0.947747 0.639497 0.262657
H57   H     H_    0.277217 0.601351 0.041363 0.209856
H58   H     H_    0.437780 0.722919 0.868367 0.263022
H59   H     H_    0.461916 0.674085 0.888195 0.263615
H60   H     H_    0.406435 0.676871 0.877271 0.246628
H61   H     H_    0.421812 0.675458 0.980376 0.205845
H62   H     H_    0.398211 0.722778 0.960742 0.209866
H63   H     H_    0.327311 0.411934 0.026130 0.261335
H64   H     H_    0.278536 0.385566 0.012943 0.265789
H65   H     H_    0.324343 0.371806 0.972780 0.248097
H66   H     H_    0.277909 0.415049 0.913689 0.210380
H67   H     H_    0.174053 0.970271 0.616459 0.263552
H68   H     H_    0.324954 0.441249 0.926813 0.209796
H69   H     H_    0.555194 0.277091 0.862647 0.262737
H70   H     H_    0.532197 0.325942 0.884775 0.263557
H71   H     H_    0.586965 0.323109 0.868501 0.246883
H72   H     H_    0.576987 0.324520 0.972848 0.205870
H73   H     H_    0.599493 0.277201 0.950960 0.209823
H74   H     H_    0.672659 0.589118 0.017946 0.261047
H75   H     H_    0.721398 0.614826 0.002326 0.265755
H76   H     H_    0.675567 0.626488 0.960995 0.248124
H77   H     H_    0.722081 0.580449 0.906062 0.210338
H78   H     H_    0.176874 0.915872 0.634895 0.246933
H79   H     H_    0.675050 0.554926 0.921545 0.210111
H80   H     H_    0.175485 0.923617 0.530199 0.205923
N1    N     N_1   0.098412 0.312959 0.560703 -0.197265
N2    N     N_1   0.813778 0.408076 0.076218 -0.198142
N3    N     N_1   0.405656 0.187054 0.071682 -0.197190
N4    N     N_1   0.186240 0.595627 0.067222 -0.197894
N5    N     N_1   0.403639 0.813758 0.934770 -0.197825
N6    N     N_1   0.187045 0.402947 0.935367 -0.197352
N7    N     N_1   0.592742 0.186224 0.925648 -0.198057
N8    N     N_1   0.812945 0.593563 0.926446 -0.197282
N9    N     N_1   0.313777 0.908885 0.578013 -0.198147
N10   N     N_1   0.905266 0.687047 0.570721 -0.197203
N11   N     N_1   0.686243 0.095140 0.568517 -0.197897
N12   N     N_1   0.902957 0.313754 0.436680 -0.197829
N13   N     N_1   0.687049 0.903396 0.434119 -0.197347
N14   N     N_1   0.093121 0.686224 0.426561 -0.198060
N15   N     N_1   0.312945 0.092796 0.424661 -0.197292
N16   N     N_1   0.597761 0.812958 0.062616 -0.197265
O1    O     O_R   0.965560 0.438990 0.499980 -0.612120
O2    O     O_R   0.938990 0.534440 0.999980 -0.611999
O3    O     O_R   0.534440 0.061010 0.999980 -0.612354
O4    O     O_R   0.061010 0.465560 0.999980 -0.611916
O5    O     O_R   0.534440 0.938990 0.000020 -0.611889
O6    O     O_R   0.061010 0.534440 0.000020 -0.612197
O7    O     O_R   0.465560 0.061010 0.000020 -0.611967
O8    O     O_R   0.938990 0.465560 0.000020 -0.612398
O9    O     O_R   0.060930 0.999970 0.453240 -0.617664
O10   O     O_R   0.999970 0.939070 0.453240 -0.615951
O11   O     O_R   0.939070 0.000030 0.453240 -0.617674
O12   O     O_R   0.438990 0.034440 0.499980 -0.612022
O13   O     O_R   0.000030 0.060930 0.453240 -0.615870
O14   O     O_R   0.939070 0.999970 0.546760 -0.615922
O15   O     O_R   0.000030 0.939070 0.546760 -0.617699
O16   O     O_R   0.060930 0.000030 0.546760 -0.615994
O17   O     O_R   0.999970 0.060930 0.546760 -0.617707
O18   O     O_R   0.560930 0.499970 0.953240 -0.617677
O19   O     O_R   0.499970 0.439070 0.953240 -0.615958
O20   O     O_R   0.439070 0.500030 0.953240 -0.617688
O21   O     O_R   0.500030 0.560930 0.953240 -0.615892
O22   O     O_R   0.439070 0.499970 0.046760 -0.615907
O23   O     O_R   0.034440 0.561010 0.499980 -0.612338
O24   O     O_R   0.500030 0.439070 0.046760 -0.617688
O25   O     O_R   0.560930 0.500030 0.046760 -0.615978
O26   O     O_R   0.499970 0.560930 0.046760 -0.617698
O27   O     O_R   0.965560 0.499980 0.417220 -0.612914
O28   O     O_R   0.499980 0.034440 0.417220 -0.612969
O29   O     O_R   0.034440 0.500020 0.417220 -0.612794
O30   O     O_R   0.500020 0.965560 0.417220 -0.613201
O31   O     O_R   0.034440 0.499980 0.582780 -0.613210
O32   O     O_R   0.500020 0.034440 0.582780 -0.612910
O33   O     O_R   0.965560 0.500020 0.582780 -0.612953
O34   O     O_R   0.561010 0.965560 0.499980 -0.611927
O35   O     O_R   0.499980 0.965560 0.582780 -0.612810
O36   O     O_R   0.465560 0.999980 0.917220 -0.612898
O37   O     O_R   0.999980 0.534440 0.917220 -0.612974
O38   O     O_R   0.534440 0.000020 0.917220 -0.612803
O39   O     O_R   0.000020 0.465560 0.917220 -0.613203
O40   O     O_R   0.534440 0.999980 0.082780 -0.613196
O41   O     O_R   0.000020 0.534440 0.082780 -0.612909
O42   O     O_R   0.465560 0.000020 0.082780 -0.612957
O43   O     O_R   0.999980 0.465560 0.082780 -0.612816
O44   O     O_R   0.034440 0.438990 0.500020 -0.611867
O45   O     O_R   0.561010 0.034440 0.500020 -0.612219
O46   O     O_R   0.965560 0.561010 0.500020 -0.611958
O47   O     O_R   0.438990 0.965560 0.500020 -0.612435
O48   O     O_R   0.465560 0.938990 0.999980 -0.612154
Zn1   Zn    Zn3+2 0.954010 0.500000 0.500000 0.991444
Zn2   Zn    Zn3+2 0.000000 1.000000 0.562390 0.966944
Zn3   Zn    Zn3+2 0.500000 0.500000 0.937610 0.966987
Zn4   Zn    Zn3+2 0.500000 0.500000 0.062390 0.966968
Zn5   Zn    Zn3+2 0.500000 0.045990 0.500000 0.991245
Zn6   Zn    Zn3+2 0.045990 0.500000 0.500000 0.991233
Zn7   Zn    Zn3+2 0.500000 0.954010 0.500000 0.991045
Zn8   Zn    Zn3+2 0.454010 0.000000 0.000000 0.991414
Zn9   Zn    Zn3+2 0.000000 0.545990 0.000000 0.991287
Zn10  Zn    Zn3+2 0.545990 0.000000 0.000000 0.991204
Zn11  Zn    Zn3+2 0.000000 0.454010 0.000000 0.991086
Zn12  Zn    Zn3+2 0.000000 1.000000 0.437610 0.967008

loop_
_geom_bond_atom_site_label_1
_geom_bond_atom_site_label_2
_ccdc_geom_bond_type
C1    C87   S    
C111  O42   A    
C133  C137  S    
C157  C158  S    
C77   H76   S    
C63   H44   S    
C45   H2    S    
C49   H5    S    
C152  C165  A    
C150  C163  A    
C52   C144  S    
O41   Zn9   S    
C124  C133  T    
C136  O3    A    
C118  O18   A    
C53   H15   S    
C5    C143  A    
C58   H27   S    
C66   H47   S    
C11   C154  A    
C109  C127  S    
O21   Zn3   S    
C9    C156  A    
C2    C159  S    
O22   Zn4   S    
C36   N2    T    
C51   H10   S    
C13   C160  S    
O3    Zn10  S    
C60   H30   S    
C48   H7    S    
C40   N6    T    
C59   C60   S    
C10   C41   S    
C64   H42   S    
C107  C124  S    
O39   Zn11  S    
C47   H67   S    
C45   C47   S    
C27   N9    T    
O4    Zn11  S    
C72   C154  S    
C99   C116  S    
C119  O19   A    
C37   N3    T    
C72   H68   S    
C43   C44   S    
C57   C102  T    
C26   N1    T    
C14   C38   S    
C67   H55   S    
C54   C145  S    
O25   Zn4   S    
C32   C168  S    
O28   Zn5   S    
C114  O5    A    
C109  O38   A    
O9    Zn12  S    
C105  O29   A    
C72   C73   S    
C39   N5    T    
C83   C91   T    
C58   H25   S    
O27   Zn1   S    
C31   N13   T    
C116  O14   A    
C145  C161  A    
C17   C78   S    
C69   H53   S    
C84   C93   T    
C74   H72   S    
C51   H8    S    
C81   C88   S    
C86   C95   T    
C60   H32   S    
C61   H40   S    
C126  C134  T    
O16   Zn2   S    
C148  C167  A    
C75   H70   S    
C149  C162  A    
C108  C126  S    
C61   C149  S    
O34   Zn7   S    
C143  C161  A    
C102  C119  S    
C110  C128  S    
C78   C87   T    
C103  O34   A    
C20   C82   S    
C123  C132  T    
C69   H52   S    
O42   Zn8   S    
C5    C20   A    
C120  O22   A    
C6    C19   A    
C29   N11   T    
C54   H24   S    
C114  O48   A    
C101  C118  S    
C55   H21   S    
C147  O6    A    
C17   C166  A    
C146  C160  A    
C11   C25   A    
C80   C89   T    
C15   C37   S    
C141  C159  A    
C6    C28   S    
C118  O25   A    
C110  O39   A    
C117  O17   A    
O23   Zn6   S    
C19   C80   S    
C52   H18   S    
C92   O23   A    
C45   H80   S    
C48   H6    S    
C46   C101  T    
C21   C83   S    
C96   C117  S    
C95   C147  S    
C156  C163  A    
C113  O9    A    
C65   H51   S    
C18   C79   S    
C103  O45   A    
C65   C151  S    
C105  O27   A    
C63   C150  S    
C106  O28   A    
C43   C140  S    
C55   H20   S    
C8    C153  A    
C113  O16   A    
C62   H36   S    
C3    C145  A    
C28   N10   T    
C46   C163  S    
O17   Zn2   S    
C35   C100  T    
C122  C131  T    
C7    C141  A    
C52   C53   S    
O20   Zn3   S    
O2    Zn9   S    
C54   C55   S    
C54   H22   S    
C67   C152  S    
C77   H75   S    
C147  O4    A    
C10   C155  A    
O14   Zn2   S    
C49   H4    S    
C18   C167  A    
C134  C135  S    
C41   N7    T    
C91   C114  S    
C81   O12   A    
C50   H11   S    
C70   H61   S    
O19   Zn3   S    
C53   H14   S    
C16   C36   S    
C98   C115  S    
C56   C58   S    
C105  C122  S    
O1    Zn1   S    
C63   H46   S    
C66   H48   S    
C61   C62   S    
C131  C139  S    
C63   C64   S    
C151  C164  A    
C110  O37   A    
C14   C152  A    
C16   C150  A    
C112  C130  S    
C144  C157  A    
C51   H9    S    
C45   C141  S    
O15   Zn2   S    
C70   C153  S    
C71   H60   S    
C75   H71   S    
C76   H77   S    
C73   H63   S    
C44   H12   S    
O35   Zn7   S    
O36   Zn8   S    
C121  O26   A    
C127  C135  T    
C107  O31   A    
C108  O35   A    
C67   H57   S    
C132  C138  S    
C111  O40   A    
C7    C27   S    
C100  C121  S    
O12   Zn5   S    
C44   H1    S    
C56   H28   S    
C111  C129  S    
C2    C97   T    
C112  O41   A    
O47   Zn7   S    
O48   Zn8   S    
C70   C71   S    
C6    C142  A    
O18   Zn3   S    
C73   H65   S    
O26   Zn4   S    
C33   C167  S    
C130  C139  T    
C79   C88   T    
C1    O44   A    
O5    Zn10  S    
C125  O8    A    
C107  O33   A    
C53   H16   S    
C76   C156  S    
O32   Zn5   S    
C144  C166  A    
C148  C159  A    
C116  O11   A    
C109  O36   A    
C43   H34   S    
C50   C51   S    
O11   Zn12  S    
C121  O21   A    
C61   H39   S    
C4    C17   A    
C48   C49   S    
O13   Zn12  S    
C155  C164  A    
C71   H58   S    
C30   N12   T    
C64   H41   S    
C75   H69   S    
C76   H79   S    
C19   C168  A    
C12   C34   S    
C56   H29   S    
C115  O15   A    
C146  C168  A    
C16   C22   A    
C12   C149  A    
C68   C104  T    
C4    C26   S    
C66   H49   S    
C33   N15   T    
C82   C90   T    
C34   N16   T    
C153  C162  A    
C115  O10   A    
C112  O43   A    
O6    Zn9   S    
C58   H26   S    
C74   C155  S    
C136  O7    A    
C14   C25   A    
C56   C146  S    
C93   C125  S    
C90   C103  S    
C81   O47   A    
C59   H35   S    
C120  O20   A    
O40   Zn10  S    
C47   H78   S    
C104  C120  S    
O46   Zn1   S    
C96   C158  T    
C47   H56   S    
C125  O2    A    
C24   C99   T    
O29   Zn6   S    
C108  O32   A    
C92   O46   A    
C9    C42   S    
O38   Zn10  S    
C44   H23   S    
C65   H50   S    
C9    C22   A    
O10   Zn12  S    
C69   H54   S    
C13   C98   T    
C117  O13   A    
C60   H31   S    
C74   H73   S    
O45   Zn5   S    
C129  C138  T    
C24   C161  S    
C106  C123  S    
C94   C136  S    
O7    Zn8   S    
C64   H43   S    
C8    C39   S    
C55   H19   S    
C62   H37   S    
C59   C148  S    
C15   C23   A    
C11   C40   S    
C106  O30   A    
C5    C29   S    
C38   N4    T    
C35   C162  S    
C74   C75   S    
C77   H74   S    
C3    C20   A    
C76   C77   S    
C30   C166  S    
C49   H3    S    
C12   C21   A    
C67   C69   S    
C22   C84   S    
C3    C31   S    
C128  C137  T    
C70   H62   S    
C140  C157  A    
C4    C140  A    
C85   C94   T    
C59   H33   S    
C42   N8    T    
C7    C18   A    
C8    C21   A    
C48   C142  S    
C154  C165  A    
O8    Zn11  S    
O43   Zn11  S    
C89   C92   S    
C32   N14   T    
O37   Zn9   S    
C50   H13   S    
C52   H17   S    
O24   Zn4   S    
C97   C113  S    
C43   H45   S    
C50   C143  S    
O30   Zn7   S    
O31   Zn6   S    
C71   H59   S    
C142  C160  A    
C10   C23   A    
O33   Zn1   S    
O44   Zn6   S    
C68   C165  S    
C57   C164  S    
C25   C86   S    
C72   H66   S    
C15   C151  A    
C62   H38   S    
C1    O1    A    
C65   C66   S    
C23   C85   S    
C73   H64   S    
C119  O24   A    
