data_mof_unit_24192.cif
_audit_creation_date              2013-03-05T16:09:36-0500
_audit_creation_method            fapswitch 2.2
_symmetry_space_group_name_H-M    P1
_symmetry_Int_Tables_number       1
_space_group_crystal_system       triclinic
_cell_length_a                    10.840657
_cell_length_b                    10.67029
_cell_length_c                    9.849722
_cell_angle_alpha                 89.720988
_cell_angle_beta                  104.028421
_cell_angle_gamma                 90.022342
_cell_volume                      1105.35264711

loop_
_atom_site_label
_atom_site_type_symbol
_atom_site_description
_atom_site_fract_x
_atom_site_fract_y
_atom_site_fract_z
_atom_type_partial_charge
O1    O     O_R   0.499990 0.316750 0.614620 -0.625727
O2    O     O_R   0.500010 0.683250 0.385380 -0.628720
O3    O     O_R   0.499990 0.316780 0.385290 -0.591949
O4    O     O_R   0.500010 0.683220 0.614710 -0.594367
C1    C     C_R   0.504069 0.260208 0.501399 0.953697
C2    C     C_R   0.496167 0.739829 0.498679 0.946279
O5    O     O_R   0.317810 0.500000 0.571850 -0.608678
O6    O     O_R   0.682190 0.500000 0.428150 -0.602300
O7    O     O_R   0.317810 0.500030 0.342520 -0.624304
O8    O     O_R   0.682190 0.499970 0.657480 -0.625721
C3    C     C_R   0.259118 0.502544 0.441673 0.966613
C4    C     C_R   0.740819 0.503148 0.558280 0.977451
Zn1   Zn    Zn3+2 0.500000 0.499980 0.653120 0.997399
Zn2   Zn    Zn3+2 0.500000 0.500020 0.346880 0.999525
C5    C     C_R   0.575820 0.580821 0.091685 -0.042042
C6    C     C_R   0.424191 0.419175 0.908321 -0.044542
C7    C     C_R   0.575772 0.580795 0.947838 -0.029151
C8    C     C_R   0.424230 0.419207 0.052163 -0.029360
H1    H     H_    0.877848 0.544364 0.378546 0.186918
H2    H     H_    0.122007 0.542518 0.621180 0.200141
H3    H     H_    0.636485 0.645442 0.161955 0.131166
H4    H     H_    0.363548 0.354536 0.838063 0.135847
C9    C     C_2   0.122871 0.513859 0.408475 -0.319817
C10   C     C_2   0.877004 0.514333 0.591358 -0.324444
C11   C     C_2   0.067615 0.533878 0.513149 -0.075603
C12   C     C_2   0.932254 0.534678 0.486561 -0.123952
H5    H     H_    0.931809 0.504491 0.699070 0.153181
H6    H     H_    0.068087 0.504980 0.300753 0.151999
H7    H     H_    0.636388 0.645396 0.909185 0.136938
H8    H     H_    0.363618 0.354602 0.090815 0.137504
C13   C     C_R   0.582580 0.061867 0.429873 0.330668
C14   C     C_R   0.418388 0.938257 0.570764 0.333867
C15   C     C_R   0.572800 0.933146 0.425540 -0.279633
C16   C     C_R   0.428058 0.066923 0.574967 -0.279229
H9    H     H_    0.631794 0.879798 0.372058 0.194858
H10   H     H_    0.369043 0.120213 0.628479 0.195914
C17   C     C_R   0.492969 0.872330 0.496532 -0.199706
C18   C     C_R   0.507699 0.127749 0.503798 -0.202916
N1    N     N_R   0.499970 0.499970 0.857200 -0.087603
N2    N     N_R   0.500030 0.500030 0.142800 -0.086935
N3    N     N_R   0.671832 0.123154 0.364752 0.218757
O9    O     O_R   0.743553 0.213121 0.429021 -0.390149
O10   O     O_R   0.694744 0.077431 0.251052 -0.373796
N4    N     N_R   0.329387 0.877069 0.636237 0.218444
O11   O     O_R   0.256509 0.788160 0.571417 -0.401423
O12   O     O_R   0.307595 0.922264 0.750709 -0.375100

loop_
_geom_bond_atom_site_label_1
_geom_bond_atom_site_label_2
_geom_bond_distance
_ccdc_geom_bond_type
O6    Zn2   1.942975 S    
O7    Zn2   1.965092 S    
C13   C15   1.377615 A    
C8    H8    1.081792 S    
C7    H7    1.081799 S    
N3    O9    1.301347 A    
C4    C10   1.437708 S    
C13   C18   1.405452 A    
C5    H3    1.081950 S    
O6    C4    1.285854 A    
C10   H5    1.087646 S    
C14   N4    1.438786 S    
C2    C17   1.414188 S    
C6    C8    1.416700 A    
C9    H6    1.087622 S    
O5    C3    1.285997 A    
O7    C3    1.288747 A    
O2    C2    1.280902 A    
O3    Zn2   1.989685 S    
O8    C4    1.288620 A    
O1    C1    1.280658 A    
C3    C9    1.438277 S    
C15   H9    1.084938 S    
C10   C12   1.329957 D    
C16   H10   1.084959 S    
C9    C11   1.330065 D    
O2    Zn2   1.993361 S    
C5    N2    1.366543 A    
Zn1   N1    2.010209 S    
O1    Zn1   1.993361 S    
H2    C11   1.088662 S    
C6    N1    1.366522 A    
Zn2   N2    2.010210 S    
O5    Zn1   1.942977 S    
C1    C18   1.413861 S    
N4    O11   1.300995 A    
O4    C2    1.281779 A    
C7    N1    1.366509 A    
O4    Zn1   1.989686 S    
C5    C7    1.416730 A    
H1    C12   1.088680 S    
C8    N2    1.366477 A    
C6    H4    1.081910 S    
C14   C17   1.405417 A    
C13   N3    1.439282 S    
C11   C12   1.426738 S    
C16   C18   1.395199 A    
C15   C17   1.395534 A    
N3    O10   1.301614 A    
N4    O12   1.301601 A    
O3    C1    1.281807 A    
O8    Zn1   1.965091 S    
C14   C16   1.376913 A    
