data_mof_unit_58987.cif
_audit_creation_date              2012-12-11T16:29:27-0500
_audit_creation_method            fapswitch 2.2
_symmetry_space_group_name_H-M    P1
_symmetry_Int_Tables_number       1
_space_group_crystal_system       triclinic
_cell_length_a                    6.952713
_cell_length_b                    17.347366
_cell_length_c                    18.748862
_cell_angle_alpha                 106.304014
_cell_angle_beta                  89.720233
_cell_angle_gamma                 90.4953
_cell_volume                      2170.2978937

loop_
_atom_site_label
_atom_site_type_symbol
_atom_type_description
_atom_site_fract_x
_atom_site_fract_y
_atom_site_fract_z
_atom_type_partial_charge
O1    O     O_R   0.494360 0.415680 0.413760 -0.535177
O2    O     O_R   0.818810 0.432910 0.557230 -0.525061
O3    O     O_R   0.994290 0.584320 0.586240 -0.532359
C1    C     C_R   0.649813 0.416020 0.580673 0.712654
O4    O     O_R   0.823740 0.406440 0.412520 -0.536417
O5    O     O_R   0.999250 0.557660 0.440500 -0.526311
C2    C     C_R   0.654802 0.383668 0.384855 0.688800
O6    O     O_R   0.489400 0.442340 0.559500 -0.526670
O7    O     O_3   0.662500 0.549650 0.509350 -0.355730
V1    V     V_3+5 0.935340 0.490790 0.498270 1.430160
O8    O     O_R   0.329270 0.567090 0.442770 -0.521666
C3    C     C_R   0.161128 0.584044 0.419383 0.711798
O9    O     O_R   0.324340 0.593560 0.587480 -0.534768
C4    C     C_R   0.155429 0.616367 0.615116 0.690377
V2    V     V_3+5 0.435970 0.509210 0.501730 1.436852
O10   O     O_3   0.158940 0.450350 0.490650 -0.361880
C5    C     C_R   0.312505 0.605447 0.754830 -0.145626
C6    C     C_R   0.388879 0.597266 0.820964 0.405402
C7    C     C_R   0.375151 0.661268 0.885724 -0.213554
C8    C     C_R   0.286483 0.732442 0.884164 -0.180272
C9    C     C_R   0.211134 0.742480 0.817401 0.069461
C10   C     C_R   0.224148 0.677570 0.751339 -0.001264
C11   C     C_R   0.119916 0.814998 0.816137 -0.152454
C12   C     C_R   0.041348 0.822338 0.748610 0.068404
C13   C     C_R   0.054402 0.757471 0.682519 -0.001203
C14   C     C_R   0.145510 0.684932 0.683818 -0.144026
C15   C     C_R   0.953099 0.894370 0.745067 -0.190995
C16   C     C_R   0.877524 0.902068 0.678799 -0.219366
C17   C     C_R   0.890291 0.838622 0.613571 0.406603
C18   C     C_R   0.979251 0.767502 0.615639 -0.135139
H1    H     H_    0.322463 0.553985 0.706498 0.128861
H2    H     H_    0.431782 0.655923 0.937820 0.116372
H3    H     H_    0.276375 0.779021 0.936251 0.125378
H4    H     H_    0.942525 0.946029 0.793172 0.128607
H5    H     H_    0.810405 0.958034 0.678330 0.115499
H6    H     H_    0.990033 0.720678 0.563720 0.126585
C19   C     C_1   0.111860 0.863945 0.132648 -0.218546
C20   C     C_1   0.119316 0.821382 0.176220 -0.000865
C21   C     C_1   0.128584 0.771154 0.228108 0.001067
C22   C     C_1   0.136484 0.728847 0.271901 0.006507
C23   C     C_1   0.145764 0.678612 0.323781 0.016552
C24   C     C_1   0.153234 0.636035 0.367341 -0.198045
C25   C     C_1   0.641170 0.364185 0.632788 -0.191061
C26   C     C_1   0.636993 0.321655 0.676413 0.031144
C27   C     C_1   0.633723 0.271425 0.728317 0.014857
C28   C     C_1   0.631334 0.229067 0.772108 0.010627
C29   C     C_1   0.628079 0.178760 0.823946 0.018510
C30   C     C_1   0.623915 0.136114 0.867471 -0.196819
H7    H     H_    0.325606 0.153776 0.436994 0.117012
C31   C     C_R   0.814788 0.395212 0.245201 -0.187303
C32   C     C_R   0.892575 0.403151 0.179033 -0.220339
C33   C     C_R   0.880789 0.339549 0.113850 0.407288
C34   C     C_R   0.790555 0.268033 0.115860 -0.130534
C35   C     C_R   0.713009 0.257800 0.182629 -0.005986
C36   C     C_R   0.725101 0.322811 0.248675 0.069725
C37   C     C_R   0.620511 0.184899 0.183874 -0.165634
C38   C     C_R   0.539670 0.177287 0.251269 0.072734
C39   C     C_R   0.551741 0.242368 0.317343 0.069020
C40   C     C_R   0.644276 0.315224 0.316099 -0.169318
C41   C     C_R   0.449960 0.104802 0.254771 -0.145845
C42   C     C_R   0.372371 0.097016 0.321046 -0.118008
C43   C     C_R   0.384500 0.160396 0.385462 -0.118212
C44   C     C_R   0.474089 0.232090 0.384082 -0.136377
H8    H     H_    0.824762 0.446971 0.293287 0.128188
H9    H     H_    0.960692 0.459408 0.178607 0.116710
H10   H     H_    0.780761 0.221044 0.063994 0.126850
H11   H     H_    0.439956 0.052996 0.206734 0.109641
H12   H     H_    0.303962 0.041182 0.322533 0.121400
H13   H     H_    0.483141 0.278783 0.436146 0.104203
O11   O     O_R   0.775690 0.057750 0.940570 -0.525351
O12   O     O_R   0.441200 0.093570 0.087490 -0.533678
O13   O     O_R   0.265840 0.942320 0.059480 -0.528508
C45   C     C_R   0.610093 0.116396 0.115166 0.693053
O14   O     O_R   0.446270 0.067110 0.942790 -0.522075
O15   O     O_R   0.270950 0.915660 0.913750 -0.534017
C46   C     C_R   0.615275 0.084114 0.919440 0.713410
O16   O     O_R   0.770580 0.084400 0.086300 -0.534475
O17   O     O_3   0.602640 0.950400 0.990690 -0.361171
V3    V     V_3+5 0.329740 0.009200 0.001730 1.431722
O18   O     O_R   0.940900 0.906360 0.912450 -0.536176
C47   C     C_R   0.109868 0.883561 0.884852 0.688132
O19   O     O_R   0.935830 0.932820 0.057160 -0.523164
C48   C     C_R   0.103969 0.915916 0.080585 0.708009
V4    V     V_3+5 0.829130 0.990680 0.998180 1.425364
O20   O     O_3   0.106100 0.049590 0.009310 -0.355224
O21   O     O_3   0.818852 0.844376 0.546758 -0.644272
H14   H     H_    0.760634 0.898114 0.554514 0.285274
O22   O     O_3   0.954465 0.345518 0.047139 -0.641810
H15   H     H_    0.013252 0.399544 0.054915 0.288029
O23   O     O_3   0.474440 0.525666 0.820497 -0.644014
H16   H     H_    0.521134 0.529401 0.871268 0.289925

loop_
_geom_bond_atom_site_label_1
_geom_bond_atom_site_label_2
_ccdc_geom_bond_type
C36   C40   A    
C31   H8    S    
C23   C24   T    
C30   C46   S    
C7    C8    A    
C12   C15   A    
C1    O6    A    
O12   V3    S    
C38   C39   A    
C34   C35   A    
C26   C27   S    
C17   C18   A    
O14   C46   A    
H7    C43   S    
C16   C17   A    
O13   V3    S    
O5    C3    A    
C20   C21   S    
V2    O10   S    
C13   C18   A    
C37   C38   A    
C6    C7    A    
C32   H9    S    
C3    C24   S    
C35   C36   A    
O8    V2    S    
C44   H13   S    
C41   H11   S    
C11   C12   A    
O1    V2    S    
O11   V4    S    
O7    V1    S    
O18   V4    S    
O22   H15   S    
O1    C2    A    
O9    C4    A    
C7    H2    S    
C2    C40   S    
C5    C6    A    
C15   H4    S    
C35   C37   A    
C32   C33   A    
C6    O23   S    
C33   O22   S    
C12   C13   A    
C16   H5    S    
C21   C22   T    
O4    C2    A    
O21   H14   S    
O15   C47   A    
C38   C41   A    
O16   V4    S    
C39   C40   A    
C27   C28   T    
C4    C14   S    
C41   C42   A    
O2    C1    A    
C25   C26   T    
C19   C20   T    
C29   C30   T    
C43   C44   A    
C31   C32   A    
V4    O20   S    
C34   H10   S    
C17   O21   S    
O3    C4    A    
C8    H3    S    
C22   C23   S    
O6    V2    S    
O19   V4    S    
O14   V3    S    
O9    V2    S    
O11   C46   A    
C5    H1    S    
O2    V1    S    
V3    O20   S    
C33   C34   A    
O12   C45   A    
C39   C44   A    
C28   C29   S    
C37   C45   S    
C11   C47   S    
O17   V3    S    
C5    C10   A    
O18   C47   A    
O5    V1    S    
O8    C3    A    
C1    C25   S    
C31   C36   A    
C18   H6    S    
C9    C11   A    
C13   C14   A    
O4    V1    S    
O3    V1    S    
V1    O10   S    
C42   H12   S    
O23   H16   S    
O7    V2    S    
C42   C43   A    
O13   C48   A    
O17   V4    S    
C8    C9    A    
O19   C48   A    
C10   C14   A    
C15   C16   A    
C45   O16   A    
C19   C48   S    
C9    C10   A    
O15   V3    S    
