data_mof_unit_40243.cif
_audit_creation_date              2012-10-26T20:21:44-0400
_audit_creation_method            fapswitch 2.2
_symmetry_space_group_name_H-M    P1
_symmetry_Int_Tables_number       1
_space_group_crystal_system       triclinic
_cell_length_a                    15.472551
_cell_length_b                    15.194753
_cell_length_c                    9.518133
_cell_angle_alpha                 89.664722
_cell_angle_beta                  90.000271
_cell_angle_gamma                 89.997147
_cell_volume                      2237.68989369

loop_
_atom_site_label
_atom_site_type_symbol
_atom_type_description
_atom_site_fract_x
_atom_site_fract_y
_atom_site_fract_z
_atom_type_partial_charge
C1    C     C_R   0.118585 0.380955 0.500437 0.599240
C2    C     C_R   0.996528 0.577212 0.924870 0.018817
C3    C     C_R   0.996621 0.577215 0.073710 0.015520
C4    C     C_R   0.003847 0.422836 0.926337 0.011660
C5    C     C_R   0.496515 0.922789 0.075130 0.018811
C6    C     C_R   0.503652 0.077189 0.924856 0.020159
C7    C     C_R   0.503862 0.077163 0.073661 0.011759
C8    C     C_R   0.496606 0.922786 0.926290 0.015524
C9    C     C_R   0.747565 0.319272 0.401118 0.067240
C10   C     C_R   0.254216 0.679219 0.596368 0.051515
C11   C     C_R   0.181379 0.755937 0.402764 0.053128
C12   C     C_R   0.881239 0.618927 0.499762 0.616424
C13   C     C_R   0.816992 0.244093 0.599780 0.047319
C14   C     C_R   0.183185 0.245482 0.600483 0.053401
C15   C     C_R   0.818607 0.755950 0.402812 0.052861
C16   C     C_R   0.745854 0.679311 0.596570 0.051253
C17   C     C_R   0.253276 0.320579 0.402953 0.089838
C18   C     C_R   0.245809 0.820734 0.403516 0.051277
C19   C     C_R   0.753011 0.179697 0.597554 0.089824
C20   C     C_R   0.683406 0.254282 0.399060 0.053401
C21   C     C_R   0.318651 0.744005 0.597103 0.052846
C22   C     C_R   0.681424 0.744110 0.597320 0.053147
C23   C     C_R   0.881444 0.380815 0.500451 0.577300
C24   C     C_R   0.317308 0.256215 0.400795 0.047275
C25   C     C_R   0.247360 0.180498 0.598427 0.067300
C26   C     C_R   0.754173 0.820738 0.403550 0.051481
C27   C     C_R   0.185881 0.685717 0.499432 0.058067
C28   C     C_R   0.814270 0.313987 0.501255 0.028049
C29   C     C_R   0.814125 0.685738 0.499491 0.057397
C30   C     C_R   0.185948 0.314559 0.501404 0.049518
C31   C     C_R   0.685937 0.185447 0.498598 0.049335
C32   C     C_R   0.314125 0.814262 0.500509 0.057421
C33   C     C_R   0.314311 0.186047 0.498779 0.028143
C34   C     C_R   0.118758 0.618926 0.499753 0.614119
C35   C     C_R   0.685881 0.814284 0.500568 0.058040
C36   C     C_R   0.618758 0.881075 0.500247 0.614033
C37   C     C_R   0.381465 0.119202 0.499555 0.577324
C38   C     C_R   0.381238 0.881073 0.500238 0.616533
C39   C     C_R   0.618587 0.119043 0.499562 0.598924
C40   C     C_R   0.003635 0.422809 0.075144 0.020179
Cu1   Cu    Cu3+1 1.000000 0.500000 0.640660 0.976725
Cu2   Cu    Cu3+1 1.000000 0.500000 0.359340 0.994490
Cu3   Cu    Cu3+1 0.500000 0.000000 0.640660 0.994427
Cu4   Cu    Cu3+1 0.500000 0.000000 0.359340 0.976806
H1    H     H_    0.006514 0.360958 0.131797 0.111064
H2    H     H_    0.686866 0.427255 0.321155 0.223154
H3    H     H_    0.315989 0.570473 0.671074 0.223428
H4    H     H_    0.259746 0.627913 0.793889 0.231526
H5    H     H_    0.133624 0.761372 0.204222 0.225082
H6    H     H_    0.077931 0.821684 0.323660 0.220289
H7    H     H_    0.944519 0.240342 0.647410 0.250547
H8    H     H_    0.880207 0.285290 0.774102 0.250166
H9    H     H_    0.140635 0.244310 0.802053 0.229989
H10   H     H_    0.082513 0.180684 0.690553 0.221519
H11   H     H_    0.922059 0.821705 0.323803 0.220947
H12   H     H_    0.993807 0.639068 0.868209 0.110420
H13   H     H_    0.866352 0.761473 0.204299 0.223548
H14   H     H_    0.740488 0.628175 0.794196 0.230219
H15   H     H_    0.684140 0.570642 0.671641 0.222739
H16   H     H_    0.316045 0.427143 0.324134 0.244951
H17   H     H_    0.257447 0.370011 0.204747 0.248884
H18   H     H_    0.240338 0.871971 0.205951 0.230219
H19   H     H_    0.184055 0.929451 0.328668 0.222736
H20   H     H_    0.815654 0.073366 0.677489 0.244940
H21   H     H_    0.756683 0.130748 0.796103 0.248830
H22   H     H_    0.641395 0.254880 0.197179 0.229947
H23   H     H_    0.994049 0.639056 0.129220 0.140048
H24   H     H_    0.582978 0.318863 0.307771 0.221635
H25   H     H_    0.422154 0.678208 0.675866 0.220931
H26   H     H_    0.366503 0.738364 0.795550 0.223561
H27   H     H_    0.633770 0.738783 0.795925 0.225073
H28   H     H_    0.578025 0.678402 0.676654 0.220319
H29   H     H_    0.445000 0.260181 0.354461 0.250061
H30   H     H_    0.381214 0.215515 0.226843 0.250154
H31   H     H_    0.244213 0.130733 0.797218 0.231115
H32   H     H_    0.186494 0.072315 0.677308 0.223129
H33   H     H_    0.815906 0.929447 0.328665 0.223421
H34   H     H_    0.007289 0.361061 0.870926 0.122203
H35   H     H_    0.759622 0.871958 0.205979 0.231529
H36   H     H_    0.493783 0.860933 0.131791 0.110419
H37   H     H_    0.506545 0.139040 0.868202 0.111023
H38   H     H_    0.507314 0.138935 0.129070 0.122230
H39   H     H_    0.494021 0.860945 0.870779 0.140045
H40   H     H_    0.744876 0.368531 0.201984 0.231050
N1    N     N_R   1.000000 0.500000 0.852070 -0.224176
N2    N     N_3   0.890097 0.762145 0.307079 -0.616796
N3    N     N_3   0.741231 0.605271 0.690887 -0.607808
N4    N     N_3   0.257731 0.394028 0.307476 -0.591635
N5    N     N_3   0.241138 0.894823 0.309295 -0.607762
N6    N     N_3   0.757270 0.106484 0.693524 -0.591449
N7    N     N_3   0.614731 0.258544 0.297864 -0.641859
N8    N     N_3   0.390193 0.737757 0.692731 -0.616830
N9    N     N_3   0.609981 0.737988 0.693175 -0.614775
N10   N     N_3   0.386279 0.265509 0.301184 -0.651961
N11   N     N_3   0.243739 0.107151 0.694300 -0.601412
N12   N     N_R   1.000000 0.500000 0.147930 -0.226060
N13   N     N_3   0.758829 0.894816 0.309311 -0.606583
N14   N     N_R   0.500000 0.000000 0.852070 -0.226052
N15   N     N_R   0.500000 0.000000 0.147930 -0.224152
N16   N     N_3   0.744153 0.392373 0.304744 -0.601321
N17   N     N_3   0.258914 0.605099 0.690524 -0.606574
N18   N     N_3   0.109887 0.762108 0.307008 -0.614822
N19   N     N_3   0.885603 0.235120 0.700121 -0.652068
N20   N     N_3   0.114244 0.240959 0.701155 -0.642216
O1    O     O_R   0.090170 0.409820 0.618740 -0.479078
O2    O     O_R   0.409830 0.090180 0.381260 -0.515568
O3    O     O_R   0.409830 0.090180 0.618740 -0.481552
O4    O     O_R   0.590170 0.909820 0.381260 -0.490080
O5    O     O_R   0.409830 0.909820 0.381260 -0.490028
O6    O     O_R   0.590170 0.090180 0.618740 -0.496270
O7    O     O_R   0.590170 0.090180 0.381260 -0.478955
O8    O     O_R   0.409830 0.909820 0.618740 -0.475292
O9    O     O_R   0.909830 0.590180 0.381260 -0.475309
O10   O     O_R   0.909830 0.590180 0.618740 -0.490004
O11   O     O_R   0.090170 0.409820 0.381260 -0.496368
O12   O     O_R   0.909830 0.409820 0.381260 -0.481366
O13   O     O_R   0.090170 0.590180 0.618740 -0.490110
O14   O     O_R   0.090170 0.590180 0.381260 -0.474479
O15   O     O_R   0.909830 0.409820 0.618740 -0.515698
O16   O     O_R   0.590170 0.909820 0.618740 -0.474477

loop_
_geom_bond_atom_site_label_1
_geom_bond_atom_site_label_2
_ccdc_geom_bond_type
C10   C27   A    
C34   O14   A    
H8    N19   S    
H3    N17   S    
C12   C29   S    
C36   O4    A    
C17   N4    S    
Cu1   Cu2   S    
H30   N10   S    
C35   C36   S    
Cu3   N14   S    
H20   N6    S    
Cu1   O10   S    
C19   C31   A    
H14   N3    S    
H16   N4    S    
H31   N11   S    
C11   C18   A    
C22   C35   A    
C7    N15   A    
Cu2   N12   S    
C6    N14   A    
H10   N20   S    
C40   N12   A    
C37   O3    A    
H32   N11   S    
C23   O15   A    
Cu4   N15   S    
H9    N20   S    
H7    N19   S    
C8    H39   S    
H18   N5    S    
H24   N7    S    
H13   N2    S    
C2    N1    A    
C8    N14   A    
Cu2   O9    S    
C23   O12   A    
C39   O6    A    
C5    N15   A    
C16   N3    S    
C13   C28   A    
H33   N13   S    
C3    N12   A    
Cu3   O6    S    
C32   C38   S    
C13   N19   S    
H25   N8    S    
Cu3   O16   S    
Cu4   O5    S    
C34   O13   A    
C39   O7    A    
C10   C21   A    
C6    H37   S    
C17   C30   A    
C40   H1    S    
H29   N10   S    
C14   C30   A    
C20   N7    S    
C15   C29   A    
C12   O10   A    
Cu4   O4    S    
C27   C34   S    
H21   N6    S    
C21   C32   A    
H26   N8    S    
C17   C24   A    
C13   C19   A    
H40   N16   S    
C4    C40   A    
H5    N18   S    
Cu2   O14   S    
C15   C26   A    
C4    N1    A    
C16   C29   A    
C33   C37   S    
C5    H36   S    
Cu3   Cu4   S    
C4    H34   S    
H17   N4    S    
C24   N10   S    
C26   C35   A    
C9    C20   A    
C14   N20   S    
C11   C27   A    
H19   N5    S    
Cu3   O3    S    
C23   C28   S    
Cu1   O15   S    
C38   O5    A    
H22   N7    S    
Cu1   O1    S    
C15   N2    S    
H28   N9    S    
Cu2   O12   S    
C25   N11   S    
C9    N16   S    
C22   N9    S    
C18   C32   A    
Cu3   O8    S    
C38   O8    A    
C12   O9    A    
H2    N16   S    
C16   C22   A    
C18   N5    S    
H35   N13   S    
C10   N17   S    
C3    H23   S    
C5    C8    A    
H6    N18   S    
C6    C7    A    
H27   N9    S    
Cu4   O2    S    
Cu1   N1    S    
C24   C33   A    
H11   N2    S    
C2    C3    A    
C37   O2    A    
C19   N6    S    
C2    H12   S    
H4    N17   S    
C1    C30   S    
C31   C39   S    
C11   N18   S    
C14   C25   A    
C36   O16   A    
H15   N3    S    
C26   N13   S    
Cu4   O7    S    
Cu2   O11   S    
C7    H38   S    
C1    O1    A    
C1    O11   A    
Cu1   O13   S    
C21   N8    S    
C9    C28   A    
C25   C33   A    
C20   C31   A    
