data_mof_unit_22196.cif
_audit_creation_date              2012-12-11T16:17:31-0500
_audit_creation_method            fapswitch 2.2
_symmetry_space_group_name_H-M    P1
_symmetry_Int_Tables_number       1
_space_group_crystal_system       triclinic
_cell_length_a                    6.927356
_cell_length_b                    28.780309
_cell_length_c                    32.030038
_cell_angle_alpha                 101.111566
_cell_angle_beta                  89.487226
_cell_angle_gamma                 90.178059
_cell_volume                      6265.90681811

loop_
_atom_site_label
_atom_site_type_symbol
_atom_type_description
_atom_site_fract_x
_atom_site_fract_y
_atom_site_fract_z
_atom_type_partial_charge
O1    O     O_R   0.494350 0.453160 0.452490 -0.540628
O2    O     O_R   0.820990 0.455850 0.538220 -0.527723
O3    O     O_R   0.994300 0.546840 0.547510 -0.541376
C1    C     C_R   0.652174 0.446228 0.552049 0.778970
O4    O     O_R   0.823860 0.447580 0.452250 -0.543083
O5    O     O_R   0.997190 0.538510 0.460920 -0.537161
C2    C     C_R   0.655333 0.434696 0.436373 0.714855
O6    O     O_R   0.491450 0.461490 0.539080 -0.548869
O7    O     O_3   0.661790 0.529840 0.502950 -0.374415
V1    V     V_3+5 0.935470 0.494460 0.499450 1.421606
O8    O     O_R   0.327090 0.544150 0.461780 -0.541168
C3    C     C_R   0.158824 0.554153 0.448247 0.727907
O9    O     O_R   0.324210 0.552420 0.547750 -0.541798
C4    C     C_R   0.153733 0.564758 0.564237 0.704410
V2    V     V_3+5 0.435840 0.505540 0.500550 1.397605
O10   O     O_3   0.159650 0.470160 0.497050 -0.372265
C5    C     C_R   0.968710 0.609120 0.630030 -0.068786
C6    C     C_R   0.957831 0.647064 0.665809 -0.015002
C7    C     C_R   0.120295 0.677002 0.677020 -0.009633
C8    C     C_R   0.283239 0.670819 0.650213 -0.152398
H1    H     H_    0.405842 0.694237 0.657181 0.182491
C9    C     C_R   0.292006 0.634536 0.614279 -0.161634
H2    H     H_    0.421181 0.631388 0.594656 0.119537
C10   C     C_R   0.137261 0.603025 0.603410 -0.098702
N1    N     N_R   0.219593 0.755716 0.718218 -0.256856
N2    N     N_R   0.211850 0.789784 0.753016 -0.266911
C11   C     C_R   0.107218 0.783804 0.787764 0.514008
N3    N     N_R   0.016621 0.741742 0.786791 -0.261508
N4    N     N_R   0.026270 0.707578 0.752251 -0.233331
C12   C     C_R   0.123731 0.714136 0.716796 0.584910
C13   C     C_R   0.922251 0.826101 0.851759 -0.114322
H3    H     H_    0.805954 0.800684 0.844401 0.144615
C14   C     C_R   0.902891 0.862940 0.887269 -0.157563
H4    H     H_    0.773195 0.864789 0.906650 0.127565
C15   C     C_R   0.051273 0.896399 0.898047 -0.053125
C16   C     C_R   0.217620 0.892631 0.871976 -0.147758
H5    H     H_    0.334379 0.917944 0.879221 0.122478
C17   C     C_R   0.234938 0.856487 0.835977 -0.127207
H6    H     H_    0.364585 0.854659 0.816578 0.140137
C18   C     C_R   0.088315 0.822545 0.825653 0.018959
C19   C     C_R   0.180886 0.659040 0.283877 0.615511
N5    N     N_R   0.122160 0.675764 0.325065 -0.542653
C20   C     C_R   0.052235 0.720972 0.337195 0.568844
C21   C     C_R   0.039329 0.751220 0.307511 -0.030407
C22   C     C_R   0.100611 0.734622 0.265234 -0.015618
C23   C     C_R   0.172645 0.688214 0.253246 -0.038977
C24   C     C_R   0.966168 0.797497 0.319011 -0.142252
C25   C     C_R   0.954217 0.826829 0.289000 -0.139630
C26   C     C_R   0.015639 0.810709 0.246723 -0.027813
C27   C     C_R   0.089395 0.764457 0.234848 -0.014107
C28   C     C_R   0.151857 0.747958 0.192648 -0.031836
C29   C     C_R   0.224350 0.701617 0.181108 -0.134303
C30   C     C_R   0.234249 0.672102 0.210991 -0.136126
C31   C     C_R   0.005898 0.839756 0.215985 0.572086
N6    N     N_R   0.067719 0.823308 0.174949 -0.558709
C32   C     C_R   0.139755 0.778251 0.162992 0.576553
O11   O     O_2   0.247042 0.614323 0.272526 -0.522444
O12   O     O_2   0.993570 0.736509 0.377743 -0.525020
H7    H     H_    0.917594 0.811216 0.351250 0.172620
H8    H     H_    0.896881 0.862218 0.299084 0.172404
O13   O     O_2   0.937024 0.884249 0.227203 -0.522238
O14   O     O_2   0.198078 0.762583 0.122436 -0.516163
H9    H     H_    0.273433 0.687933 0.148900 0.175914
H10   H     H_    0.290603 0.636623 0.200853 0.174424
C33   C     C_R   0.879381 0.868756 0.131024 -0.079421
H11   H     H_    0.746894 0.857232 0.144089 0.122236
C34   C     C_R   0.870398 0.898330 0.101029 -0.201814
H12   H     H_    0.730139 0.909192 0.091793 0.125884
C35   C     C_R   0.040426 0.913830 0.083419 -0.056628
C36   C     C_R   0.219422 0.898851 0.096672 -0.187358
H13   H     H_    0.353373 0.910025 0.083960 0.128389
C37   C     C_R   0.228032 0.869183 0.126541 -0.085774
H14   H     H_    0.367265 0.858239 0.136291 0.119511
C38   C     C_R   0.058240 0.853893 0.144019 0.377375
C39   C     C_R   0.269745 0.653091 0.388259 -0.196308
H15   H     H_    0.370830 0.682152 0.390024 0.151045
C40   C     C_R   0.280818 0.623259 0.417988 -0.211326
H16   H     H_    0.390357 0.629919 0.442340 0.145160
C41   C     C_R   0.149717 0.585662 0.416673 -0.106891
C42   C     C_R   0.009165 0.578101 0.384678 -0.282181
H17   H     H_    0.909126 0.548745 0.382613 0.139172
C43   C     C_R   0.999085 0.607570 0.354420 0.513659
C44   C     C_R   0.131047 0.645160 0.355950 0.290807
C45   C     C_R   0.467717 0.220493 0.835537 0.566268
N7    N     N_R   0.570176 0.178969 0.827257 -0.546243
C46   C     C_R   0.675981 0.166541 0.790614 0.580182
C47   C     C_R   0.681005 0.195991 0.760402 -0.014233
C48   C     C_R   0.576397 0.239007 0.767995 0.003469
C49   C     C_R   0.469485 0.252239 0.806261 -0.095266
C50   C     C_R   0.787649 0.182824 0.722553 -0.143518
C51   C     C_R   0.790878 0.211476 0.692272 -0.149390
C52   C     C_R   0.687867 0.254179 0.698987 -0.022362
C53   C     C_R   0.579403 0.268330 0.736960 -0.001186
C54   C     C_R   0.476687 0.311638 0.743772 -0.102591
C55   C     C_R   0.370766 0.325476 0.782551 -0.066805
C56   C     C_R   0.366194 0.295904 0.813394 -0.057417
C57   C     C_R   0.693936 0.283334 0.668575 0.629519
N8    N     N_R   0.598114 0.325512 0.675635 -0.521316
C58   C     C_R   0.490385 0.340071 0.711841 0.626441
O15   O     O_2   0.364999 0.230649 0.872067 -0.539730
O16   O     O_2   0.773908 0.125252 0.783043 -0.526814
H18   H     H_    0.869194 0.150133 0.716072 0.174262
H19   H     H_    0.875336 0.200010 0.663527 0.172777
O17   O     O_2   0.797579 0.270002 0.632382 -0.526124
O18   O     O_2   0.400487 0.382249 0.716796 -0.531113
C59   C     C_R   0.758843 0.392533 0.649646 -0.091530
C60   C     C_R   0.776028 0.420820 0.618050 0.361109
C61   C     C_R   0.643915 0.415067 0.583955 -0.124755
C62   C     C_R   0.504161 0.379257 0.580307 -0.314523
H20   H     H_    0.404379 0.373767 0.553964 0.148034
C63   C     C_R   0.492637 0.349841 0.610177 -0.131730
H21   H     H_    0.383876 0.322284 0.606605 0.149878
C64   C     C_R   0.617659 0.356112 0.644955 0.335456
C65   C     C_R   0.732260 0.136308 0.877435 -0.082974
H22   H     H_    0.869286 0.151463 0.870445 0.135649
C66   C     C_R   0.725008 0.105915 0.906747 -0.203002
H23   H     H_    0.857529 0.098144 0.921701 0.132336
C67   C     C_R   0.548282 0.086305 0.916933 -0.058187
C68   C     C_R   0.379631 0.097517 0.896739 -0.201032
H24   H     H_    0.241287 0.082849 0.903507 0.130308
C69   C     C_R   0.387442 0.127488 0.867184 -0.081782
H25   H     H_    0.256043 0.135275 0.851817 0.136348
C70   C     C_R   0.563476 0.147381 0.857405 0.376454
C71   C     C_R   0.478211 0.390280 0.372887 -0.238233
H26   H     H_    0.357347 0.414219 0.381000 0.137383
C72   C     C_R   0.466215 0.354504 0.336324 0.430927
C73   C     C_R   0.618060 0.321475 0.325511 -0.081431
C74   C     C_R   0.784176 0.326006 0.351991 -0.061583
C75   C     C_R   0.797454 0.364085 0.386879 -0.235238
H27   H     H_    0.924770 0.367492 0.406692 0.126644
C76   C     C_R   0.644462 0.396021 0.398075 -0.101434
N9    N     N_R   0.755357 0.273516 0.259130 -0.238899
N10   N     N_R   0.741751 0.239894 0.224232 -0.211078
C77   C     C_R   0.573564 0.216010 0.214346 0.541180
N11   N     N_R   0.418954 0.227477 0.240689 -0.205700
N12   N     N_R   0.433023 0.260888 0.275765 -0.218308
C78   C     C_R   0.602229 0.284245 0.286056 0.553163
C79   C     C_R   0.402515 0.171655 0.149482 0.470283
C80   C     C_R   0.395152 0.134423 0.113969 -0.167632
H28   H     H_    0.270731 0.131891 0.093397 0.168943
C81   C     C_R   0.545938 0.101400 0.104383 -0.258556
C82   C     C_R   0.705118 0.104961 0.132756 -0.120657
C83   C     C_R   0.712541 0.142564 0.168675 0.438418
C84   C     C_R   0.562758 0.176444 0.176778 -0.222042
O19   O     O_R   0.699050 0.038480 0.960880 -0.538269
O20   O     O_R   0.366680 0.052470 0.047720 -0.526426
O21   O     O_R   0.193410 0.961530 0.039110 -0.535646
C85   C     C_R   0.535119 0.064178 0.064563 0.733881
O22   O     O_R   0.369510 0.044100 0.961740 -0.543875
O23   O     O_R   0.196260 0.953110 0.952520 -0.539282
C86   C     C_R   0.538761 0.054236 0.948208 0.705695
O24   O     O_R   0.696210 0.046900 0.047470 -0.545663
O25   O     O_3   0.528780 0.970170 0.997070 -0.370526
V3    V     V_3+5 0.255080 0.005530 0.000540 1.432332
O26   O     O_R   0.866350 0.947520 0.952280 -0.540225
C87   C     C_R   0.036217 0.934763 0.936409 0.692693
O27   O     O_R   0.863520 0.955880 0.038260 -0.547514
C88   C     C_R   0.031796 0.945774 0.051877 0.711418
V4    V     V_3+5 0.754720 0.994440 0.999470 1.408485
O28   O     O_3   0.030880 0.029830 0.002930 -0.365162
C89   C     C_2   0.800568 0.576861 0.620586 0.373769
H29   H     H_    0.717638 0.576000 0.591901 0.063148
O29   O     O_2   0.752599 0.551405 0.645269 -0.504679
C90   C     C_2   0.769938 0.657402 0.688772 0.366318
H30   H     H_    0.675543 0.628969 0.694055 0.113454
O30   O     O_2   0.714711 0.698119 0.700469 -0.517300
O31   O     O_3   0.867731 0.598017 0.321701 -0.538176
C91   C     C_3   0.686178 0.615430 0.337424 -0.214523
H31   H     H_    0.691720 0.654201 0.350397 0.139371
H32   H     H_    0.630292 0.596027 0.361890 0.133139
H33   H     H_    0.582790 0.609688 0.310740 0.212642
C92   C     C_2   0.267064 0.371466 0.792237 0.556512
H34   H     H_    0.155168 0.379320 0.771282 0.129565
O32   O     O_2   0.306487 0.400807 0.823925 -0.498109
C93   C     C_2   0.250808 0.311499 0.852935 0.535404
H35   H     H_    0.319554 0.316227 0.883772 0.098931
O33   O     O_2   0.078133 0.319214 0.851124 -0.515305
C94   C     C_2   0.885696 0.402774 0.687591 0.444867
H36   H     H_    0.962976 0.436151 0.695035 0.116418
O34   O     O_2   0.908056 0.374215 0.710746 -0.535473
O35   O     O_3   0.910743 0.457052 0.622318 -0.539101
C95   C     C_3   0.091698 0.437960 0.607473 -0.154457
H37   H     H_    0.082989 0.415537 0.575081 0.122960
H38   H     H_    0.155045 0.417177 0.629768 0.129427
H39   H     H_    0.191935 0.467627 0.605561 0.168951
O36   O     O_3   0.300744 0.350657 0.312060 -0.554303
C96   C     C_3   0.308925 0.384540 0.285651 -0.202697
H40   H     H_    0.439431 0.379569 0.264707 0.133681
H41   H     H_    0.304354 0.421218 0.304653 0.131660
H42   H     H_    0.180575 0.379831 0.264784 0.180014
C97   C     C_2   0.942728 0.290697 0.346668 0.497623
H43   H     H_    0.083136 0.300855 0.360279 0.070785
O37   O     O_2   0.916676 0.249496 0.329527 -0.504726
O38   O     O_3   0.248244 0.202433 0.158346 -0.505147
C98   C     C_3   0.265452 0.237092 0.132875 -0.167300
H44   H     H_    0.253050 0.221157 0.098477 0.112188
H45   H     H_    0.403345 0.257148 0.139035 0.116287
H46   H     H_    0.145546 0.262767 0.141147 0.177895
C99   C     C_2   0.857033 0.067757 0.127267 0.459957
H47   H     H_    0.821194 0.031236 0.113968 0.018939
O39   O     O_2   0.023504 0.077318 0.137878 -0.507042
O40   O     O_3   0.867594 0.146139 0.196137 -0.497164
C100  C     C_3   0.820986 0.122321 0.229511 -0.049303
H48   H     H_    0.790490 0.084147 0.217338 0.100675
H49   H     H_    0.696499 0.139160 0.248782 0.114577
H50   H     H_    0.946865 0.124503 0.250965 0.180280

loop_
_geom_bond_atom_site_label_1
_geom_bond_atom_site_label_2
_ccdc_geom_bond_type
N6    C32   A    
C72   C73   A    
C98   H45   S    
C56   C93   S    
C19   N5    A    
C55   C56   A    
C1    O6    A    
C74   C75   A    
C57   N8    A    
N11   N12   A    
C93   O33   D    
C40   H16   S    
C13   C18   A    
C100  H49   S    
N2    C11   A    
O27   C88   A    
C60   O35   S    
C54   C58   A    
N3    N4    A    
C92   H34   S    
C6    C7    A    
C35   C36   A    
O22   C86   A    
V4    O28   S    
O5    C3    A    
C17   H6    S    
O19   V4    S    
C30   H10   S    
C91   H32   S    
C59   C60   A    
C26   C31   A    
C3    C41   S    
C46   O16   S    
C61   C62   A    
C5    C6    A    
C28   C32   A    
C82   C99   S    
C4    C10   S    
C26   C27   A    
O21   V3    S    
C67   C68   A    
C50   H18   S    
C96   H42   S    
C81   C85   S    
C95   H37   S    
N6    C38   S    
O8    V2    S    
C91   H33   S    
C24   C25   A    
N5    C20   A    
C66   C67   A    
N9    N10   A    
C33   C34   A    
C21   C22   A    
C19   C23   A    
C13   C14   A    
C36   H13   S    
O1    V2    S    
C55   C92   S    
C2    C76   S    
C20   O12   S    
C21   C24   A    
C98   H46   S    
C79   O38   S    
O38   C98   S    
O24   V4    S    
C99   H47   S    
O27   V4    S    
O22   V3    S    
O23   C87   A    
O9    C4    A    
C90   H30   S    
C67   C86   S    
C6    C90   S    
C89   O29   D    
C92   O32   D    
C52   C57   A    
C25   H8    S    
O20   C85   A    
C43   O31   S    
C68   C69   A    
C58   O18   S    
C100  H50   S    
C5    C10   A    
C69   C70   A    
O40   C100  S    
C59   C64   A    
O26   V4    S    
C34   H12   S    
C45   O15   S    
C94   H36   S    
C72   O36   S    
C45   N7    A    
C42   C43   A    
O31   C91   S    
O4    C2    A    
C48   C53   A    
C46   C47   A    
C37   H14   S    
N8    C64   S    
C27   C28   A    
N9    C78   A    
O35   C95   S    
C77   C84   S    
C36   C37   A    
C33   C38   A    
C97   H43   S    
C71   C76   A    
C34   C35   A    
C95   H39   S    
O25   V4    S    
O2    C1    A    
C39   H15   S    
C97   O37   D    
V3    O28   S    
N4    C12   A    
C1    C61   S    
C65   C66   A    
C13   H3    S    
O20   V3    S    
C11   C18   S    
C68   H24   S    
C8    H1    S    
C35   C88   S    
C69   H25   S    
C40   C41   A    
C63   C64   A    
C53   C54   A    
C15   C87   S    
C39   C40   A    
C99   O39   D    
N7    C46   A    
O19   C86   A    
O3    C4    A    
C5    C89   S    
O36   C96   S    
C65   C70   A    
C37   C38   A    
C91   H31   S    
C8    C9    A    
C43   C44   A    
O6    V2    S    
O9    V2    S    
C20   C21   A    
N10   C77   A    
C9    C10   A    
C41   C42   A    
C45   C49   A    
C60   C61   A    
C73   C74   A    
O2    V1    S    
C51   C52   A    
C29   C30   A    
C71   C72   A    
C75   H27   S    
O7    V1    S    
N1    C12   A    
C31   N6    A    
C16   H5    S    
C63   H21   S    
O1    C2    A    
C9    H2    S    
N5    C44   S    
C85   O24   A    
C51   H19   S    
C42   H17   S    
C29   H9    S    
O5    V1    S    
C94   O34   D    
C80   H28   S    
C65   H22   S    
C77   N11   A    
C31   O13   S    
C74   C97   S    
C7    C8    A    
C90   O30   D    
O7    V2    S    
C19   O11   S    
C28   C29   A    
C93   H35   S    
V1    O10   S    
C62   H20   S    
N1    N2    A    
O21   C88   A    
C17   C18   A    
C80   C81   A    
C39   C44   A    
C50   C51   A    
C89   H29   S    
C22   C27   A    
C49   C56   A    
C25   C26   A    
V2    O10   S    
C62   C63   A    
C23   C30   A    
C16   C17   A    
C52   C53   A    
C14   C15   A    
C14   H4    S    
C66   H23   S    
N7    C70   S    
C32   O14   S    
C33   H11   S    
C54   C55   A    
C95   H38   S    
C96   H41   S    
C57   O17   S    
C79   C80   A    
C24   H7    S    
C98   H44   S    
C22   C23   A    
O4    V1    S    
C83   O40   S    
C48   C49   A    
C96   H40   S    
C47   C48   A    
N8    C58   A    
O23   V3    S    
C47   C50   A    
O26   C87   A    
O3    V1    S    
C82   C83   A    
N12   C78   A    
C79   C84   A    
C15   C16   A    
C73   C78   S    
C100  H48   S    
C75   C76   A    
O25   V3    S    
C81   C82   A    
C7    C12   S    
C59   C94   S    
C83   C84   A    
O8    C3    A    
C71   H26   S    
C11   N3    A    
