data_mof_unit_21387.cif
_audit_creation_date              2012-12-11T15:20:17-0500
_audit_creation_method            fapswitch 2.2
_symmetry_space_group_name_H-M    P1
_symmetry_Int_Tables_number       1
_space_group_crystal_system       triclinic
_cell_length_a                    12.926687
_cell_length_b                    13.035504
_cell_length_c                    15.382808
_cell_angle_alpha                 116.342763
_cell_angle_beta                  63.864883
_cell_angle_gamma                 96.923074
_cell_volume                      2076.35509989

loop_
_atom_site_label
_atom_site_type_symbol
_atom_type_description
_atom_site_fract_x
_atom_site_fract_y
_atom_site_fract_z
_atom_type_partial_charge
C1    C     C_R   0.000240 0.832673 0.053352 -0.114029
C2    C     C_R   0.669218 0.529572 0.320381 0.007109
C3    C     C_R   0.665515 0.451704 0.919239 -0.046570
C4    C     C_R   0.074670 0.796082 0.298562 0.031288
C5    C     C_R   0.338872 0.514146 0.949897 -0.083794
C6    C     C_R   0.963032 0.179360 0.780240 0.485716
C7    C     C_R   0.194850 0.517563 0.699712 -0.050526
C8    C     C_R   0.052041 0.256145 0.088800 -0.129380
C9    C     C_R   0.950529 0.172704 0.996259 -0.066573
C10   C     C_R   0.295793 0.600041 0.793771 0.053702
C11   C     C_R   0.259269 0.414823 0.046527 -0.172733
C12   C     C_R   0.678313 0.465238 0.217890 -0.141758
C13   C     C_R   0.051192 0.279014 0.685415 0.481060
C14   C     C_R   0.362318 0.430986 0.972708 0.177360
C15   C     C_R   0.032642 0.169277 0.677415 -0.305721
C16   C     C_R   0.287731 0.579011 0.701704 -0.047212
C17   C     C_R   0.007729 0.153323 0.046457 0.032491
C18   C     C_R   0.016127 0.993255 0.422675 -0.182103
C19   C     C_R   0.999463 0.083101 0.519154 -0.152359
C20   C     C_R   0.047258 0.071991 0.580237 0.152920
C21   C     C_R   0.108861 0.970547 0.547701 -0.173411
C22   C     C_R   0.122292 0.878061 0.451689 -0.172277
C23   C     C_R   0.756979 0.515909 0.890126 -0.121639
C24   C     C_R   0.076489 0.891168 0.389879 0.148863
C25   C     C_R   0.570905 0.488157 0.472331 -0.178989
C26   C     C_R   0.479957 0.505432 0.568390 -0.157427
C27   C     C_R   0.382591 0.576950 0.607031 0.078492
C28   C     C_R   0.374104 0.631727 0.549383 -0.007616
C29   C     C_R   0.468740 0.616235 0.451949 -0.010908
C30   C     C_R   0.566901 0.545229 0.415824 0.067766
C31   C     C_2   0.475875 0.389841 0.946964 -0.249374
C32   C     C_2   0.572597 0.420229 0.884413 0.487996
C33   C     C_2   0.832489 0.956924 0.088779 -0.211508
C34   C     C_R   0.019577 0.700338 0.300406 -0.110718
C35   C     C_2   0.820494 0.041205 0.183830 -0.138247
C36   C     C_R   0.678914 0.417646 0.986524 -0.128013
C37   C     C_R   0.095087 0.800534 0.205780 -0.155105
C38   C     C_R   0.779162 0.547118 0.315205 0.066740
C39   C     C_R   0.900215 0.747809 0.956517 -0.132965
C40   C     C_R   0.912142 0.852118 0.031929 0.139981
H1    H     H_    0.029506 0.894894 0.110623 0.093627
H2    H     H_    0.157794 0.500986 0.644590 0.168390
H3    H     H_    0.089143 0.276050 0.144493 0.098430
H4    H     H_    0.892049 0.115958 0.969389 0.168280
H5    H     H_    0.248791 0.360827 0.085843 0.106846
H6    H     H_    0.977395 0.001497 0.375976 0.122651
H7    H     H_    0.949554 0.161408 0.546285 0.146273
H8    H     H_    0.144909 0.963389 0.596618 0.139086
H9    H     H_    0.609468 0.430238 0.194499 0.113026
H10   H     H_    0.166777 0.797215 0.426049 0.128435
H11   H     H_    0.645333 0.430571 0.442164 0.138150
H12   H     H_    0.484125 0.460159 0.611494 0.152778
H13   H     H_    0.475409 0.361703 0.003606 0.085698
H14   H     H_    0.777052 0.963606 0.054889 0.145797
H15   H     H_    0.870620 0.038896 0.224011 0.126724
H16   H     H_    0.781139 0.544802 0.828410 0.096455
H17   H     H_    0.008922 0.664446 0.354440 0.112951
H18   H     H_    0.636138 0.351798 0.010575 0.100191
H19   H     H_    0.146246 0.859508 0.175422 0.105405
H20   H     H_    0.836190 0.731334 0.925763 0.108943
H21   H     H_    0.399013 0.553349 0.901537 0.163969
N1    N     N_R   0.037310 0.720000 0.995790 -0.049168
N2    N     N_R   0.946240 0.290860 0.848040 -0.098066
N3    N     N_R   0.146140 0.501160 0.788590 -0.050432
N4    N     N_R   0.025760 0.332690 0.063610 -0.046542
N5    N     N_R   0.962690 0.280000 0.004210 -0.048759
N6    N     N_R   0.209210 0.553840 0.847990 -0.069596
N7    N     N_R   0.175110 0.482040 0.063580 -0.044332
N8    N     N_R   0.996790 0.351810 0.788620 -0.099812
N9    N     N_R   0.790790 0.446160 0.152010 -0.050643
N10   N     N_R   0.824890 0.517960 0.936420 -0.041064
N11   N     N_R   0.003210 0.648190 0.211380 -0.042759
N12   N     N_R   0.774330 0.457010 0.995840 -0.035290
N13   N     N_R   0.053760 0.709140 0.151960 -0.038771
N14   N     N_R   0.853860 0.498840 0.211410 -0.065062
N15   N     N_R   0.974240 0.667310 0.936390 -0.048240
N16   N     N_R   0.225670 0.542990 0.004160 -0.060728
Ni1   Ni    Ni4+2 0.130310 0.630310 0.999970 0.214468
Ni2   Ni    Ni4+2 0.869690 0.369690 0.000030 0.235510
Ni3   Ni    Ni4+2 0.985640 0.509470 0.863740 0.228528
Ni4   Ni    Ni4+2 0.014360 0.490530 0.136260 0.210283
O1    O     O_3   0.898947 0.097361 0.807930 -0.784346
H22   H     H_    0.922152 0.023043 0.742554 0.324040
C41   C     C_1   0.356058 0.691242 0.841945 0.031467
N17   N     N_1   0.404400 0.764661 0.880664 -0.084431
O2    O     O_3   0.103126 0.311076 0.602958 -0.790198
H23   H     H_    0.149095 0.242591 0.536198 0.322278
C42   C     C_1   0.270320 0.703335 0.590559 0.043338
N18   N     N_1   0.187370 0.760424 0.623509 -0.093521
C43   C     C_1   0.466238 0.673153 0.390470 0.056449
N19   N     N_1   0.464230 0.718499 0.341319 -0.082456
O3    O     O_3   0.576461 0.435877 0.799828 -0.773820
H24   H     H_    0.655949 0.450937 0.759401 0.311747
C44   C     C_1   0.807473 0.586200 0.404925 0.014257
N20   N     N_1   0.827470 0.616739 0.478529 -0.086964

loop_
_geom_bond_atom_site_label_1
_geom_bond_atom_site_label_2
_ccdc_geom_bond_type
C37   N13   A    
C6    O1    S    
C3    C23   A    
C19   C20   A    
C8    H3    S    
C14   C31   S    
C2    C12   A    
C1    N1    A    
C12   H9    S    
C23   H16   S    
N2    Ni2   S    
N16   Ni1   S    
N5    Ni2   S    
C26   C27   A    
C18   C24   A    
N7    Ni4   S    
C28   C29   A    
C36   H18   S    
C4    C24   S    
C11   C14   A    
C19   H7    S    
C33   H14   S    
C18   C19   A    
C7    H2    S    
C9    N5    A    
C29   C43   S    
C1    C40   A    
C6    C15   A    
N2    N8    A    
C13   O2    S    
C28   C42   S    
C34   H17   S    
N11   Ni4   S    
C22   H10   S    
C21   H8    S    
C42   N18   T    
C16   C27   S    
C8    N4    A    
C21   C22   A    
N3    Ni3   S    
N1    N15   A    
C3    C32   S    
N6    Ni1   S    
C18   H6    S    
N10   Ni3   S    
C38   N14   A    
C15   C20   S    
N7    N16   A    
C4    C34   A    
C33   C40   S    
C35   H15   S    
N3    N6    A    
C23   N10   A    
C41   N17   T    
N11   N13   A    
C39   C40   A    
N10   N12   A    
O2    H23   S    
N14   Ni4   S    
C25   C26   A    
C10   N6    A    
C6    N2    A    
C25   H11   S    
C29   C30   A    
C26   H12   S    
C2    C38   A    
N4    Ni4   S    
C31   C32   D    
C38   C44   S    
N12   Ni2   S    
C5    H21   S    
C39   N15   A    
C31   H13   S    
C5    C14   A    
C37   H19   S    
C1    H1    S    
C7    C16   A    
O1    H22   S    
C13   C15   A    
C22   C24   A    
C11   H5    S    
C5    N16   A    
C34   N11   A    
C27   C28   A    
C11   N7    A    
C9    C17   A    
C25   C30   A    
C12   N9    A    
C9    H4    S    
N9    Ni2   S    
N1    Ni1   S    
N15   Ni3   S    
C8    C17   A    
C2    C30   S    
C10   C16   A    
C43   N19   T    
C32   O3    S    
C13   N8    A    
C3    C36   A    
C39   H20   S    
C10   C41   S    
O3    H24   S    
C33   C35   D    
C44   N20   T    
C7    N3    A    
C36   N12   A    
C4    C37   A    
C20   C21   A    
N4    N5    A    
N13   Ni1   S    
N9    N14   A    
N8    Ni3   S    
