data_mof_unit_53524.cif
_audit_creation_date              2012-12-10T20:43:59-0500
_audit_creation_method            fapswitch 2.2
_symmetry_space_group_name_H-M    P1
_symmetry_Int_Tables_number       1
_space_group_crystal_system       triclinic
_cell_length_a                    17.391712
_cell_length_b                    10.670731
_cell_length_c                    9.848176
_cell_angle_alpha                 89.797858
_cell_angle_beta                  90.313941
_cell_angle_gamma                 90.497535
_cell_volume                      1827.53954825

loop_
_atom_site_label
_atom_site_type_symbol
_atom_type_description
_atom_site_fract_x
_atom_site_fract_y
_atom_site_fract_z
_atom_type_partial_charge
C1    C     C_R   0.502374 0.259916 0.500224 0.886646
C2    C     C_R   0.114680 0.418536 0.512719 0.145663
C3    C     C_R   0.514311 0.063484 0.623570 0.050070
C4    C     C_R   0.353070 0.497338 0.499937 0.872855
C5    C     C_R   0.514886 0.128784 0.501052 -0.057851
C6    C     C_R   0.530708 0.065723 0.379644 -0.188033
C7    C     C_R   0.530756 0.936072 0.379349 -0.214484
C8    C     C_R   0.514989 0.871543 0.500443 -0.042390
C9    C     C_R   0.514152 0.935869 0.623154 0.022654
C10   C     C_3   0.460726 0.926569 0.741391 0.379666
C11   C     C_3   0.460051 0.069067 0.740723 -0.535867
C12   C     C_R   0.884968 0.421285 0.515068 -0.124302
C13   C     C_R   0.466300 0.403656 0.071351 0.219001
C14   C     C_R   0.538238 0.590089 0.072051 -0.147602
C15   C     C_R   0.537849 0.590499 0.928023 -0.084542
C16   C     C_R   0.502481 0.740092 0.499811 0.961651
C17   C     C_R   0.466422 0.403495 0.928513 0.211531
C18   C     C_3   0.383623 0.366681 0.922132 -0.510129
C19   C     C_3   0.383459 0.367477 0.075967 -0.525430
C20   C     C_R   0.646871 0.498810 0.500234 1.050938
C21   C     C_R   0.855883 0.515698 0.596641 -0.319885
C22   C     C_R   0.778377 0.545868 0.591128 0.428989
C23   C     C_1   0.965564 0.405103 0.514138 0.093279
C24   C     C_R   0.729619 0.479420 0.500816 -0.373884
C25   C     C_R   0.759806 0.385920 0.415022 0.332702
C26   C     C_R   0.837465 0.353354 0.426783 0.458671
C27   C     C_3   0.350009 0.831402 0.819153 -0.289417
C28   C     C_3   0.720804 0.360791 0.195840 -0.152151
C29   C     C_3   0.858945 0.144738 0.415475 -0.218391
C30   C     C_1   0.033911 0.404478 0.513456 -0.064867
C31   C     C_R   0.151040 0.471188 0.625811 -0.159723
C32   C     C_R   0.228818 0.500520 0.620308 -0.192028
C33   C     C_R   0.270228 0.477474 0.501248 -0.029167
C34   C     C_R   0.233047 0.424584 0.388075 -0.208041
C35   C     C_R   0.155177 0.395446 0.393757 -0.144954
H1    H     H_    0.894372 0.567218 0.663547 0.214233
H2    H     H_    0.347295 0.443082 0.118138 0.213382
H3    H     H_    0.374423 0.273131 0.121669 0.201271
H4    H     H_    0.118976 0.491681 0.717043 0.138214
H5    H     H_    0.256434 0.541393 0.708690 0.142457
H6    H     H_    0.264202 0.403550 0.296502 0.147734
H7    H     H_    0.126425 0.356654 0.305287 0.145405
H8    H     H_    0.537594 0.115334 0.284238 0.172369
H9    H     H_    0.342656 0.908089 0.894226 0.155646
H10   H     H_    0.380614 0.750912 0.866282 0.160305
H11   H     H_    0.291929 0.797912 0.788461 0.187552
H12   H     H_    0.537641 0.887486 0.283831 0.160451
H13   H     H_    0.660676 0.814178 0.683980 0.366648
H14   H     H_    0.777525 0.333474 0.154466 0.192596
H15   H     H_    0.713553 0.464192 0.187715 0.161337
H16   H     H_    0.675718 0.316516 0.131399 0.166558
H17   H     H_    0.797225 0.121322 0.432395 0.193473
H18   H     H_    0.890886 0.144986 0.513774 0.153948
H19   H     H_    0.883427 0.069606 0.351746 0.193949
H20   H     H_    0.489641 0.883608 0.831535 0.055674
H21   H     H_    0.403581 0.109817 0.711924 0.218663
H22   H     H_    0.487532 0.110516 0.832511 0.165495
H23   H     H_    0.567972 0.664017 0.126481 0.154716
H24   H     H_    0.566679 0.665331 0.873654 0.179190
H25   H     H_    0.347004 0.440780 0.876619 0.213212
H26   H     H_    0.374767 0.271743 0.878875 0.200512
N1    N     N_R   0.499490 0.499140 0.142800 -0.110879
N2    N     N_R   0.499490 0.499180 0.857150 -0.115795
O1    O     O_R   0.500010 0.316790 0.614690 -0.621527
O2    O     O_2   0.713280 0.612928 0.823727 -0.326393
O3    O     O_2   0.812002 0.754411 0.732998 -0.301629
O4    O     O_3   0.678122 0.752797 0.615787 -0.593626
O5    O     O_3   0.711568 0.317416 0.330390 -0.601893
O6    O     O_3   0.867615 0.259956 0.346522 -0.608163
O7    O     O_R   0.500000 0.316760 0.385350 -0.620069
O8    O     O_R   0.389120 0.500020 0.614710 -0.620510
O9    O     O_R   0.389110 0.499990 0.385370 -0.621896
O10   O     O_R   0.500000 0.683240 0.614650 -0.603924
O11   O     O_R   0.499990 0.683210 0.385310 -0.642925
O12   O     O_R   0.610890 0.500010 0.614630 -0.569020
O13   O     O_R   0.610880 0.499980 0.385290 -0.601566
O14   O     O_3   0.388934 0.874262 0.702637 -0.578477
S1    S     S_3+6 0.746010 0.668934 0.696129 0.008639
Zn1   Zn    Zn3+2 0.500010 0.500020 0.653130 0.985174
Zn2   Zn    Zn3+2 0.499990 0.499980 0.346870 0.958309

loop_
_geom_bond_atom_site_label_1
_geom_bond_atom_site_label_2
_ccdc_geom_bond_type
C2    C35   A    
O8    Zn1   S    
C7    C8    A    
C21   H1    S    
N2    Zn1   S    
O4    S1    S    
C12   C23   S    
C1    C5    S    
N1    Zn2   S    
C28   O5    S    
C18   C19   S    
C5    C6    A    
C28   H16   S    
C29   H19   S    
C14   N1    A    
C20   O13   A    
C34   C35   A    
C35   H7    S    
C19   H2    S    
C28   H15   S    
C27   H9    S    
C13   N1    A    
C20   C24   S    
C8    C9    A    
C9    C10   S    
C27   H10   S    
C8    C16   S    
O11   Zn2   S    
C21   C22   A    
C34   H6    S    
C14   H23   S    
C10   O14   S    
C33   C34   A    
C29   O6    S    
O3    S1    D    
C13   C19   S    
O7    Zn2   S    
C16   O10   A    
C23   C30   T    
C24   C25   A    
C22   S1    S    
C3    C5    A    
C25   C26   A    
C12   C21   A    
C20   O12   A    
C12   C26   A    
C2    C31   A    
C7    H12   S    
C3    C9    A    
C19   H3    S    
C28   H14   S    
C31   C32   A    
C17   C18   S    
O10   Zn1   S    
C10   H20   S    
C27   H11   S    
C18   H25   S    
C6    H8    S    
O1    Zn1   S    
C16   O11   A    
C1    O1    A    
C4    O9    A    
C4    C33   S    
O2    S1    D    
C15   H24   S    
O13   Zn2   S    
C27   O14   S    
C18   H26   S    
C25   O5    S    
C6    C7    A    
C1    O7    A    
C13   C17   A    
C2    C30   S    
C32   C33   A    
O9    Zn2   S    
C17   N2    A    
C29   H18   S    
C31   H4    S    
C22   C24   A    
C32   H5    S    
H13   O4    S    
C3    C11   S    
C10   C11   S    
C26   O6    S    
C15   N2    A    
C14   C15   A    
C11   H22   S    
O12   Zn1   S    
C4    O8    A    
C11   H21   S    
C29   H17   S    
