data_mof_unit_43442.cif
_audit_creation_date              2012-12-11T19:56:18-0500
_audit_creation_method            fapswitch 2.2
_symmetry_space_group_name_H-M    P1
_symmetry_Int_Tables_number       1
_space_group_crystal_system       triclinic
_cell_length_a                    8.529583
_cell_length_b                    16.637051
_cell_length_c                    18.796215
_cell_angle_alpha                 108.482849
_cell_angle_beta                  87.065619
_cell_angle_gamma                 96.189051
_cell_volume                      2514.57873585

loop_
_atom_site_label
_atom_site_type_symbol
_atom_type_description
_atom_site_fract_x
_atom_site_fract_y
_atom_site_fract_z
_atom_type_partial_charge
Ba1   Ba    Ba6+2 0.331680 0.458770 0.526950 1.750582
Ba2   Ba    Ba6+2 0.858120 0.541160 0.473030 1.760444
C1    C     C_3   0.070612 0.162946 0.683003 -0.217486
C2    C     C_3   0.866473 0.437066 0.738889 -0.018436
C3    C     C_2   0.830795 0.451576 0.821058 -0.125948
C4    C     C_3   0.550459 0.243325 0.682602 0.763066
C5    C     C_2   0.699385 0.489828 0.851261 -0.086634
C6    C     C_2   0.609497 0.525679 0.802393 -0.120176
C7    C     C_1   0.670690 0.531601 0.736803 0.037598
C8    C     C_R   0.536021 0.490019 0.068269 0.478442
C9    C     C_R   0.641884 0.491097 0.928478 0.479139
C10   C     C_R   0.569474 0.462309 0.192219 -0.020242
C11   C     C_R   0.524961 0.475071 0.268158 0.086850
C12   C     C_3   0.054729 0.244233 0.664314 0.227214
C13   C     C_R   0.302528 0.544946 0.253160 0.037708
C14   C     C_R   0.343221 0.531578 0.177244 -0.050549
C15   C     C_R   0.481996 0.493787 0.146409 -0.026265
C16   C     C_3   0.469982 0.309628 0.744725 -0.257678
C17   C     C_R   0.395998 0.519476 0.298565 -0.233707
C18   C     C_2   0.422066 0.764736 0.536069 -0.268709
C19   C     C_R   0.799975 0.248923 0.478245 0.093981
C20   C     C_2   0.239302 0.873983 0.584403 -0.131386
C21   C     C_2   0.265100 0.791519 0.567373 -0.030671
C22   C     C_2   0.530396 0.817023 0.512279 -0.013263
C23   C     C_3   0.973423 0.761716 0.730505 0.707802
C24   C     C_3   0.489946 0.905623 0.517300 -0.141096
C25   C     C_3   0.371412 0.940930 0.580742 0.230522
C26   C     C_2   0.623494 0.969953 0.509283 -0.034373
C27   C     C_2   0.590912 0.041903 0.497107 -0.033005
C28   C     C_3   0.646701 0.275058 0.336002 0.260371
C29   C     C_R   0.850027 0.078167 0.440709 -0.030148
C30   C     C_R   0.712505 0.105537 0.481151 -0.123156
C31   C     C_R   0.960486 0.133127 0.416609 0.313261
C32   C     C_R   0.939187 0.220706 0.439142 -0.083941
C33   C     C_R   0.684264 0.191614 0.497361 -0.020007
C34   C     C_3   0.920887 0.846114 0.726059 0.398550
C35   C     C_3   0.636490 0.179265 0.297475 -0.234552
C36   C     C_3   0.461735 0.726801 0.727927 0.680808
C37   C     C_3   0.485718 0.816610 0.721363 -0.268215
C38   C     C_3   0.181098 0.337634 0.291425 0.336574
C39   C     C_3   0.162394 0.323575 0.207724 0.364534
C40   C     C_3   0.974909 0.691839 0.820192 0.376561
C41   C     C_3   0.315773 0.745462 0.379323 0.199886
C42   C     C_3   0.132203 0.878581 0.369985 0.169640
C43   C     C_3   0.812056 0.382498 0.560489 0.447721
C44   C     C_3   0.690176 0.805098 0.324107 0.698285
C45   C     C_3   0.762458 0.879231 0.297145 0.282318
C46   C     C_3   0.152512 0.740474 0.279755 1.024133
C47   C     C_3   0.178013 0.771782 0.210750 -0.129931
C48   C     C_2   0.813157 0.508005 0.715238 -0.263601
H1    H     H_    0.126088 0.241650 0.612599 0.091212
H2    H     H_    0.152376 0.403268 0.322673 -0.095508
H3    H     H_    0.026255 0.106784 0.635908 0.105911
H4    H     H_    0.040295 0.333867 0.197219 0.043915
H5    H     H_    0.244981 0.369723 0.189898 -0.115345
H6    H     H_    0.928448 0.245868 0.653543 0.015682
H7    H     H_    0.001827 0.163211 0.734737 0.203734
H8    H     H_    0.881860 0.709423 0.704077 -0.086224
H9    H     H_    0.918557 0.848281 0.668106 -0.053782
H10   H     H_    0.798324 0.849152 0.747219 0.003730
H11   H     H_    0.195585 0.157217 0.691988 0.165755
H12   H     H_    0.715064 0.164516 0.246958 0.190336
H13   H     H_    0.362931 0.279785 0.765835 0.164775
H14   H     H_    0.573018 0.820145 0.345832 -0.121975
H15   H     H_    0.785664 0.934659 0.347266 -0.053007
H16   H     H_    0.876274 0.864579 0.267932 0.104873
H17   H     H_    0.209049 0.718535 0.160763 0.103101
H18   H     H_    0.276820 0.822555 0.218908 0.163653
H19   H     H_    0.660207 0.274748 0.664992 -0.252380
H20   H     H_    0.072079 0.797013 0.197976 0.121721
H21   H     H_    0.898230 0.422155 0.851805 0.122428
H22   H     H_    0.492256 0.543502 0.819840 0.174170
H23   H     H_    0.673079 0.146598 0.335997 0.041792
H24   H     H_    0.671932 0.428813 0.169597 0.105964
H25   H     H_    0.268160 0.552343 0.143076 0.097239
H26   H     H_    0.892229 0.541448 0.684554 0.006622
H27   H     H_    0.360506 0.528455 0.356482 0.028643
H28   H     H_    0.127641 0.895324 0.608741 0.113155
H29   H     H_    0.445172 0.699595 0.528436 0.060908
H30   H     H_    0.745033 0.956968 0.510922 0.109602
H31   H     H_    0.468103 0.053585 0.498031 0.114196
H32   H     H_    0.549894 0.338122 0.792517 0.066227
H33   H     H_    0.437395 0.360508 0.723403 0.088385
H34   H     H_    0.513532 0.154383 0.280515 0.195663
H35   H     H_    0.770806 0.297904 0.351212 0.059604
H36   H     H_    0.566604 0.288089 0.386026 0.088028
H37   H     H_    0.563220 0.733799 0.916475 0.377499
H38   H     H_    0.390174 0.138684 0.141843 0.393653
H39   H     H_    0.044745 0.645248 0.778546 0.030841
H40   H     H_    0.849484 0.667163 0.820764 0.006060
H41   H     H_    0.021431 0.701113 0.876548 0.131852
H42   H     H_    0.085585 0.997293 0.900722 0.399448
H43   H     H_    0.550016 0.673995 0.145604 0.369084
H44   H     H_    0.504421 0.961833 0.337991 0.279415
H45   H     H_    0.362211 0.692119 0.692369 0.012996
H46   H     H_    0.392079 0.699202 0.386937 0.001470
H47   H     H_    0.204010 0.742498 0.410879 0.076636
H48   H     H_    0.366165 0.810435 0.404160 -0.010605
H49   H     H_    0.237294 0.896188 0.339575 0.112187
H50   H     H_    0.161626 0.887418 0.428903 0.040757
H51   H     H_    0.042507 0.922813 0.375186 0.150967
H52   H     H_    0.343483 0.067744 0.380770 0.364906
H53   H     H_    0.785182 0.253502 0.786791 0.300013
H54   H     H_    0.906638 0.431904 0.558373 0.082073
H55   H     H_    0.829069 0.346458 0.599555 -0.173431
H56   H     H_    0.544639 0.862759 0.771276 0.185679
H57   H     H_    0.722073 0.422938 0.586244 0.055453
H58   H     H_    0.370974 0.838862 0.716789 0.153083
H59   H     H_    0.558138 0.817560 0.670881 0.038901
H60   H     H_    0.304091 0.330110 0.302280 0.023015
N1    N     N_R   0.673903 0.458146 0.039279 -0.199595
N2    N     N_R   0.725174 0.458454 0.971026 -0.209322
N3    N     N_R   0.503908 0.522949 0.957377 -0.215390
N4    N     N_R   0.452498 0.522547 0.025662 -0.233709
O1    O     O_2   0.390320 0.549400 0.679900 -0.453264
O2    O     O_2   0.835657 0.801328 0.510694 -0.457663
O3    O     O_3   0.788812 0.800416 0.380486 -0.594327
O4    O     O_3   0.642260 0.547940 0.592270 -0.501708
O5    O     O_3   0.028790 0.393910 0.445720 -0.491788
O6    O     O_2   0.943420 0.714940 0.571590 -0.473225
O7    O     O_3   0.120036 0.741852 0.694636 -0.681896
O8    O     O_2   0.993646 0.508107 0.253258 -0.464847
O9    O     O_3   0.060073 0.661107 0.255156 -0.529388
O10   O     O_3   0.101430 0.389200 0.608960 -0.526249
O11   O     O_2   0.197206 0.476581 0.748632 -0.432705
O12   O     O_3   0.077734 0.277583 0.312225 -0.574732
O13   O     O_3   0.599733 0.687306 0.701394 -0.672171
O14   O     O_3   0.109507 0.315383 0.724435 -0.601962
O15   O     O_2   0.246270 0.285030 0.428370 -0.440180
O16   O     O_3   0.502600 0.343750 0.565720 -0.481641
O17   O     O_2   0.357559 0.195969 0.492520 -0.447990
O18   O     O_2   0.331153 0.809751 0.862227 -0.207132
O19   O     O_2   0.324505 0.655238 0.829351 -0.344834
O20   O     O_3   0.592454 0.745829 0.868919 -0.507913
O21   O     O_2   0.078174 0.154393 0.165555 -0.185964
O22   O     O_2   0.200620 0.213807 0.069908 -0.233223
O23   O     O_3   0.442887 0.204540 0.624293 -0.621911
O24   O     O_3   0.380809 0.198971 0.171481 -0.495369
O25   O     O_3   0.986680 0.771178 0.807593 -0.567955
O26   O     O_2   0.195344 0.949210 0.756058 -0.291365
O27   O     O_2   0.948743 0.016298 0.779381 -0.242721
O28   O     O_3   0.025696 0.942690 0.873367 -0.387849
O29   O     O_2   0.821095 0.709436 0.193686 -0.305800
O30   O     O_2   0.695224 0.635388 0.277487 -0.289519
O31   O     O_3   0.518275 0.692946 0.199303 -0.509142
O32   O     O_2   0.734587 0.983718 0.216502 -0.199744
O33   O     O_2   0.600246 0.840797 0.167686 -0.203080
O34   O     O_2   0.799370 0.450570 0.320050 -0.437272
O35   O     O_3   0.478925 0.947966 0.284405 -0.510809
O36   O     O_3   0.304491 0.732545 0.302365 -0.678290
O37   O     O_3   0.061870 0.795378 0.336322 -0.657113
O38   O     O_2   0.037969 0.009262 0.292859 -0.266135
O39   O     O_2   0.200706 0.141898 0.313467 -0.233784
O40   O     O_3   0.238257 0.053344 0.400581 -0.575797
O41   O     O_2   0.461305 0.113169 0.736744 -0.213476
O42   O     O_2   0.705974 0.104581 0.662119 -0.326039
O43   O     O_3   0.709497 0.209480 0.798076 -0.447931
O44   O     O_3   0.766204 0.331141 0.488538 -0.682068
O45   O     O_3   0.547420 0.451990 0.407710 -0.507202
O46   O     O_3   0.088250 0.610730 0.391020 -0.485902
O47   O     O_3   0.600199 0.313712 0.285915 -0.610991
O48   O     O_3   0.160890 0.606020 0.554260 -0.480794
O49   O     O_3   0.687070 0.656180 0.434260 -0.427857
P1    P     P_3+3 0.571100 0.575270 0.673500 1.003037
P2    P     P_3+3 0.077880 0.297790 0.409490 1.094735
P3    P     P_3+3 0.499087 0.233478 0.544100 0.995150
P4    P     P_3+3 0.618570 0.424660 0.326480 1.022877
P5    P     P_3+3 0.699596 0.768112 0.455020 1.025338
P6    P     P_3+3 0.069597 0.407669 0.705699 0.965135
P7    P     P_3+3 0.119276 0.714503 0.595772 0.916962
P8    P     P_3+3 0.113736 0.583164 0.291436 1.070529
S1    S     S_3+6 0.421311 0.734205 0.824552 -0.044625
S2    S     S_3+6 0.202385 0.218975 0.151144 0.023360
S3    S     S_3+6 0.027983 0.941538 0.783525 0.018876
S4    S     S_3+6 0.685083 0.707690 0.247218 -0.020685
S5    S     S_3+6 0.643017 0.912291 0.237934 0.001250
S6    S     S_3+6 0.110712 0.085246 0.352625 -0.039077
S7    S     S_3+6 0.606457 0.163615 0.719086 -0.031706

loop_
_geom_bond_atom_site_label_1
_geom_bond_atom_site_label_2
_ccdc_geom_bond_type
C37   H56   S    
C12   H6    S    
C34   S3    S    
O13   P1    S    
C47   H18   S    
C46   O36   S    
C4    H19   S    
C14   H25   S    
C1    H3    S    
C19   O44   S    
N1    N2    A    
C41   H48   S    
O29   S4    D    
C34   H9    S    
Ba2   O48   S    
C46   O9    S    
C36   O13   S    
Ba2   O4    S    
C5    C6    S    
O28   S3    S    
H44   O35   S    
C13   C17   A    
O4    P1    S    
C10   H24   S    
O21   S2    D    
C26   C27   D    
C22   P5    S    
O19   S1    D    
C22   C24   S    
Ba1   Ba2   S    
C27   C30   S    
Ba1   O15   S    
C36   C37   S    
C42   H49   S    
C16   H13   S    
C11   P4    S    
O3    P5    S    
Ba2   O34   S    
C13   C14   A    
O38   S6    D    
C33   P3    S    
C12   O14   S    
C40   H41   S    
Ba1   O5    S    
O1    P1    D    
C17   H27   S    
C39   H5    S    
C35   H23   S    
C44   C45   S    
O42   S7    D    
O10   P6    S    
C18   C22   D    
Ba1   P1    S    
O45   P4    S    
C6    C7    D    
O32   S5    D    
C36   H45   S    
C29   C31   A    
C35   H34   S    
H43   O31   S    
C28   H36   S    
C32   P2    S    
H42   O28   S    
O5    P2    S    
C45   H16   S    
C45   S5    S    
C8    N4    A    
O41   S7    D    
Ba1   O4    S    
O12   P2    S    
O7    P7    S    
C40   O25   S    
O14   P6    S    
O20   S1    S    
C4    S7    S    
H37   O20   S    
C9    N3    A    
O23   P3    S    
C43   H55   S    
C35   H12   S    
C1    H11   S    
C37   H58   S    
C4    C16   S    
O39   S6    D    
C6    H22   S    
C42   O37   S    
C2    P6    S    
C11   C17   A    
C31   S6    S    
C30   C33   A    
O31   S4    S    
Ba1   O45   S    
O17   P3    D    
Ba1   O16   S    
C3    C5    D    
Ba2   O6    S    
O33   S5    D    
Ba2   O45   S    
C38   H60   S    
C19   C32   A    
C43   O44   S    
C38   H2    S    
C44   O3    S    
C44   H14   S    
C40   H40   S    
C10   C15   A    
C7    P1    S    
C5    C9    S    
C27   H31   S    
C43   H54   S    
C48   H26   S    
C41   H46   S    
O16   P3    S    
C12   H1    S    
O48   P7    S    
C18   C21   S    
Ba1   P2    S    
C42   H51   S    
C38   O12   S    
O24   S2    S    
C16   H33   S    
C24   C25   S    
C13   P8    S    
C8    N1    A    
C28   H35   S    
C41   O36   S    
C20   H28   S    
O47   P4    S    
C1    C12   S    
C1    H7    S    
Ba2   O46   S    
C46   C47   S    
Ba1   O48   S    
C47   H20   S    
O27   S3    D    
O40   S6    S    
C23   H8    S    
C8    C15   S    
O11   P6    D    
N3    N4    A    
C39   S2    S    
O22   S2    D    
C38   C39   S    
C47   H17   S    
C18   H29   S    
C23   O25   S    
C9    N2    A    
C44   S4    S    
C29   C30   A    
H53   O43   S    
C7    C48   D    
C41   H47   S    
C2    C3    S    
C34   H10   S    
Ba2   O49   S    
Ba2   O5    S    
C36   S1    S    
C19   C33   A    
O18   S1    D    
H38   O24   S    
C24   C26   S    
O15   P2    D    
C20   C25   S    
C40   H39   S    
O35   S5    S    
C4    O23   S    
O49   P5    S    
Ba1   O10   S    
C3    H21   S    
H52   O40   S    
C42   H50   S    
O6    P7    D    
C14   C15   A    
C21   P7    S    
O30   S4    D    
C16   H32   S    
O46   P8    S    
C31   C32   A    
O43   S7    S    
C26   H30   S    
C39   H4    S    
C23   C34   S    
C37   H59   S    
C10   C11   A    
C28   C35   S    
O26   S3    D    
O8    P8    D    
C46   O37   S    
C2    C48   S    
O34   P4    D    
C20   C21   D    
O2    P5    D    
Ba1   O1    S    
C28   O47   S    
C23   O7    S    
Ba2   P4    S    
C45   H15   S    
O9    P8    S    
C43   H57   S    
