data_mof_unit_25140.cif
_audit_creation_date              2012-10-26T19:31:20-0400
_audit_creation_method            fapswitch 2.2
_symmetry_space_group_name_H-M    P1
_symmetry_Int_Tables_number       1
_space_group_crystal_system       triclinic
_cell_length_a                    14.632972
_cell_length_b                    15.879645
_cell_length_c                    17.159253
_cell_angle_alpha                 89.720632
_cell_angle_beta                  85.843235
_cell_angle_gamma                 89.825153
_cell_volume                      3976.68344777

loop_
_atom_site_label
_atom_site_type_symbol
_atom_type_description
_atom_site_fract_x
_atom_site_fract_y
_atom_site_fract_z
_atom_type_partial_charge
C1    C     C_R   0.499890 0.660499 0.500039 0.539566
C2    C     C_3   0.586628 0.026768 0.502101 0.010914
C3    C     C_3   0.499420 0.916925 0.499381 0.016635
C4    C     C_3   0.500582 0.083073 0.500617 0.016632
C5    C     C_1   0.499480 0.825414 0.499790 -0.034605
C6    C     C_1   0.500521 0.174585 0.500208 -0.034609
C7    C     C_3   0.030916 0.420532 0.496094 0.005681
C8    C     C_3   0.969083 0.579469 0.503907 0.005672
C9    C     C_3   0.963885 0.455261 0.562811 -0.150653
C10   C     C_3   0.036115 0.544739 0.437190 -0.150656
C11   C     C_3   0.975189 0.465034 0.434935 0.293126
C12   C     C_R   0.500110 0.339501 0.499961 0.539561
C13   C     C_3   0.024810 0.534967 0.565066 0.293127
C14   C     C_3   0.908147 0.499978 0.500471 -0.015697
C15   C     C_3   0.091852 0.500022 0.499530 -0.015693
C16   C     C_R   0.488129 0.503849 0.650391 0.533063
C17   C     C_R   0.511872 0.496163 0.349609 0.533061
C18   C     C_1   0.805706 0.499937 0.500151 0.145873
C19   C     C_1   0.194294 0.500063 0.499849 0.145877
C20   C     C_R   0.481234 0.514463 0.735181 0.018502
C21   C     C_R   0.518766 0.485576 0.264819 0.018542
C22   C     C_R   0.536437 0.573775 0.771921 0.000523
C23   C     C_3   0.465373 0.028510 0.435691 0.295732
C24   C     C_R   0.463608 0.426223 0.228078 0.000522
C25   C     C_R   0.528873 0.577748 0.853907 -0.100833
C26   C     C_R   0.471138 0.422294 0.146089 -0.100849
C27   C     C_R   0.467684 0.525629 0.897596 0.034881
C28   C     C_R   0.532270 0.474480 0.102404 0.034889
C29   C     C_R   0.410872 0.470532 0.860673 -0.134841
C30   C     C_R   0.589050 0.529613 0.139329 -0.134855
C31   C     C_R   0.417306 0.465279 0.779747 -0.146360
C32   C     C_R   0.582635 0.534835 0.220257 -0.146361
C33   C     C_2   0.468406 0.524414 0.983151 0.002122
C34   C     C_3   0.534629 0.971488 0.564307 0.295737
C35   C     C_2   0.531544 0.475698 0.016850 0.002125
C36   C     C_3   0.601329 0.631674 0.723102 -0.255936
C37   C     C_3   0.640952 0.705365 0.766693 -0.462073
C38   C     C_3   0.398803 0.368231 0.276897 -0.255930
C39   C     C_3   0.359325 0.294465 0.233301 -0.462069
C40   C     C_3   0.068136 0.330412 0.492619 -0.266159
C41   C     C_3   0.991482 0.265930 0.489207 -0.424531
C42   C     C_3   0.931864 0.669589 0.507376 -0.266162
C43   C     C_3   0.008516 0.734071 0.510798 -0.424526
C44   C     C_3   0.986334 0.575809 0.692342 -0.010332
C45   C     C_3   0.551712 0.971899 0.435986 -0.144977
C46   C     C_3   0.012665 0.636588 0.755093 -0.374754
C47   C     C_3   0.013655 0.424207 0.307651 -0.010339
C48   C     C_3   0.987335 0.363420 0.244905 -0.374777
C49   C     C_3   0.600484 0.422045 0.967715 -0.270946
C50   C     C_3   0.663029 0.367681 0.015138 -0.442667
C51   C     C_3   0.399459 0.578061 0.032286 -0.270941
C52   C     C_3   0.336898 0.632412 0.984863 -0.442657
C53   C     C_3   0.426124 0.006253 0.309596 -0.011222
C54   C     C_3   0.366607 0.039717 0.247285 -0.381125
C55   C     C_3   0.573889 0.993742 0.690399 -0.011225
C56   C     C_3   0.448291 0.028099 0.564013 -0.144980
C57   C     C_3   0.633494 0.960312 0.752657 -0.381096
C58   C     C_3   0.684287 0.060423 0.503352 -0.266489
C59   C     C_3   0.754076 0.989132 0.506090 -0.428032
C60   C     C_3   0.315715 0.939575 0.496648 -0.266492
C61   C     C_3   0.245926 0.010866 0.493904 -0.428026
C62   C     C_1   0.499624 0.750010 0.499988 -0.030142
C63   C     C_1   0.500377 0.249989 0.500011 -0.030153
C64   C     C_3   0.413375 0.973231 0.497897 0.010909
Cu1   Cu    Cu3+1 0.409780 0.500000 0.499990 0.972446
Cu2   Cu    Cu3+1 0.590220 0.500000 0.500010 0.972428
H1    H     H_    0.625726 0.579245 0.248179 0.120514
H2    H     H_    0.065505 0.581431 0.386201 0.088588
H3    H     H_    0.585067 0.742624 0.797373 0.152661
H4    H     H_    0.689232 0.682224 0.809075 0.131212
H5    H     H_    0.679601 0.747333 0.724181 0.154198
H6    H     H_    0.659445 0.593873 0.696600 0.162345
H7    H     H_    0.563640 0.659295 0.675090 0.165537
H8    H     H_    0.310974 0.317520 0.190942 0.131202
H9    H     H_    0.415287 0.257323 0.202595 0.152650
H10   H     H_    0.320792 0.252411 0.275810 0.154325
H11   H     H_    0.436535 0.340670 0.324911 0.165507
H12   H     H_    0.374180 0.420900 0.751828 0.120555
H13   H     H_    0.340618 0.405949 0.303396 0.162304
H14   H     H_    0.941987 0.271893 0.541101 0.146323
H15   H     H_    0.954838 0.274826 0.435349 0.194167
H16   H     H_    0.021092 0.201453 0.488630 0.121958
H17   H     H_    0.117105 0.323340 0.440556 0.134718
H18   H     H_    0.105744 0.318258 0.545509 0.143199
H19   H     H_    0.045146 0.725182 0.564664 0.194153
H20   H     H_    0.058026 0.728104 0.458914 0.146329
H21   H     H_    0.978906 0.798547 0.511363 0.121956
H22   H     H_    0.894266 0.681740 0.454480 0.143201
H23   H     H_    0.363523 0.430121 0.894719 0.107246
H24   H     H_    0.882885 0.676660 0.559432 0.134704
H25   H     H_    0.977877 0.512072 0.719003 0.127634
H26   H     H_    0.919687 0.597130 0.671516 0.117233
H27   H     H_    0.020953 0.701021 0.730139 0.149111
H28   H     H_    0.958218 0.637789 0.803657 0.085915
H29   H     H_    0.078106 0.616324 0.778463 0.161860
H30   H     H_    0.080315 0.402904 0.328464 0.117231
H31   H     H_    0.022086 0.487945 0.280988 0.127642
H32   H     H_    0.921876 0.383663 0.221553 0.161878
H33   H     H_    0.041768 0.362238 0.196329 0.085924
H34   H     H_    0.636355 0.570072 0.105288 0.107235
H35   H     H_    0.979080 0.298985 0.269860 0.149112
H36   H     H_    0.705656 0.407892 0.050816 0.156910
H37   H     H_    0.621764 0.323670 0.053835 0.156181
H38   H     H_    0.709463 0.330023 0.974748 0.127650
H39   H     H_    0.562690 0.379315 0.930350 0.146958
H40   H     H_    0.644471 0.463916 0.928986 0.142632
H41   H     H_    0.378151 0.676417 0.946151 0.156196
H42   H     H_    0.294261 0.592193 0.949202 0.156881
H43   H     H_    0.290472 0.670078 0.025253 0.127647
H44   H     H_    0.355486 0.536185 0.071023 0.142636
H45   H     H_    0.428543 0.380522 0.114913 0.110354
H46   H     H_    0.437252 0.620801 0.069642 0.146946
H47   H     H_    0.397652 0.944545 0.330476 0.119929
H48   H     H_    0.496745 0.996792 0.282472 0.127300
H49   H     H_    0.395154 0.099759 0.222906 0.151994
H50   H     H_    0.364637 0.993256 0.199289 0.089218
H51   H     H_    0.295720 0.050799 0.272915 0.147882
H52   H     H_    0.503281 0.003153 0.717568 0.127321
H53   H     H_    0.602293 0.055474 0.669515 0.119900
H54   H     H_    0.704362 0.949267 0.726972 0.147896
H55   H     H_    0.635486 0.006780 0.800645 0.089207
H56   H     H_    0.571492 0.619495 0.885085 0.110347
H57   H     H_    0.605011 0.900253 0.777055 0.152002
H58   H     H_    0.741528 0.951553 0.560496 0.190905
H59   H     H_    0.750220 0.947271 0.454781 0.147109
H60   H     H_    0.824140 0.015948 0.504997 0.121770
H61   H     H_    0.700288 0.098835 0.449858 0.146831
H62   H     H_    0.689220 0.101751 0.554833 0.134247
H63   H     H_    0.249791 0.052739 0.545204 0.147116
H64   H     H_    0.258466 0.048432 0.439490 0.190899
H65   H     H_    0.175861 0.984050 0.495010 0.121769
H66   H     H_    0.310783 0.898243 0.445170 0.134238
H67   H     H_    0.593657 0.947498 0.384456 0.088477
H68   H     H_    0.299714 0.901168 0.550145 0.146833
H69   H     H_    0.406351 0.052497 0.615546 0.088486
H70   H     H_    0.934495 0.418570 0.613800 0.088588
N1    N     N_1   0.725810 0.500000 0.500030 -0.196082
N2    N     N_1   0.274190 0.500000 0.499970 -0.196076
O1    O     O_R   0.423830 0.620920 0.499990 -0.486078
O2    O     O_3   0.943420 0.425767 0.368428 -0.552241
O3    O     O_3   0.426961 0.065399 0.370533 -0.555997
O4    O     O_3   0.573043 0.934597 0.629462 -0.555982
O5    O     O_R   0.576170 0.379080 0.500010 -0.486074
O6    O     O_R   0.576200 0.620920 0.500000 -0.499333
O7    O     O_R   0.423800 0.379080 0.500000 -0.499324
O8    O     O_R   0.414980 0.500010 0.613590 -0.485728
O9    O     O_R   0.585020 0.499990 0.386410 -0.485727
O10   O     O_R   0.567350 0.500010 0.613600 -0.512053
O11   O     O_R   0.432650 0.499990 0.386400 -0.512023
O12   O     O_3   0.056579 0.574230 0.631575 -0.552238

loop_
_geom_bond_atom_site_label_1
_geom_bond_atom_site_label_2
_ccdc_geom_bond_type
C12   O7    A    
C34   C56   S    
C8    C13   S    
C23   C45   S    
C37   H3    S    
C27   C29   A    
C40   H18   S    
C2    C4    S    
C11   O2    S    
C1    C62   S    
C60   H66   S    
C41   H14   S    
C29   H23   S    
C37   H5    S    
C55   H53   S    
C53   C54   S    
C27   C33   S    
C59   H60   S    
C15   C19   S    
Cu2   N1    S    
C51   H46   S    
C36   C37   S    
C17   O9    A    
C24   C26   A    
C13   O12   S    
C10   C15   S    
C38   C39   S    
C11   C14   S    
Cu2   O6    S    
C38   H13   S    
C41   H16   S    
C30   H34   S    
C16   O8    A    
C39   H8    S    
C14   C18   S    
C9    C13   S    
C34   O4    S    
C46   H29   S    
C28   C35   S    
C53   H47   S    
C22   C25   A    
C54   H50   S    
C47   O2    S    
C35   C49   S    
C24   C38   S    
C47   H30   S    
C56   C64   S    
C39   H9    S    
C25   H56   S    
Cu2   O10   S    
C1    O1    A    
C61   H63   S    
C2    C34   S    
C7    C15   S    
C50   H37   S    
C55   O4    S    
C37   H4    S    
C4    C56   S    
C40   H17   S    
C44   C46   S    
C2    C45   S    
C21   C32   A    
C51   C52   S    
C43   H19   S    
C52   H41   S    
C4    C6    S    
C36   H7    S    
C4    C23   S    
C49   H39   S    
Cu2   O5    S    
C3    C34   S    
C58   C59   S    
C3    C64   S    
C57   H54   S    
C3    C45   S    
C44   O12   S    
C33   C51   S    
C60   C61   S    
C42   H24   S    
C6    C63   T    
C18   N1    T    
C7    C11   S    
C9    C14   S    
C57   H57   S    
C47   C48   S    
C46   H28   S    
C7    C40   S    
C41   H15   S    
C54   H49   S    
C16   C20   S    
C39   H10   S    
Cu2   O9    S    
C44   H25   S    
C61   H64   S    
C32   H1    S    
Cu1   N2    S    
C23   C64   S    
C20   C22   A    
C50   H36   S    
C51   H44   S    
C13   C15   S    
C21   C24   A    
C59   H59   S    
C42   C43   S    
Cu1   O7    S    
C60   H68   S    
C56   H69   S    
C48   H32   S    
C53   H48   S    
C31   H12   S    
C59   H58   S    
C7    C9    S    
C48   H33   S    
C40   C41   S    
C8    C14   S    
C43   H20   S    
C26   C28   A    
C17   O11   A    
C8    C42   S    
C3    C5    S    
C44   H26   S    
C2    C58   S    
C49   H40   S    
C38   H11   S    
C10   H2    S    
C25   C27   A    
C22   C36   S    
C45   H67   S    
C47   H31   S    
C12   O5    A    
C16   O10   A    
C60   C64   S    
C43   H21   S    
C55   C57   S    
C29   C31   A    
C1    O6    A    
C58   H62   S    
C30   C32   A    
C46   H27   S    
C52   H43   S    
C19   N2    T    
C48   H35   S    
C28   C30   A    
C33   C35   D    
C5    C62   T    
C53   O3    S    
Cu1   Cu2   S    
Cu1   O11   S    
C17   C21   S    
C10   C11   S    
C61   H65   S    
C57   H55   S    
Cu1   O1    S    
C9    H70   S    
C58   H61   S    
C42   H22   S    
C52   H42   S    
C8    C10   S    
C49   C50   S    
C54   H51   S    
C23   O3    S    
Cu1   O8    S    
C12   C63   S    
C26   H45   S    
C55   H52   S    
C50   H38   S    
C36   H6    S    
C20   C31   A    
