data_mof_unit_41146.cif
_audit_creation_date              2012-12-11T15:49:27-0500
_audit_creation_method            fapswitch 2.2
_symmetry_space_group_name_H-M    P1
_symmetry_Int_Tables_number       1
_space_group_crystal_system       triclinic
_cell_length_a                    8.572173
_cell_length_b                    19.004017
_cell_length_c                    27.116031
_cell_angle_alpha                 95.428172
_cell_angle_beta                  93.619383
_cell_angle_gamma                 84.757703
_cell_volume                      4372.53439408

loop_
_atom_site_label
_atom_site_type_symbol
_atom_type_description
_atom_site_fract_x
_atom_site_fract_y
_atom_site_fract_z
_atom_type_partial_charge
Ba1   Ba    Ba6+2 0.854000 0.466860 0.523710 1.767100
Ba2   Ba    Ba6+2 0.335820 0.533080 0.476290 1.751078
C1    C     C_3   0.805947 0.220672 0.674516 0.595550
C2    C     C_R   0.857659 0.555017 0.168126 0.589821
C3    C     C_2   0.758942 0.539514 0.271064 0.326485
C4    C     C_3   0.205574 0.295189 0.655825 0.700540
C5    C     C_3   0.742658 0.557871 0.326392 -0.102922
C6    C     C_1   0.971317 0.475910 0.339916 -0.073774
C7    C     C_2   0.004119 0.469485 0.291678 -0.029194
C8    C     C_2   0.905089 0.514575 0.254981 0.074595
C9    C     C_R   0.031920 0.510417 0.102393 -0.085595
C10   C     C_R   0.147043 0.495004 0.140100 -0.029145
C11   C     C_R   0.299456 0.472786 0.126749 -0.090561
C12   C     C_3   0.747039 0.283564 0.644546 0.754883
C13   C     C_R   0.883045 0.540318 0.116559 -0.037596
C14   C     C_2   0.830153 0.500949 0.354405 0.127174
C15   C     C_2   0.356476 0.489181 0.643044 0.168612
C16   C     C_3   0.292800 0.246716 0.692361 0.207572
C17   C     C_R   0.262317 0.468336 0.986239 0.015371
C18   C     C_R   0.989165 0.514061 0.962399 0.031840
C19   C     C_R   0.143932 0.487910 0.949189 -0.017300
C20   C     C_R   0.413650 0.441319 0.969548 0.366877
C21   C     C_R   0.451750 0.448569 0.920663 -0.130422
C22   C     C_R   0.337432 0.469363 0.884772 -0.060649
C23   C     C_3   0.513127 0.684086 0.629621 0.280241
C24   C     C_R   0.181941 0.482928 0.898131 -0.083373
C25   C     C_R   0.065067 0.492578 0.860239 -0.056348
C26   C     C_R   0.104389 0.482353 0.809774 0.608418
C27   C     C_R   0.375991 0.476400 0.835486 0.619555
C28   C     C_3   0.196880 0.314500 0.419069 0.747521
C29   C     C_2   0.437731 0.456443 0.727601 -0.090833
C30   C     C_3   0.493297 0.478490 0.680061 -0.122234
C31   C     C_1   0.219834 0.519461 0.659154 0.048818
C32   C     C_2   0.191709 0.527760 0.708212 -0.040126
C33   C     C_2   0.299602 0.486930 0.745126 0.178717
C34   C     C_3   0.481520 0.745682 0.670897 0.291233
C35   C     C_R   0.224717 0.476925 0.037748 0.042358
C36   C     C_R   0.069440 0.501336 0.050981 0.038768
C37   C     C_R   0.951341 0.517516 0.013627 0.000161
C38   C     C_R   0.337743 0.465168 0.077300 -0.082074
C39   C     C_R   0.764772 0.553465 0.078806 0.062263
C40   C     C_3   0.202475 0.233149 0.407380 0.250787
C41   C     C_R   0.881472 0.537622 0.923173 0.045214
C42   C     C_R   0.914003 0.517874 0.873398 -0.034535
C43   C     C_R   0.797240 0.534700 0.029009 -0.078284
C44   C     C_R   0.406387 0.296437 0.523468 0.119110
C45   C     C_3   0.999721 0.717355 0.334002 0.409079
C46   C     C_R   0.534970 0.274727 0.494406 0.018062
C47   C     C_R   0.582442 0.201809 0.488036 -0.187689
C48   C     C_R   0.491744 0.150984 0.504073 -0.039737
C49   C     C_R   0.345260 0.174203 0.524862 0.265990
C50   C     C_R   0.305090 0.247367 0.534750 0.000476
C51   C     C_R   0.581623 0.032123 0.537679 0.057400
C52   C     C_3   0.971886 0.691275 0.594110 0.322803
C53   C     C_R   0.626092 0.959278 0.528503 -0.121527
C54   C     C_R   0.644434 0.927114 0.480140 -0.029740
C55   C     C_R   0.616975 0.969985 0.439695 0.410137
C56   C     C_3   0.928775 0.789526 0.317989 0.197065
C57   C     C_R   0.571450 0.042652 0.448944 -0.074120
C58   C     C_R   0.550194 0.074351 0.497262 -0.013484
C59   C     C_R   0.832187 0.823012 0.451844 -0.163166
C60   C     C_R   0.877454 0.749864 0.447137 -0.036862
C61   C     C_R   0.644912 0.728477 0.489714 0.124910
C62   C     C_R   0.600871 0.801636 0.493607 -0.019723
C63   C     C_R   0.691030 0.849272 0.473625 -0.005411
C64   C     C_3   0.899291 0.757993 0.625356 0.316834
C65   C     C_R   0.777673 0.702057 0.463253 -0.202089
C66   C     C_3   0.670390 0.281871 0.365289 0.303313
C67   C     C_3   0.514999 0.709830 0.331047 0.908715
C68   C     C_3   0.549830 0.226652 0.357852 0.189405
C69   C     C_3   0.066759 0.714336 0.554385 -0.276134
C70   C     C_3   0.018905 0.802542 0.655050 -0.403725
C71   C     C_3   0.830079 0.247731 0.381822 -0.261827
C72   C     C_3   0.686543 0.311033 0.314747 -0.290050
C73   C     C_3   0.613979 0.624613 0.653277 -0.349606
C74   C     C_3   0.409686 0.814364 0.650165 -0.309791
C75   C     C_3   0.059459 0.668639 0.289748 -0.202269
C76   C     C_3   0.484661 0.731546 0.239802 -0.339618
C77   C     C_3   0.076076 0.397432 0.271547 -0.255224
C78   C     C_3   0.467607 0.764596 0.293227 0.285627
C79   C     C_3   0.601833 0.585817 0.089996 -0.331020
C80   C     C_3   0.749146 0.595396 0.930430 -0.408498
C81   C     C_3   0.084755 0.590544 0.728080 -0.278423
C82   C     C_3   0.571920 0.062069 0.591009 -0.334676
C83   C     C_3   0.823642 0.623891 0.454975 -0.244233
C84   C     C_R   0.108488 0.503242 0.190649 0.596247
H1    H     H_    0.851064 0.306216 0.632414 0.076109
H2    H     H_    0.594987 0.758632 0.690117 0.090342
H3    H     H_    0.906249 0.689991 0.349057 -0.102294
H4    H     H_    0.023814 0.823064 0.311595 0.124225
H5    H     H_    0.858911 0.817262 0.348226 0.000626
H6    H     H_    0.643488 0.696204 0.328525 -0.268873
H7    H     H_    0.547370 0.807939 0.300497 0.040359
H8    H     H_    0.392048 0.462205 0.154860 0.123940
H9    H     H_    0.515761 0.420923 0.748685 0.186414
H10   H     H_    0.570349 0.432920 0.909761 0.114449
H11   H     H_    0.460408 0.453049 0.072504 0.156933
H12   H     H_    0.313002 0.207897 0.423076 -0.111117
H13   H     H_    0.295637 0.322016 0.638154 -0.040624
H14   H     H_    0.826568 0.531902 0.844461 0.149303
H15   H     H_    0.698689 0.533846 0.002531 0.087110
H16   H     H_    0.499688 0.821910 0.514273 0.063190
H17   H     H_    0.648422 0.927359 0.559639 0.104035
H18   H     H_    0.690128 0.183872 0.470622 0.092573
H19   H     H_    0.206971 0.221342 0.712479 0.118659
H20   H     H_    0.547899 0.074445 0.417736 0.124519
H21   H     H_    0.909046 0.859601 0.440025 0.091966
H22   H     H_    0.366151 0.204281 0.671301 0.049335
H23   H     H_    0.109358 0.210727 0.426265 0.065134
H24   H     H_    0.317912 0.330168 0.427181 -0.198461
H25   H     H_    0.196035 0.161214 0.352168 0.313065
H26   H     H_    0.001897 0.757360 0.535044 0.097841
H27   H     H_    0.175607 0.735026 0.571230 0.107877
H28   H     H_    0.096248 0.668074 0.527944 0.130538
H29   H     H_    0.751331 0.840052 0.616041 0.297519
H30   H     H_    0.078948 0.832424 0.629856 0.128398
H31   H     H_    0.957410 0.842005 0.681652 0.099597
H32   H     H_    0.103414 0.769054 0.676887 0.143425
H33   H     H_    0.825513 0.218491 0.414804 0.064388
H34   H     H_    0.876371 0.660436 0.576448 0.028727
H35   H     H_    0.879596 0.209773 0.351941 0.151984
H36   H     H_    0.906711 0.290576 0.390446 0.148200
H37   H     H_    0.770041 0.352636 0.318565 0.090868
H38   H     H_    0.730190 0.268872 0.286473 0.103247
H39   H     H_    0.571576 0.335462 0.300598 0.117763
H40   H     H_    0.536209 0.179397 0.290984 0.314683
H41   H     H_    0.555692 0.248937 0.613117 0.289936
H42   H     H_    0.724236 0.143006 0.703122 0.303427
H43   H     H_    0.641261 0.580577 0.625096 0.106646
H44   H     H_    0.726776 0.642400 0.669704 0.094434
H45   H     H_    0.826804 0.739464 0.652904 0.050566
H46   H     H_    0.551803 0.606537 0.683614 0.071568
H47   H     H_    0.331920 0.803080 0.616987 0.078745
H48   H     H_    0.343877 0.848402 0.678805 0.134691
H49   H     H_    0.502787 0.845109 0.638759 0.077534
H50   H     H_    0.312289 0.694606 0.691420 0.291033
H51   H     H_    0.828742 0.270441 0.740402 0.350193
H52   H     H_    0.438728 0.251902 0.749456 0.336379
H53   H     H_    0.116719 0.618413 0.302785 0.105508
H54   H     H_    0.960471 0.655780 0.263115 0.118488
H55   H     H_    0.145047 0.694104 0.269936 0.160509
H56   H     H_    0.879199 0.182023 0.650333 0.049133
H57   H     H_    0.798421 0.829605 0.265284 0.312380
H58   H     H_    0.559626 0.775497 0.387868 0.235608
H59   H     H_    0.399699 0.691025 0.230035 0.156251
H60   H     H_    0.462558 0.773358 0.213637 0.101619
H61   H     H_    0.605076 0.705991 0.235276 0.190654
H62   H     H_    0.168919 0.378643 0.701608 0.311601
H63   H     H_    0.298857 0.837348 0.282048 0.302085
H64   H     H_    0.024648 0.354154 0.288025 0.101112
H65   H     H_    0.052824 0.387650 0.230909 0.097746
H66   H     H_    0.204706 0.393136 0.280299 0.162852
H67   H     H_    0.539702 0.203858 0.393069 0.042026
H68   H     H_    0.618021 0.388989 0.982042 0.305585
H69   H     H_    0.639929 0.500695 0.213510 0.302970
H70   H     H_    0.520030 0.584070 0.056534 0.083930
H71   H     H_    0.552620 0.557198 0.118338 0.140382
H72   H     H_    0.606843 0.642402 0.104034 0.158427
H73   H     H_    0.634346 0.572256 0.927822 0.130204
H74   H     H_    0.766325 0.629090 0.965700 0.120515
H75   H     H_    0.745998 0.632487 0.900969 0.126983
H76   H     H_    0.960411 0.581076 0.718107 0.150117
H77   H     H_    0.100938 0.601039 0.768873 0.106057
H78   H     H_    0.435424 0.254019 0.346228 0.102403
H79   H     H_    0.110872 0.639864 0.713137 0.093289
H80   H     H_    0.809015 0.423568 0.395484 0.316455
H81   H     H_    0.482302 0.510178 0.590740 0.297304
H82   H     H_    0.477167 0.038435 0.608193 0.115766
H83   H     H_    0.685074 0.048818 0.611736 0.111692
H84   H     H_    0.548524 0.120460 0.595158 0.151383
H85   H     H_    0.638447 0.891323 0.388237 0.290726
H86   H     H_    0.271210 0.079654 0.521167 0.307745
H87   H     H_    0.911932 0.606703 0.483916 0.104158
H88   H     H_    0.736502 0.587556 0.454983 0.182440
H89   H     H_    0.400228 0.664540 0.614086 0.024919
H90   H     H_    0.857013 0.612181 0.416334 0.035176
H91   H     H_    0.357058 0.395878 0.520345 0.322125
H92   H     H_    0.152467 0.367876 0.481043 0.294724
N1    N     N_R   0.954749 0.521770 0.203756 -0.422336
N2    N     N_R   0.259688 0.480926 0.797106 -0.411527
O1    O     O_2   0.913240 0.537010 0.617740 -0.492514
O2    O     O_2   0.206946 0.751760 0.462519 -0.456714
O3    O     O_3   0.127877 0.728742 0.368251 -0.531778
O4    O     O_3   0.145240 0.536960 0.557560 -0.429426
O5    O     O_3   0.557280 0.416300 0.475860 -0.417404
O6    O     O_2   0.376710 0.670070 0.522470 -0.477614
O7    O     O_3   0.597905 0.709438 0.593402 -0.641218
O8    O     O_2   0.440932 0.513857 0.326533 -0.386711
O9    O     O_3   0.430435 0.649564 0.319873 -0.573863
O10   O     O_2   0.213713 0.496843 0.222822 -0.568748
O11   O     O_2   0.513355 0.480320 0.827515 -0.607579
O12   O     O_3   0.615657 0.341603 0.397284 -0.608096
O13   O     O_2   0.757295 0.601396 0.181103 -0.575469
O14   O     O_2   0.999835 0.475446 0.777420 -0.553994
O15   O     O_3   0.669960 0.410470 0.588880 -0.417409
O16   O     O_2   0.821190 0.443132 0.675729 -0.425005
O17   O     O_3   0.073418 0.650523 0.624908 -0.701725
O18   O     O_3   0.655911 0.334268 0.674245 -0.612803
O19   O     O_2   0.812980 0.329910 0.477500 -0.423908
O20   O     O_3   0.078660 0.374870 0.564770 -0.433057
O21   O     O_2   0.977571 0.247764 0.533535 -0.420240
O22   O     O_3   0.185280 0.213857 0.356248 -0.742621
O23   O     O_3   0.115171 0.253115 0.621663 -0.643253
O24   O     O_3   0.804924 0.801636 0.594325 -0.751874
O25   O     O_3   0.595478 0.170481 0.322753 -0.717431
O26   O     O_3   0.658583 0.259487 0.602109 -0.765590
O27   O     O_3   0.679007 0.187264 0.689080 -0.762747
O28   O     O_3   0.388788 0.726530 0.707623 -0.738823
O29   O     O_3   0.899525 0.243528 0.716335 -0.726297
O30   O     O_3   0.388615 0.285806 0.726340 -0.728683
O31   O     O_3   0.832008 0.781069 0.274665 -0.768774
O32   O     O_3   0.482944 0.739829 0.378970 -0.681310
O33   O     O_3   0.103316 0.345855 0.681081 -0.679072
O34   O     O_2   0.276450 0.462960 0.382230 -0.422492
O35   O     O_3   0.313110 0.793368 0.299495 -0.706082
O36   O     O_3   0.520220 0.403451 0.999427 -0.751867
O37   O     O_3   0.623230 0.538873 0.240720 -0.669750
O38   O     O_3   0.749077 0.468012 0.387011 -0.694027
O39   O     O_3   0.386039 0.486801 0.593738 -0.673078
O40   O     O_3   0.627949 0.943656 0.390684 -0.716992
O41   O     O_3   0.240855 0.127842 0.536525 -0.718231
O42   O     O_3   0.387532 0.363646 0.546224 -0.687808
O43   O     O_3   0.103388 0.330981 0.459359 -0.754763
O44   O     O_3   0.044470 0.462980 0.442430 -0.485417
O45   O     O_3   0.519740 0.589470 0.411120 -0.444499
O46   O     O_3   0.130299 0.349002 0.378312 -0.621813
O47   O     O_3   0.632420 0.583650 0.524140 -0.501911
O48   O     O_3   0.111040 0.625070 0.435230 -0.488198
P1    P     P_3+3 0.082480 0.557670 0.610090 1.017356
P2    P     P_3+3 0.635220 0.340300 0.462910 1.058356
P3    P     P_3+3 0.117822 0.281607 0.562357 1.084472
P4    P     P_3+3 0.107220 0.442270 0.389900 1.015516
P5    P     P_3+3 0.079376 0.716206 0.428351 0.991621
P6    P     P_3+3 0.661249 0.418924 0.653923 1.060974
P7    P     P_3+3 0.559655 0.673193 0.532229 0.961821
P8    P     P_3+3 0.534435 0.577380 0.346203 1.165133

loop_
_geom_bond_atom_site_label_1
_geom_bond_atom_site_label_2
_ccdc_geom_bond_type
C1    O29   S    
C72   H38   S    
C53   C54   A    
C71   H33   S    
C52   H34   S    
C48   C58   S    
C68   H67   S    
C6    P4    S    
C28   O46   S    
H69   O37   S    
C75   H54   S    
C19   C24   A    
O34   P4    D    
H62   O33   S    
C47   H18   S    
Ba2   O6    S    
C64   H45   S    
Ba2   O48   S    
C30   P6    S    
C56   O31   S    
C34   H2    S    
C68   O25   S    
O12   P2    S    
O5    P2    S    
C12   O18   S    
C24   C25   A    
C79   H70   S    
C60   C65   A    
C28   H24   S    
C51   C82   S    
C8    N1    S    
Ba1   O15   S    
C40   H23   S    
C22   C24   A    
O4    P1    S    
C32   C33   S    
C35   C38   A    
C82   H84   S    
O44   P4    S    
C7    C77   S    
C36   C37   A    
O46   P4    S    
C55   C57   A    
C72   H39   S    
C66   O12   S    
H40   O25   S    
C66   C72   S    
C54   C63   S    
C53   H17   S    
C83   H90   S    
C80   H74   S    
C54   C55   A    
C69   H27   S    
Ba1   Ba2   S    
C34   O28   S    
C47   C48   A    
O9    P8    S    
C22   C27   A    
C11   C38   A    
H86   O41   S    
C17   C35   A    
C76   H59   S    
C3    C8    D    
C17   C19   A    
C9    C13   A    
Ba1   P2    S    
C74   H49   S    
C3    O37   S    
C52   C69   S    
O1    P1    D    
C6    C7    D    
C27   N2    Am   
C34   C74   S    
C70   H31   S    
Ba2   O47   S    
C26   O14   D    
C21   C22   A    
C27   O11   D    
O15   P6    S    
C14   O38   S    
O20   P3    S    
H91   O42   S    
C67   H6    S    
C23   O7    S    
C56   H5    S    
H80   O38   S    
H85   O40   S    
C15   O39   S    
C73   H44   S    
Ba2   P4    S    
C37   C43   A    
C46   P2    S    
Ba1   O47   S    
C16   H22   S    
C72   H37   S    
C57   C58   A    
C6    C14   D    
C60   P5    S    
C69   H26   S    
C45   H3    S    
Ba1   O19   S    
C1    H56   S    
C15   C31   D    
C31   P1    S    
C25   C42   A    
H25   O22   S    
H81   O39   S    
Ba1   O4    S    
C21   H10   S    
C48   C49   A    
C78   O35   S    
C44   C46   A    
C51   C53   A    
C2    O13   D    
C4    C16   S    
C64   C70   S    
C65   C83   S    
C57   H20   S    
C84   O10   D    
C49   C50   A    
C17   C20   A    
C79   H71   S    
C13   C39   A    
C45   O3    S    
C82   H83   S    
O18   P6    S    
C67   O9    S    
C38   H11   S    
C3    C5    S    
C18   C37   A    
Ba1   O1    S    
H57   O31   S    
C66   C71   S    
H52   O30   S    
C69   H28   S    
H51   O29   S    
C23   C73   S    
C9    C36   A    
C62   H16   S    
C41   C42   A    
H63   O35   S    
C61   C65   A    
C35   C36   A    
C82   H82   S    
Ba1   P1    S    
C81   H79   S    
C23   H89   S    
C83   H87   S    
C29   C30   S    
C9    C10   A    
C39   C79   S    
H29   O24   S    
Ba2   O44   S    
C83   H88   S    
C67   O32   S    
Ba2   O4    S    
C18   C19   A    
O17   P1    S    
C26   N2    Am   
C80   H75   S    
O48   P5    S    
C1    C12   S    
C43   H15   S    
C76   H61   S    
C56   H4    S    
C77   H64   S    
H68   O36   S    
C46   C47   A    
H42   O27   S    
C81   H76   S    
O3    P5    S    
C52   O17   S    
C71   H35   S    
C12   O26   S    
C29   C33   D    
H92   O43   S    
C40   O22   S    
Ba1   O20   S    
C32   C81   S    
C45   C75   S    
C2    N1    Am   
H58   O32   S    
C18   C41   A    
C73   H46   S    
C77   H65   S    
O6    P7    D    
H50   O28   S    
C33   N2    S    
C41   C80   S    
C81   H77   S    
C5    P8    S    
C5    C14   S    
C74   H48   S    
C79   H72   S    
C16   O30   S    
O45   P8    S    
H41   O26   S    
C75   H53   S    
O19   P2    D    
O8    P8    D    
C20   O36   S    
C12   H1    S    
C74   H47   S    
C50   P3    S    
Ba2   O34   S    
C28   O43   S    
C52   C64   S    
C55   O40   S    
Ba1   O5    S    
O47   P7    S    
C70   H30   S    
C44   O42   S    
C10   C84   A    
C11   H8    S    
C1    O27   S    
C62   C63   A    
O2    P5    D    
C2    C13   A    
C40   H12   S    
C16   H19   S    
C64   O24   S    
C4    O23   S    
C4    H13   S    
C44   C50   A    
O23   P3    S    
C80   H73   S    
C42   H14   S    
C4    O33   S    
O16   P6    D    
C49   O41   S    
C29   H9    S    
C84   N1    Am   
C31   C32   D    
C7    C8    S    
C76   C78   S    
Ba1   O44   S    
C59   C60   A    
C59   H21   S    
C75   H55   S    
Ba2   O5    S    
C51   C58   A    
C76   H60   S    
C23   C34   S    
C61   P7    S    
C61   C62   A    
C59   C63   A    
O21   P3    D    
C10   C11   A    
C66   C68   S    
C71   H36   S    
C70   H32   S    
C25   C26   A    
C15   C30   S    
C39   C43   A    
C20   C21   A    
C28   C40   S    
C67   C78   S    
C78   H7    S    
C68   H78   S    
O7    P7    S    
C73   H43   S    
Ba2   O45   S    
C77   H66   S    
C45   C56   S    
