data_mof_unit_49939.cif
_audit_creation_date              2012-12-11T15:07:07-0500
_audit_creation_method            fapswitch 2.2
_symmetry_space_group_name_H-M    P1
_symmetry_Int_Tables_number       1
_space_group_crystal_system       triclinic
_cell_length_a                    19.816607
_cell_length_b                    11.276094
_cell_length_c                    18.707577
_cell_angle_alpha                 89.955822
_cell_angle_beta                  89.958261
_cell_angle_gamma                 90.074721
_cell_volume                      4180.27556625

loop_
_atom_site_label
_atom_site_type_symbol
_atom_type_description
_atom_site_fract_x
_atom_site_fract_y
_atom_site_fract_z
_atom_type_partial_charge
C1    C     C_R   0.761484 0.523613 0.639217 0.536642
C2    C     C_R   0.238520 0.523474 0.360791 0.536161
C3    C     C_R   0.261483 0.023613 0.639217 0.535980
C4    C     C_R   0.738520 0.023474 0.360791 0.535732
C5    C     C_3   0.810283 0.131118 0.448900 -0.260205
C6    C     C_3   0.189803 0.131121 0.551032 -0.260271
C7    C     C_3   0.310283 0.631119 0.448900 -0.260163
C8    C     C_3   0.689803 0.631120 0.551031 -0.260255
C9    C     C_3   0.746946 0.056631 0.436812 0.066595
C10   C     C_3   0.253098 0.056753 0.563188 0.066526
C11   C     C_3   0.246946 0.556632 0.436812 0.066448
C12   C     C_3   0.753098 0.556752 0.563187 0.066303
C13   C     C_3   0.760420 0.090255 0.574293 0.066816
C14   C     C_3   0.239585 0.090238 0.425704 0.067013
C15   C     C_3   0.260420 0.590256 0.574292 0.066962
C16   C     C_3   0.739586 0.590237 0.425703 0.067203
C17   C     C_3   0.753887 0.957406 0.562044 -0.262715
C18   C     C_3   0.246037 0.957424 0.438083 -0.262930
C19   C     C_3   0.253887 0.457406 0.562044 -0.262694
C20   C     C_3   0.746038 0.457424 0.438082 -0.262946
C21   C     C_3   0.822786 0.133570 0.529793 -0.215403
C22   C     C_3   0.177250 0.133444 0.470151 -0.215467
C23   C     C_3   0.322786 0.633571 0.529793 -0.215432
C24   C     C_3   0.677251 0.633443 0.470150 -0.215396
C25   C     C_3   0.004123 0.203994 0.459109 -0.232842
C26   C     C_3   0.995858 0.204082 0.541098 -0.232563
C27   C     C_3   0.504124 0.703994 0.459110 -0.232877
C28   C     C_3   0.495859 0.704082 0.541099 -0.232567
C29   C     C_3   0.064223 0.405949 0.474282 -0.212022
C30   C     C_3   0.935822 0.405939 0.525637 -0.212201
C31   C     C_3   0.564224 0.905948 0.474282 -0.212187
C32   C     C_3   0.435823 0.905939 0.525639 -0.212303
C33   C     C_3   0.942072 0.390179 0.444584 -0.263170
C34   C     C_3   0.057938 0.390450 0.555368 -0.263320
C35   C     C_3   0.442073 0.890179 0.444586 -0.263102
C36   C     C_3   0.557939 0.890450 0.555369 -0.263287
C37   C     C_3   0.010526 0.332857 0.430957 0.066148
C38   C     C_3   0.989462 0.333006 0.569061 0.065952
C39   C     C_3   0.510526 0.832857 0.430957 0.065824
C40   C     C_3   0.489463 0.833006 0.569062 0.065904
C41   C     C_3   0.822797 0.030206 0.049403 -0.224405
C42   C     C_3   0.178143 0.025510 0.951898 -0.227853
C43   C     C_3   0.320995 0.525797 0.047499 -0.229602
C44   C     C_3   0.684918 0.511052 0.954919 -0.222912
C45   C     C_R   0.774395 0.121080 0.649541 0.536728
C46   C     C_R   0.225615 0.120996 0.350452 0.537282
C47   C     C_R   0.274395 0.621081 0.649540 0.536343
C48   C     C_R   0.725615 0.620995 0.350451 0.536674
C49   C     C_3   0.826831 0.040212 0.968961 -0.221670
C50   C     C_3   0.177535 0.025436 0.032891 -0.230529
C51   C     C_3   0.321142 0.524226 0.966636 -0.231445
C52   C     C_3   0.681604 0.518875 0.035137 -0.230877
C53   C     C_3   0.696756 0.016608 0.032912 -0.211965
C54   C     C_3   0.304706 0.020361 0.966927 -0.216079
C55   C     C_3   0.193791 0.519989 0.032566 -0.215600
C56   C     C_3   0.814346 0.538158 0.968261 -0.204121
C57   C     C_3   0.749817 0.207233 0.062512 -0.257247
C58   C     C_3   0.250575 0.205562 0.936227 -0.257403
C59   C     C_3   0.248998 0.705291 0.062269 -0.255854
C60   C     C_3   0.741329 0.702711 0.936054 -0.260636
C61   C     C_3   0.752914 0.074744 0.077010 0.059099
C62   C     C_3   0.247577 0.073514 0.922919 0.061583
C63   C     C_3   0.251599 0.573180 0.076340 0.060778
C64   C     C_3   0.750455 0.570580 0.924580 0.063306
C65   C     C_3   0.764988 0.107726 0.937806 0.052869
C66   C     C_3   0.234941 0.107417 0.061934 0.048338
C67   C     C_3   0.263596 0.605637 0.937091 0.052461
C68   C     C_3   0.736505 0.605522 0.063083 0.045709
C69   C     C_3   0.707111 0.023964 0.951059 -0.263339
C70   C     C_3   0.300292 0.044723 0.047774 -0.251913
C71   C     C_3   0.198121 0.542430 0.951314 -0.254192
C72   C     C_3   0.803598 0.548032 0.049662 -0.249096
C73   C     C_3   0.748387 0.223964 0.980224 -0.219057
C74   C     C_3   0.237466 0.223206 0.017017 -0.240676
C75   C     C_3   0.260800 0.721904 0.981025 -0.232895
C76   C     C_3   0.735440 0.721165 0.018049 -0.233672
C77   C     C_3   0.001311 0.486736 0.042532 0.070302
C78   C     C_3   0.988911 0.486878 0.961388 0.070434
C79   C     C_3   0.504393 0.987664 0.041457 0.068017
C80   C     C_3   0.495643 0.988688 0.959436 0.064280
C81   C     C_3   0.065733 0.297743 0.027613 -0.245187
C82   C     C_3   0.937829 0.276418 0.973570 -0.242390
C83   C     C_3   0.566651 0.796587 0.025028 -0.250980
C84   C     C_3   0.432365 0.797391 0.974781 -0.249561
C85   C     C_3   0.944147 0.288288 0.055144 -0.269344
C86   C     C_3   0.057448 0.303248 0.945634 -0.269455
C87   C     C_3   0.447023 0.786605 0.055008 -0.257963
C88   C     C_3   0.552265 0.787605 0.944774 -0.256447
C89   C     C_R   0.969167 0.342126 0.645011 0.536068
C90   C     C_R   0.030817 0.342017 0.354987 0.535257
C91   C     C_R   0.469168 0.842126 0.645012 0.536261
C92   C     C_R   0.530818 0.842017 0.354988 0.536292
C93   C     C_3   0.008527 0.356333 0.070452 0.036524
C94   C     C_3   0.988337 0.356264 0.931411 0.038369
C95   C     C_3   0.510875 0.856116 0.069341 0.040499
C96   C     C_3   0.488447 0.857049 0.930869 0.042799
C97   C     C_R   0.760310 0.533948 0.848545 0.533644
C98   C     C_R   0.240634 0.536262 0.152474 0.531202
C99   C     C_R   0.259165 0.036536 0.847173 0.531544
C100  C     C_R   0.741184 0.037788 0.153182 0.527607
C101  C     C_R   0.775957 0.135393 0.859931 0.530407
C102  C     C_R   0.223785 0.136043 0.139763 0.534776
C103  C     C_R   0.275425 0.634219 0.859499 0.532684
C104  C     C_R   0.724469 0.634494 0.140494 0.530898
C105  C     C_R   0.967806 0.353980 0.854446 0.524184
C106  C     C_R   0.030210 0.353700 0.146995 0.523277
C107  C     C_R   0.467331 0.854217 0.854453 0.523960
C108  C     C_R   0.532317 0.853893 0.145720 0.525589
C109  C     C_3   0.687661 0.131644 0.465718 -0.235096
C110  C     C_3   0.312477 0.131767 0.534201 -0.235262
C111  C     C_3   0.187661 0.631644 0.465718 -0.235128
C112  C     C_3   0.812478 0.631767 0.534200 -0.235270
C113  C     C_3   0.693143 0.144449 0.546894 -0.230676
C114  C     C_3   0.306933 0.144621 0.453021 -0.230637
C115  C     C_3   0.193143 0.644449 0.546894 -0.230672
C116  C     C_3   0.806934 0.644620 0.453020 -0.230616
C117  C     C_3   0.756322 0.938681 0.480634 -0.216736
C118  C     C_3   0.243627 0.938748 0.519508 -0.216663
C119  C     C_3   0.256322 0.438682 0.480634 -0.216817
C120  C     C_3   0.743628 0.438747 0.519508 -0.216689
Cr1   Cr    Cr6+3 0.885690 0.492860 0.745310 0.992247
Cr2   Cr    Cr6+3 0.114310 0.492860 0.254690 0.988149
Cr3   Cr    Cr6+3 0.385690 0.992860 0.745310 0.990708
Cr4   Cr    Cr6+3 0.614310 0.992860 0.254690 0.988421
Cr5   Cr    Cr6+3 0.729880 0.332270 0.748190 0.985468
Cr6   Cr    Cr6+3 0.270120 0.332270 0.251810 0.984743
Cr7   Cr    Cr6+3 0.229880 0.832270 0.748190 0.985720
Cr8   Cr    Cr6+3 0.770120 0.832270 0.251810 0.983000
Cr9   Cr    Cr6+3 0.888120 0.178590 0.753010 0.990866
Cr10  Cr    Cr6+3 0.111880 0.178590 0.246990 0.989850
Cr11  Cr    Cr6+3 0.388120 0.678590 0.753010 0.991202
Cr12  Cr    Cr6+3 0.611880 0.678590 0.246990 0.990509
H1    H     H_    0.639178 0.094143 0.451118 0.130889
H2    H     H_    0.360914 0.094115 0.548751 0.130876
H3    H     H_    0.139177 0.594143 0.451119 0.130855
H4    H     H_    0.860915 0.594116 0.548751 0.130809
H5    H     H_    0.863208 0.067932 0.539836 0.125644
H6    H     H_    0.136760 0.067716 0.460198 0.125494
H7    H     H_    0.363208 0.567933 0.539836 0.125674
H8    H     H_    0.636761 0.567715 0.460196 0.125521
H9    H     H_    0.808254 0.908296 0.469275 0.126247
H10   H     H_    0.191668 0.908288 0.530930 0.126442
H11   H     H_    0.308254 0.408297 0.469275 0.126264
H12   H     H_    0.691668 0.408287 0.530929 0.126443
H13   H     H_    0.795943 0.909524 0.588587 0.120349
H14   H     H_    0.203922 0.909481 0.411609 0.120074
H15   H     H_    0.295943 0.409525 0.588586 0.120333
H16   H     H_    0.703923 0.409480 0.411608 0.119996
H17   H     H_    0.046921 0.150287 0.442865 0.130541
H18   H     H_    0.953107 0.150148 0.557471 0.130762
H19   H     H_    0.546922 0.650287 0.442866 0.130516
H20   H     H_    0.453107 0.650148 0.557471 0.130770
H21   H     H_    0.960183 0.159513 0.434198 0.106580
H22   H     H_    0.039819 0.159861 0.566067 0.106735
H23   H     H_    0.460184 0.659512 0.434199 0.106746
H24   H     H_    0.539819 0.659861 0.566068 0.106803
H25   H     H_    0.615803 0.890485 0.455862 0.111599
H26   H     H_    0.384227 0.890578 0.544116 0.111340
H27   H     H_    0.115802 0.390485 0.455861 0.111648
H28   H     H_    0.884227 0.390578 0.544115 0.111325
H29   H     H_    0.599412 0.834886 0.576586 0.103980
H30   H     H_    0.400567 0.834443 0.423504 0.103983
H31   H     H_    0.099412 0.334887 0.576585 0.103948
H32   H     H_    0.900567 0.334444 0.423502 0.103790
H33   H     H_    0.938798 0.477705 0.417546 0.120991
H34   H     H_    0.061196 0.478054 0.582239 0.121052
H35   H     H_    0.438798 0.977705 0.417548 0.121208
H36   H     H_    0.561197 0.978053 0.582240 0.121085
H37   H     H_    0.947706 0.500419 0.535956 0.129685
H38   H     H_    0.052397 0.500358 0.463785 0.130031
H39   H     H_    0.447706 0.000419 0.535957 0.129730
H40   H     H_    0.552397 0.000358 0.463786 0.130045
H41   H     H_    0.833665 0.936665 0.063163 0.134776
H42   H     H_    0.164663 0.934779 0.934706 0.135702
H43   H     H_    0.334976 0.435550 0.065272 0.136250
H44   H     H_    0.679222 0.418301 0.939517 0.135486
H45   H     H_    0.687694 0.220355 0.440446 0.107192
H46   H     H_    0.312609 0.220468 0.559422 0.107270
H47   H     H_    0.187693 0.720355 0.440446 0.107228
H48   H     H_    0.812610 0.720468 0.559421 0.107269
H49   H     H_    0.863381 0.081885 0.074961 0.113304
H50   H     H_    0.137110 0.081786 0.931170 0.112995
H51   H     H_    0.361922 0.583735 0.067474 0.114133
H52   H     H_    0.639744 0.555218 0.931668 0.115476
H53   H     H_    0.874304 0.078776 0.953512 0.132724
H54   H     H_    0.126361 0.049037 0.050759 0.130285
H55   H     H_    0.372509 0.546604 0.948546 0.131426
H56   H     H_    0.629573 0.543984 0.049840 0.130542
H57   H     H_    0.829684 0.949419 0.945642 0.113114
H58   H     H_    0.185260 0.934075 0.053035 0.116990
H59   H     H_    0.313212 0.432564 0.947278 0.116472
H60   H     H_    0.689169 0.430419 0.059130 0.117383
H61   H     H_    0.696468 0.926932 0.051630 0.109311
H62   H     H_    0.300395 0.928074 0.956184 0.108858
H63   H     H_    0.197529 0.427832 0.043737 0.108793
H64   H     H_    0.835206 0.452521 0.952961 0.101470
H65   H     H_    0.715932 0.935572 0.927383 0.107818
H66   H     H_    0.305154 0.961867 0.079465 0.105463
H67   H     H_    0.195576 0.458405 0.920772 0.100293
H68   H     H_    0.807365 0.460616 0.076470 0.104252
H69   H     H_    0.703458 0.243971 0.087407 0.109137
H70   H     H_    0.301002 0.240725 0.921028 0.117367
H71   H     H_    0.198977 0.741095 0.078173 0.114946
H72   H     H_    0.784756 0.753747 0.914141 0.109336
H73   H     H_    0.793786 0.252944 0.086508 0.104944
H74   H     H_    0.212090 0.252073 0.903335 0.101521
H75   H     H_    0.288112 0.752227 0.094038 0.101068
H76   H     H_    0.695637 0.734103 0.907660 0.104042
H77   H     H_    0.779552 0.298199 0.963577 0.111461
H78   H     H_    0.187471 0.254861 0.019406 0.119688
H79   H     H_    0.310433 0.755243 0.975842 0.114064
H80   H     H_    0.686936 0.754617 0.027793 0.114144
H81   H     H_    0.695678 0.246172 0.966676 0.116599
H82   H     H_    0.274374 0.285601 0.039628 0.123536
H83   H     H_    0.222794 0.782414 0.958710 0.125241
H84   H     H_    0.774951 0.782818 0.036494 0.123058
H85   H     H_    0.650062 0.062503 0.046422 0.130777
H86   H     H_    0.351520 0.056940 0.946393 0.129402
H87   H     H_    0.147219 0.557946 0.052963 0.128133
H88   H     H_    0.851931 0.607002 0.954019 0.123539
H89   H     H_    0.687511 0.236692 0.562645 0.138723
H90   H     H_    0.312599 0.236926 0.437221 0.138889
H91   H     H_    0.187510 0.736692 0.562645 0.138720
H92   H     H_    0.812600 0.736925 0.437219 0.138903
H93   H     H_    0.663918 0.060946 0.923708 0.161262
H94   H     H_    0.339604 0.107565 0.063384 0.170531
H95   H     H_    0.157012 0.601210 0.933878 0.161481
H96   H     H_    0.840091 0.609864 0.072707 0.167386
H97   H     H_    0.049119 0.530776 0.051360 0.175871
H98   H     H_    0.940015 0.523114 0.950948 0.171016
H99   H     H_    0.551481 0.032837 0.053533 0.172966
H100  H     H_    0.449799 0.036697 0.947448 0.173599
H101  H     H_    0.606959 0.858474 0.029646 0.107121
H102  H     H_    0.391681 0.858431 0.969565 0.104715
H103  H     H_    0.107973 0.350227 0.043163 0.102316
H104  H     H_    0.885766 0.287280 0.955653 0.113452
H105  H     H_    0.594579 0.824810 0.912931 0.112193
H106  H     H_    0.404075 0.820104 0.087313 0.105623
H107  H     H_    0.098409 0.355329 0.920631 0.116778
H108  H     H_    0.899631 0.333791 0.077709 0.112256
H109  H     H_    0.948091 0.199585 0.080352 0.115455
H110  H     H_    0.059871 0.213403 0.922045 0.109298
H111  H     H_    0.455375 0.692165 0.069479 0.120757
H112  H     H_    0.545514 0.693118 0.929182 0.120682
H113  H     H_    0.953516 0.184913 0.960982 0.129629
H114  H     H_    0.071485 0.204980 0.044418 0.138075
H115  H     H_    0.419966 0.710054 0.952697 0.137916
H116  H     H_    0.579126 0.708548 0.046685 0.137157
H117  H     H_    0.649748 0.099745 0.572833 0.106358
H118  H     H_    0.350298 0.100033 0.427085 0.106267
H119  H     H_    0.149748 0.599745 0.572833 0.106309
H120  H     H_    0.850299 0.600033 0.427084 0.106047
H121  H     H_    0.721654 0.868846 0.464032 0.110090
H122  H     H_    0.278277 0.869004 0.536176 0.110110
H123  H     H_    0.221654 0.368847 0.464032 0.110022
H124  H     H_    0.778277 0.369003 0.536176 0.110072
H125  H     H_    0.706111 0.923098 0.585003 0.103520
H126  H     H_    0.293786 0.923204 0.415150 0.103562
H127  H     H_    0.206111 0.423098 0.585003 0.103464
H128  H     H_    0.793787 0.423203 0.415149 0.103352
H129  H     H_    0.854300 0.091350 0.421074 0.123077
H130  H     H_    0.145751 0.091319 0.578926 0.123256
H131  H     H_    0.354299 0.591352 0.421073 0.123245
H132  H     H_    0.645751 0.591319 0.578925 0.123333
H133  H     H_    0.803683 0.221853 0.427507 0.103962
H134  H     H_    0.196475 0.221900 0.572289 0.104164
H135  H     H_    0.303682 0.721854 0.427507 0.104096
H136  H     H_    0.696475 0.721899 0.572287 0.104241
H137  H     H_    0.841625 0.219663 0.547585 0.111798
H138  H     H_    0.158422 0.219466 0.452243 0.111775
H139  H     H_    0.341625 0.719664 0.547585 0.111794
H140  H     H_    0.658423 0.719465 0.452241 0.111774
O1    O     O_R   0.957210 0.449410 0.665480 -0.534294
O2    O     O_R   0.042790 0.449410 0.334520 -0.534597
O3    O     O_R   0.457210 0.949410 0.665480 -0.534062
O4    O     O_R   0.542790 0.949410 0.334520 -0.533979
O5    O     O_R   0.736260 0.212010 0.826560 -0.514033
O6    O     O_R   0.263740 0.212010 0.173440 -0.513675
O7    O     O_R   0.236260 0.712010 0.826560 -0.512661
O8    O     O_R   0.763740 0.712010 0.173440 -0.514419
O9    O     O_R   0.832520 0.095300 0.836000 -0.533081
O10   O     O_R   0.167480 0.095300 0.164000 -0.532646
O11   O     O_R   0.332520 0.595300 0.836000 -0.533660
O12   O     O_R   0.667480 0.595300 0.164000 -0.533651
O13   O     O_R   0.946380 0.253940 0.826940 -0.511939
O14   O     O_R   0.053620 0.253940 0.173060 -0.513309
O15   O     O_R   0.446380 0.753940 0.826940 -0.512034
O16   O     O_R   0.553620 0.753940 0.173060 -0.512704
O17   O     O_3   0.834560 0.334570 0.748840 -0.273651
O18   O     O_3   0.165440 0.334570 0.251160 -0.271394
O19   O     O_3   0.334560 0.834570 0.748840 -0.272073
O20   O     O_3   0.665440 0.834570 0.251160 -0.271209
O21   O     O_R   0.820730 0.541240 0.668250 -0.515386
O22   O     O_R   0.179270 0.541240 0.331750 -0.515567
O23   O     O_R   0.320730 0.041240 0.668250 -0.515558
O24   O     O_R   0.679270 0.041240 0.331750 -0.515826
O25   O     O_R   0.714240 0.455060 0.663710 -0.532658
O26   O     O_R   0.285760 0.455060 0.336290 -0.533139
O27   O     O_R   0.214240 0.955060 0.663710 -0.533256
O28   O     O_R   0.785760 0.955060 0.336290 -0.533500
O29   O     O_R   0.736780 0.204870 0.675910 -0.515173
O30   O     O_R   0.263220 0.204870 0.324090 -0.515142
O31   O     O_R   0.236780 0.704870 0.675910 -0.515468
O32   O     O_R   0.763220 0.704870 0.324090 -0.515550
O33   O     O_R   0.833070 0.087590 0.673490 -0.530075
O34   O     O_R   0.166930 0.087590 0.326510 -0.530309
O35   O     O_R   0.333070 0.587590 0.673490 -0.530246
O36   O     O_R   0.666930 0.587590 0.326510 -0.530465
O37   O     O_R   0.946890 0.246800 0.676300 -0.512542
O38   O     O_R   0.053110 0.246800 0.323700 -0.513219
O39   O     O_R   0.446890 0.746800 0.676300 -0.512388
O40   O     O_R   0.553110 0.746800 0.323700 -0.512551
O41   O     O_R   0.956650 0.457120 0.827980 -0.527145
O42   O     O_R   0.043350 0.457120 0.172020 -0.527235
O43   O     O_R   0.456650 0.957120 0.827980 -0.534185
O44   O     O_R   0.543350 0.957120 0.172020 -0.529076
O45   O     O_R   0.820220 0.548390 0.818890 -0.512100
O46   O     O_R   0.179780 0.548390 0.181110 -0.513936
O47   O     O_R   0.320220 0.048390 0.818890 -0.513528
O48   O     O_R   0.679780 0.048390 0.181110 -0.513835
O49   O     O_R   0.713680 0.462770 0.826210 -0.534578
O50   O     O_R   0.286320 0.462770 0.173790 -0.534109
O51   O     O_R   0.213680 0.962770 0.826210 -0.534297
O52   O     O_R   0.786320 0.962770 0.173790 -0.533979
N1    N     N_2   0.950709 0.553441 0.082125 -0.550291
H141  H     H_    0.930377 0.511910 0.126338 0.262618
C121  C     C_3   0.963339 0.678683 0.094439 -0.321719
H142  H     H_    0.929748 0.711645 0.137653 0.139360
H143  H     H_    0.951049 0.730093 0.045736 0.133905
H144  H     H_    0.016317 0.694752 0.111316 0.150623
N2    N     N_2   0.038695 0.561454 0.924742 -0.550429
H145  H     H_    0.058610 0.530587 0.877375 0.269884
C122  C     C_3   0.028373 0.688613 0.925055 -0.323443
H146  H     H_    0.059412 0.730497 0.882437 0.136740
H147  H     H_    0.045721 0.726052 0.976595 0.136793
H148  H     H_    0.974640 0.711013 0.914930 0.146142
N3    N     N_2   0.451189 0.052675 0.078189 -0.553062
H149  H     H_    0.431259 0.012566 0.123052 0.266965
C123  C     C_3   0.461621 0.179108 0.088113 -0.332673
H150  H     H_    0.423281 0.214792 0.125723 0.141506
H151  H     H_    0.455176 0.226153 0.036572 0.136655
H152  H     H_    0.512237 0.197454 0.111153 0.151147
N4    N     N_2   0.549614 0.053076 0.923608 -0.558339
H153  H     H_    0.562704 0.022580 0.873562 0.271340
C124  C     C_3   0.547470 0.181591 0.926563 -0.338776
H154  H     H_    0.585864 0.219408 0.889692 0.143646
H155  H     H_    0.560128 0.212660 0.981106 0.136866
H156  H     H_    0.497203 0.215141 0.909845 0.145899

loop_
_geom_bond_atom_site_label_1
_geom_bond_atom_site_label_2
_ccdc_geom_bond_type
C5    H133  S    
C82   C94   S    
C119  H11   S    
C120  H12   S    
C21   H5    S    
C53   C69   S    
C104  O8    A    
N3    H149  S    
C43   C63   S    
C122  H146  S    
C44   C64   S    
Cr6   O6    S    
C84   H115  S    
C112  H4    S    
C63   C98   S    
Cr2   O2    S    
C19   H127  S    
C31   H40   S    
C28   C40   S    
C36   H36   S    
C30   C38   S    
Cr9   O33   S    
C56   C72   S    
C45   O33   A    
C8    H132  S    
C18   C118  S    
C81   C86   S    
C83   C88   S    
C87   H106  S    
C48   O32   A    
C74   H82   S    
C89   O1    A    
C41   C49   S    
C111  H3    S    
C54   H86   S    
Cr1   O45   S    
Cr2   O42   S    
C109  H1    S    
Cr4   O48   S    
C26   C38   S    
Cr10  O34   S    
C14   C114  S    
Cr11  O39   S    
C60   C76   S    
C24   H8    S    
Cr8   O52   S    
C69   H93   S    
C30   H37   S    
C6    C10   S    
C54   C70   S    
C48   O36   A    
C68   C72   S    
C23   H139  S    
C97   O45   A    
C13   C21   S    
C124  H156  S    
C99   O47   A    
C79   H99   S    
C31   H25   S    
C64   C97   S    
C36   H29   S    
C15   C115  S    
C20   C120  S    
C122  H148  S    
C1    O25   A    
C77   H97   S    
C70   H94   S    
Cr4   O20   S    
C57   C61   S    
C82   C85   S    
Cr6   O50   S    
C59   C63   S    
Cr11  O19   S    
C60   C64   S    
Cr9   O13   S    
C13   C45   S    
C102  O6    A    
C78   C94   S    
C43   H51   S    
C95   C108  S    
C113  H89   S    
C62   C99   S    
C107  O43   A    
C5    C21   S    
C58   H70   S    
C110  H46   S    
C31   C36   S    
C47   O35   A    
C4    O28   A    
Cr5   O17   S    
C90   O38   A    
C54   H62   S    
Cr1   O21   S    
C84   H102  S    
Cr2   O18   S    
C65   C101  S    
Cr10  O14   S    
Cr3   O23   S    
Cr11  O11   S    
C67   C103  S    
C66   C70   S    
C37   C90   S    
C24   H140  S    
C73   H77   S    
C115  H119  S    
C66   C74   S    
C113  H117  S    
C25   H17   S    
C57   C73   S    
N1    C121  S    
C53   C61   S    
C60   H72   S    
C83   H101  S    
C56   H88   S    
C55   C63   S    
C6    H134  S    
C56   C64   S    
C7    H131  S    
Cr7   O51   S    
C42   C62   S    
C112  H48   S    
Cr5   O29   S    
C76   H80   S    
C70   H66   S    
C56   H64   S    
C1    C12   S    
C43   H43   S    
C80   H100  S    
C2    C11   S    
Cr3   O3    S    
C7    C11   S    
C53   H85   S    
C111  H47   S    
C6    H130  S    
C42   H42   S    
C121  H143  S    
Cr9   O37   S    
C55   H87   S    
C25   C26   S    
C105  O13   A    
C107  O15   A    
C5    C9    S    
C108  O16   A    
C59   H71   S    
C93   C106  S    
N2    C122  S    
C8    C12   S    
C90   O2    A    
C51   C67   S    
C7    H135  S    
C42   C50   S    
C71   H95   S    
Cr2   O46   S    
C80   N4    S    
N4    C124  S    
Cr3   O43   S    
C110  H2    S    
C61   C100  S    
C67   C75   S    
C17   H125  S    
C91   O3    A    
C50   H54   S    
C112  C116  S    
C51   H59   S    
C58   C74   S    
Cr10  O38   S    
C59   H75   S    
C41   H41   S    
C81   H114  S    
C33   H33   S    
C44   H44   S    
C68   C76   S    
C1    O21   A    
C98   O46   A    
C85   H108  S    
C14   C22   S    
C3    O23   A    
C7    C23   S    
C8    C24   S    
C40   C91   S    
C101  O9    A    
Cr7   O27   S    
C99   O51   A    
Cr8   O20   S    
C123  H152  S    
C49   H53   S    
C57   H69   S    
C79   N3    S    
C52   H56   S    
Cr7   O7    S    
C4    C9    S    
Cr4   O24   S    
Cr8   O8    S    
C86   H110  S    
C58   C62   S    
C5    H129  S    
C88   C96   S    
C94   C105  S    
C82   H104  S    
C53   H61   S    
C12   C112  S    
C41   H49   S    
C21   H137  S    
C14   C46   S    
C77   C78   S    
C42   H50   S    
C15   C19   S    
C115  H91   S    
C75   H79   S    
C101  O5    A    
C58   H74   S    
C6    C22   S    
C78   N2    S    
C2    O22   A    
Cr11  O35   S    
Cr6   O18   S    
Cr8   O28   S    
Cr2   O22   S    
C103  O7    A    
C124  H155  S    
Cr3   O19   S    
C46   O34   A    
C82   H113  S    
C17   C117  S    
C19   C119  S    
C27   H23   S    
C73   H81   S    
C81   H103  S    
Cr12  O36   S    
C16   C116  S    
N3    C123  S    
C122  H147  S    
C9    C109  S    
C25   H21   S    
C26   H18   S    
C105  O41   A    
C60   H76   S    
C54   C62   S    
C18   H14   S    
Cr3   O47   S    
C29   C34   S    
C108  O44   A    
C33   C37   S    
C41   C61   S    
C116  H92   S    
C117  H9    S    
N2    H145  S    
C79   C95   S    
Cr5   O25   S    
C76   H84   S    
C123  H150  S    
Cr6   O30   S    
C85   H109  S    
C86   H107  S    
C114  H90   S    
Cr12  O12   S    
C32   H39   S    
C91   O39   A    
C100  O52   A    
C39   C92   S    
C27   H19   S    
C106  O14   A    
C14   C18   S    
C68   C104  S    
C119  H123  S    
C17   H13   S    
C88   H112  S    
C71   H67   S    
C13   C17   S    
C78   H98   S    
C22   H6    S    
Cr5   O49   S    
C19   H15   S    
C121  H142  S    
C104  O12   A    
C43   C51   S    
Cr5   O5    S    
C65   C69   S    
C77   C93   S    
C10   C110  S    
C67   C71   S    
N1    H141  S    
C50   H58   S    
Cr1   O1    S    
C18   H126  S    
C51   H55   S    
C3    O27   A    
C109  H45   S    
C72   H96   S    
C29   C37   S    
C11   C111  S    
C34   H34   S    
C55   H63   S    
N4    H153  S    
C9    C117  S    
C102  O10   A    
C35   C39   S    
C84   C87   S    
C15   C47   S    
C8    H136  S    
C11   C119  S    
C16   C48   S    
C29   H27   S    
C30   H28   S    
C38   C89   S    
C49   C65   S    
C74   H78   S    
C23   H7    S    
Cr7   O31   S    
Cr8   O32   S    
C49   H57   S    
Cr1   O41   S    
C114  H118  S    
C57   H73   S    
C65   C73   S    
C52   H60   S    
Cr4   O44   S    
C118  H122  S    
C25   C37   S    
C12   C120  S    
C27   C39   S    
C83   H116  S    
C35   H35   S    
Cr12  O20   S    
C55   C71   S    
C29   H38   S    
C80   C96   S    
C86   C94   S    
C44   H52   S    
C52   C68   S    
C16   C20   S    
C22   H138  S    
C15   C23   S    
Cr9   O17   S    
C16   C24   S    
C69   H65   S    
C59   C75   S    
C85   C93   S    
C2    O26   A    
C103  O11   A    
C32   H26   S    
C35   H30   S    
C117  H121  S    
C120  H124  S    
C32   C35   S    
C36   C40   S    
C33   H32   S    
C34   H31   S    
C97   O49   A    
C66   C102  S    
Cr7   O19   S    
C116  H120  S    
C87   C95   S    
C46   O30   A    
C10   C118  S    
C72   H68   S    
C81   C93   S    
C87   H111  S    
C83   C95   S    
Cr10  O18   S    
C20   H16   S    
Cr12  O40   S    
Cr9   O9    S    
C50   C66   S    
C100  O48   A    
C20   H128  S    
C123  H151  S    
C28   H20   S    
C45   O29   A    
C26   H22   S    
C92   O4    A    
C84   C96   S    
C106  O42   A    
C92   O40   A    
C110  C114  S    
C30   C33   S    
C34   C38   S    
C77   N1    S    
C96   C107  S    
C47   O31   A    
C4    O24   A    
C118  H10   S    
C89   O37   A    
C121  H144  S    
Cr6   O26   S    
C109  C113  S    
Cr1   O17   S    
Cr10  O10   S    
C3    C10   S    
Cr11  O15   S    
Cr4   O4    S    
C44   C52   S    
Cr12  O16   S    
C88   H105  S    
C75   H83   S    
C31   C39   S    
C32   C40   S    
C79   C80   S    
C98   O50   A    
C27   C28   S    
C28   H24   S    
C111  C115  S    
C124  H154  S    
C13   C113  S    
