data_mof_unit_11808.cif
_audit_creation_date              2012-10-26T18:33:40-0400
_audit_creation_method            fapswitch 2.2
_symmetry_space_group_name_H-M    P1
_symmetry_Int_Tables_number       1
_space_group_crystal_system       triclinic
_cell_length_a                    14.996783
_cell_length_b                    13.798976
_cell_length_c                    10.797943
_cell_angle_alpha                 89.433295
_cell_angle_beta                  86.88007
_cell_angle_gamma                 88.854043
_cell_volume                      2230.68401563

loop_
_atom_site_label
_atom_site_type_symbol
_atom_type_description
_atom_site_fract_x
_atom_site_fract_y
_atom_site_fract_z
_atom_type_partial_charge
C1    C     C_R   0.328976 0.500710 0.499925 0.522702
C2    C     C_R   0.038862 0.481458 0.724654 -0.115087
C3    C     C_R   0.089607 0.489948 0.612432 -0.032081
C4    C     C_R   0.505833 0.500451 0.260106 0.574624
C5    C     C_R   0.046987 0.503225 0.500170 0.004445
C6    C     C_R   0.097992 0.515539 0.387097 0.032441
C7    C     C_R   0.055007 0.522144 0.274537 0.255887
C8    C     C_R   0.962692 0.509793 0.274823 -0.103259
C9    C     C_R   0.182498 0.483804 0.610017 -0.131661
C10   C     C_R   0.232616 0.502116 0.499934 -0.013838
C11   C     C_R   0.190949 0.519744 0.389335 -0.147468
C12   C     C_3   0.560152 0.418061 0.923261 -0.171068
C13   C     C_R   0.426206 0.795961 0.546562 0.427675
C14   C     C_R   0.431835 0.206796 0.561825 0.410252
C15   C     C_R   0.571790 0.792535 0.447530 -0.002730
C16   C     C_R   0.569200 0.205460 0.440782 0.019129
C17   C     C_R   0.573192 0.895453 0.444057 -0.028660
C18   C     C_R   0.572184 0.102526 0.441364 -0.021348
C19   C     C_R   0.671156 0.498888 0.499869 0.565606
C20   C     C_R   0.500681 0.948507 0.498719 0.011082
C21   C     C_R   0.500605 0.051792 0.498611 0.017562
C22   C     C_R   0.427652 0.898509 0.552990 -0.007209
C23   C     C_R   0.819188 0.486287 0.387895 0.227983
C24   C     C_R   0.428270 0.104164 0.555014 -0.004019
C25   C     C_R   0.645061 0.946693 0.387477 -0.123814
C26   C     C_R   0.644290 0.049033 0.385419 -0.119747
C27   C     C_R   0.354500 0.052857 0.605234 -0.153756
C28   C     C_R   0.356063 0.952035 0.609495 -0.153174
C29   C     C_R   0.500285 0.500805 0.740415 0.596537
C30   C     C_3   0.529638 0.606963 0.066719 0.145511
C31   C     C_3   0.412042 0.476319 0.082757 0.136749
C32   C     C_3   0.546603 0.602193 0.923284 0.560356
C33   C     C_3   0.404825 0.499230 0.941521 0.511580
C34   C     C_R   0.767892 0.495986 0.499834 -0.007131
C35   C     C_3   0.575267 0.424857 0.062715 0.676695
C36   C     C_3   0.508201 0.502266 0.122465 -0.047139
C37   C     C_3   0.502199 0.505544 0.878859 -0.013141
C38   C     C_3   0.670677 0.634530 0.154356 -0.008788
C39   C     C_3   0.307358 0.361969 0.153728 -0.044566
C40   C     C_3   0.103799 0.630428 0.128899 -0.142408
C41   C     C_3   0.284944 0.759430 0.497076 -0.117261
C42   C     C_3   0.371274 0.243755 0.754771 -0.061958
C43   C     C_3   0.564908 0.762876 0.849787 -0.012407
C44   C     C_3   0.295027 0.593500 0.842399 -0.018597
C45   C     C_R   0.809007 0.499487 0.612671 -0.158669
C46   C     C_3   0.792302 0.357991 0.267907 -0.052090
C47   C     C_3   0.898432 0.565038 0.904628 -0.098409
C48   C     C_R   0.902294 0.496326 0.614453 0.016753
C49   C     C_R   0.953550 0.501130 0.500619 -0.043180
C50   C     C_R   0.911616 0.499771 0.386918 -0.029152
C51   C     C_R   0.945365 0.488752 0.727065 0.280943
Cu1   Cu    Cu3+1 0.499990 0.597420 0.500010 1.014428
Cu2   Cu    Cu3+1 0.499990 0.402580 0.500010 1.048083
F1    F     F_    0.637520 0.596221 0.889246 -0.673511
F2    F     F_    0.358791 0.425272 0.888475 -0.679735
F3    F     F_    0.662785 0.448749 0.076346 -0.629514
F4    F     F_    0.563804 0.333891 0.116494 -0.573512
H1    H     H_    0.071661 0.470333 0.810836 0.129636
H2    H     H_    0.300059 0.916429 0.656687 0.146397
H3    H     H_    0.464730 0.646862 0.080667 0.166615
H4    H     H_    0.363132 0.524119 0.136982 0.084768
H5    H     H_    0.625629 0.414455 0.869454 0.173764
H6    H     H_    0.526425 0.349163 0.905888 0.157818
H7    H     H_    0.767941 0.501683 0.698474 0.193369
H8    H     H_    0.710846 0.612122 0.070433 0.228146
H9    H     H_    0.665211 0.576955 0.225700 0.217483
H10   H     H_    0.707967 0.693618 0.195714 0.080116
H11   H     H_    0.292525 0.283807 0.147555 0.143886
H12   H     H_    0.215806 0.464983 0.693352 0.126384
H13   H     H_    0.257527 0.402792 0.099716 0.173696
H14   H     H_    0.300962 0.382002 0.253054 0.121745
H15   H     H_    0.141941 0.638414 0.038642 0.140156
H16   H     H_    0.137380 0.674357 0.197997 0.115536
H17   H     H_    0.034883 0.659154 0.116822 0.097448
H18   H     H_    0.227451 0.713076 0.524362 0.134952
H19   H     H_    0.311704 0.736097 0.403552 0.136240
H20   H     H_    0.258217 0.834597 0.490031 0.087802
H21   H     H_    0.310925 0.275741 0.803461 0.203248
H22   H     H_    0.431327 0.278626 0.786384 0.188645
H23   H     H_    0.231410 0.533577 0.305078 0.124602
H24   H     H_    0.374639 0.166766 0.784603 0.068895
H25   H     H_    0.613431 0.746707 0.770833 0.162218
H26   H     H_    0.600381 0.779758 0.934389 0.165177
H27   H     H_    0.525964 0.828604 0.824309 0.109555
H28   H     H_    0.324771 0.571399 0.750600 0.183004
H29   H     H_    0.269936 0.669217 0.832999 0.137685
H30   H     H_    0.237223 0.548270 0.872510 0.135042
H31   H     H_    0.768132 0.317411 0.352433 0.097332
H32   H     H_    0.863735 0.339239 0.245116 0.108737
H33   H     H_    0.753815 0.332783 0.190179 0.231655
H34   H     H_    0.931049 0.510033 0.187049 0.160469
H35   H     H_    0.857320 0.556755 0.992356 0.170846
H36   H     H_    0.869378 0.626600 0.851753 0.121297
H37   H     H_    0.967460 0.581547 0.929558 0.099671
H38   H     H_    0.627849 0.751591 0.406344 0.136696
H39   H     H_    0.622711 0.245056 0.393737 0.142368
H40   H     H_    0.701716 0.907670 0.344233 0.103402
H41   H     H_    0.700323 0.086298 0.340532 0.104876
H42   H     H_    0.295320 0.090261 0.643619 0.145832
N1    N     N_R   0.499930 0.743810 0.499950 -0.231916
N2    N     N_R   0.499930 0.256190 0.499950 -0.233409
O1    O     O_R   0.370250 0.582280 0.500040 -0.487022
O2    O     O_3   0.395675 0.376370 0.106588 -0.486981
O3    O     O_3   0.103642 0.531522 0.162768 -0.587102
O4    O     O_3   0.349689 0.748615 0.587750 -0.548600
O5    O     O_3   0.364070 0.257893 0.625795 -0.544481
O6    O     O_3   0.505318 0.685658 0.869792 -0.510262
O7    O     O_3   0.359054 0.590660 0.932724 -0.590063
O8    O     O_3   0.779292 0.459184 0.281500 -0.572923
O9    O     O_3   0.896029 0.477855 0.838139 -0.542862
O10   O     O_R   0.370250 0.417720 0.500040 -0.440911
O11   O     O_R   0.499970 0.582270 0.317700 -0.515062
O12   O     O_R   0.499970 0.417730 0.317700 -0.415951
O13   O     O_R   0.629730 0.582260 0.499980 -0.527737
O14   O     O_R   0.629730 0.417740 0.499980 -0.516090
O15   O     O_R   0.500000 0.582270 0.682320 -0.429609
O16   O     O_R   0.500000 0.417730 0.682320 -0.512781
O17   O     O_3   0.585967 0.671545 0.127533 -0.580381

loop_
_geom_bond_atom_site_label_1
_geom_bond_atom_site_label_2
_ccdc_geom_bond_type
C33   F2    S    
C30   C32   S    
C4    C36   S    
C18   C21   A    
C43   H26   S    
C47   H35   S    
C31   H4    S    
C35   C36   S    
C18   C26   A    
C24   C27   A    
C15   N1    A    
C7    C8    A    
C46   H32   S    
C33   O7    S    
C27   H42   S    
C41   O4    S    
C9    H12   S    
C41   H20   S    
C5    C6    A    
Cu2   O16   S    
C28   H2    S    
C41   H18   S    
Cu1   O11   S    
C17   C20   A    
C40   H16   S    
C39   H11   S    
C14   C24   A    
C12   C37   S    
C39   H13   S    
C48   C51   A    
C38   H9    S    
Cu2   N2    S    
C32   O6    S    
C30   H3    S    
C31   C33   S    
C44   H30   S    
C9    C10   A    
Cu2   O10   S    
C44   O7    S    
C4    O11   A    
C42   H22   S    
C22   C28   A    
C43   H27   S    
C5    C49   A    
C42   H24   S    
C44   H29   S    
C32   F1    S    
Cu2   O12   S    
C46   H31   S    
Cu1   O15   S    
C23   O8    S    
C16   H39   S    
C4    O12   A    
C13   O4    S    
C2    C51   A    
C6    C11   A    
C34   C45   A    
C12   H6    S    
C14   N2    A    
C30   O17   S    
C19   O13   A    
C3    C5    A    
C25   C26   A    
C29   O16   A    
Cu1   N1    S    
C33   C37   S    
C31   O2    S    
C3    C9    A    
C40   O3    S    
C12   H5    S    
C11   H23   S    
C38   H8    S    
C19   O14   A    
C23   C34   A    
Cu1   O1    S    
C47   H36   S    
C8    H34   S    
C43   O6    S    
C32   C37   S    
C38   H10   S    
C12   C35   S    
C42   O5    S    
C26   H41   S    
C25   H40   S    
C48   C49   A    
C29   O15   A    
C20   C22   A    
C42   H21   S    
C51   O9    S    
C7    O3    S    
C21   C24   A    
C44   H28   S    
C8    C50   A    
Cu1   Cu2   S    
C45   C48   A    
C15   C17   A    
C40   H15   S    
C35   F3    S    
C1    C10   S    
C23   C50   A    
C19   C34   S    
C2    H1    S    
C39   O2    S    
C6    C7    A    
C46   H33   S    
Cu1   O13   S    
C47   O9    S    
C45   H7    S    
C30   C36   S    
C35   F4    S    
C17   C25   A    
C13   N1    A    
C2    C3    A    
C1    O10   A    
C41   H19   S    
C15   H38   S    
C47   H37   S    
C40   H17   S    
C13   C22   A    
C10   C11   A    
C38   O17   S    
C16   N2    A    
C14   O5    S    
C20   C21   A    
C16   C18   A    
C49   C50   A    
C46   O8    S    
C29   C37   S    
C27   C28   A    
C43   H25   S    
C39   H14   S    
C31   C36   S    
C1    O1    A    
Cu2   O14   S    
