data_mof_unit_43261.cif
_audit_creation_date              2013-03-05T15:51:55-0500
_audit_creation_method            fapswitch 2.2
_symmetry_space_group_name_H-M    P1
_symmetry_Int_Tables_number       1
_space_group_crystal_system       triclinic
_cell_length_a                    9.613313
_cell_length_b                    10.915357
_cell_length_c                    17.234598
_cell_angle_alpha                 93.300489
_cell_angle_beta                  85.872349
_cell_angle_gamma                 88.948428
_cell_volume                      1800.33123911

loop_
_atom_site_label
_atom_site_type_symbol
_atom_site_description
_atom_site_fract_x
_atom_site_fract_y
_atom_site_fract_z
_atom_type_partial_charge
O1    O     O_R   0.381190 0.680360 0.500010 -0.565816
O2    O     O_R   0.618760 0.680340 0.500000 -0.608702
C1    C     C_R   0.498365 0.737991 0.504158 0.787062
O3    O     O_R   0.367440 0.500030 0.613600 -0.538712
O4    O     O_R   0.605010 0.500010 0.613590 -0.616931
C2    C     C_R   0.482129 0.492779 0.649602 0.815558
Cu1   Cu    Cu3+1 0.359340 0.500010 0.500010 1.006613
Cu2   Cu    Cu3+1 0.640660 0.499990 0.499990 0.925606
O5    O     O_R   0.381240 0.319660 0.500000 -0.564988
O6    O     O_R   0.618810 0.319640 0.499990 -0.626539
O7    O     O_R   0.394990 0.499990 0.386410 -0.543356
O8    O     O_R   0.632560 0.499970 0.386400 -0.603918
C3    C     C_R   0.500432 0.263361 0.509285 0.825324
C4    C     C_R   0.517890 0.507616 0.350260 0.856432
C5    C     C_R   0.472680 0.475065 0.733849 -0.089222
C6    C     C_R   0.564072 0.393699 0.768670 0.092807
C7    C     C_R   0.566092 0.400219 0.851466 0.102015
C8    C     C_R   0.464936 0.476285 0.896219 0.012600
C9    C     C_R   0.361779 0.539462 0.860106 0.391235
C10   C     C_R   0.366906 0.538967 0.779807 -0.246715
C11   C     C_R   0.423295 0.573039 0.146768 -0.195960
C12   C     C_R   0.409532 0.561221 0.226720 0.405582
C13   C     C_R   0.658805 0.516459 0.224124 -0.291721
C14   C     C_R   0.671431 0.527304 0.143717 0.424103
C15   C     C_R   0.552031 0.551519 0.104387 0.001941
C16   C     C_2   0.460179 0.486949 0.981318 -0.138306
C17   C     C_2   0.557941 0.546704 0.018927 -0.141423
C18   C     C_R   0.527591 0.527520 0.266116 -0.194582
H1    H     H_    0.751757 0.495459 0.253275 0.218327
H2    H     H_    0.646312 0.585042 0.986490 0.195550
H3    H     H_    0.331926 0.597495 0.117140 0.222394
H4    H     H_    0.288303 0.590566 0.753283 0.182270
H5    H     H_    0.372369 0.446665 0.013121 0.200295
H6    H     H_    0.713147 0.879455 0.483079 0.184669
C19   C     C_R   0.275339 0.882228 0.602757 0.119537
C20   C     C_R   0.147508 0.943664 0.620244 -0.291685
H7    H     H_    0.063100 0.898121 0.651213 0.181613
C21   C     C_R   0.141622 0.070343 0.620407 0.374066
C22   C     C_R   0.262353 0.133633 0.598457 0.335322
C23   C     C_R   0.379619 0.070617 0.557767 -0.096337
C24   C     C_R   0.381037 0.939839 0.556900 0.038952
C25   C     C_R   0.496109 0.872441 0.518850 -0.106880
C26   C     C_R   0.619218 0.932781 0.501290 -0.210055
C27   C     C_R   0.628393 0.058943 0.514175 0.101891
C28   C     C_R   0.502609 0.130925 0.527988 -0.105880
C29   C     C_R   0.873023 0.345168 0.390340 -0.204078
H8    H     H_    0.764234 0.333435 0.392340 0.238165
C30   C     C_R   0.952748 0.275501 0.331460 0.043756
C31   C     C_R   0.097796 0.275299 0.333167 0.342115
C32   C     C_R   0.159905 0.343719 0.391259 -0.163487
H9    H     H_    0.269702 0.331175 0.390262 0.222464
C33   C     C_R   0.082627 0.423253 0.446451 0.174223
C34   C     C_R   0.933631 0.423696 0.446126 0.137376
N1    N     N_R   0.852190 0.498790 0.499250 -0.206188
C35   C     C_R   0.920538 0.573048 0.552161 0.252624
H10   H     H_    0.119496 0.632527 0.590682 0.121277
C36   C     C_R   0.068082 0.572810 0.550424 0.007253
N2    N     N_R   0.148060 0.498710 0.499220 -0.187815
C37   C     C_3   0.647584 0.294032 0.718383 -0.346583
C38   C     C_3   0.601571 0.164310 0.736645 -0.754525
H11   H     H_    0.661285 0.127562 0.783105 0.260442
H12   H     H_    0.488064 0.162942 0.754077 0.280027
H13   H     H_    0.622253 0.100707 0.684444 0.233199
H14   H     H_    0.633317 0.300882 0.655938 0.218899
H15   H     H_    0.760900 0.304262 0.724166 0.234787
Cl1   Cl    Cl    0.836635 0.501726 0.093676 -0.564401
C39   C     C_3   0.315030 0.795347 0.663355 -0.394164
C40   C     C_3   0.369628 0.866536 0.733533 -0.782587
H16   H     H_    0.465245 0.916115 0.715295 0.242798
H17   H     H_    0.289433 0.933617 0.760419 0.285685
H18   H     H_    0.396292 0.802199 0.778037 0.254942
H19   H     H_    0.222310 0.744076 0.683817 0.195302
H20   H     H_    0.397017 0.728395 0.641204 0.194582
Cl2   Cl    Cl    0.997356 0.146652 0.672173 -0.651131
Cl3   Cl    Cl    0.280217 0.270833 0.653282 -0.578765
C41   C     C_3   0.773015 0.103267 0.531076 -0.368754
C42   C     C_3   0.885033 0.071039 0.465221 -0.782649
H21   H     H_    0.924260 0.975208 0.468131 0.242653
H22   H     H_    0.842690 0.080084 0.408001 0.263321
H23   H     H_    0.975141 0.132252 0.470999 0.253017
H24   H     H_    0.778233 0.200963 0.550134 0.251175
H25   H     H_    0.803020 0.054297 0.582151 0.236670
C43   C     C_3   0.846822 0.659645 0.614461 -0.409059
C44   C     C_3   0.864414 0.616585 0.696168 -0.781324
H26   H     H_    0.828486 0.521074 0.700635 0.269587
H27   H     H_    0.975227 0.620534 0.710214 0.251250
H28   H     H_    0.801331 0.677059 0.739886 0.244146
H29   H     H_    0.891266 0.752437 0.610080 0.164668
H30   H     H_    0.735657 0.673263 0.608489 0.261593
C45   C     C_3   0.887849 0.197547 0.267699 -0.320086
C46   C     C_3   0.728254 0.192590 0.272377 -0.827372
H31   H     H_    0.686814 0.153459 0.327123 0.246554
H32   H     H_    0.681302 0.284918 0.268332 0.253274
H33   H     H_    0.695490 0.133169 0.222784 0.275228
H34   H     H_    0.922921 0.232639 0.210412 0.267708
H35   H     H_    0.928239 0.101590 0.268466 0.243319
Cl4   Cl    Cl    0.241807 0.593359 0.272877 -0.545218
Cl5   Cl    Cl    0.207282 0.186663 0.264011 -0.599043
Cl6   Cl    Cl    0.228056 0.627004 0.914141 -0.563747
C47   C     C_3   0.674586 0.328304 0.892317 -0.356723
C48   C     C_3   0.610136 0.225007 0.938570 -0.733224
H36   H     H_    0.557334 0.261637 0.994640 0.259863
H37   H     H_    0.533224 0.174164 0.904849 0.253852
H38   H     H_    0.693702 0.159695 0.952161 0.253556
H39   H     H_    0.758964 0.288263 0.851143 0.227910
H40   H     H_    0.729950 0.390922 0.931883 0.237625

loop_
_geom_bond_atom_site_label_1
_geom_bond_atom_site_label_2
_geom_bond_distance
_ccdc_geom_bond_type
C1    C25   1.474314 S    
C48   H36   1.108504 S    
C24   C25   1.416034 A    
C19   C20   1.394222 A    
C8    C16   1.461922 S    
C44   H28   1.110620 S    
C45   C46   1.532659 S    
Cu1   Cu2   2.704387 S    
C34   N1    1.382003 A    
C27   C28   1.427702 A    
Cu1   O7    1.963159 S    
C11   H3    1.084048 S    
C47   H39   1.104969 S    
C38   H13   1.108236 S    
C13   H1    1.083416 S    
C20   H7    1.083266 S    
C44   H27   1.110350 S    
C8    C9    1.399823 A    
C21   Cl2   1.762693 S    
C21   C22   1.401325 A    
O7    C4    1.301768 A    
C5    C6    1.424594 A    
H10   C36   1.076888 S    
C38   H12   1.111337 S    
C39   H19   1.108077 S    
C27   C41   1.522691 S    
O5    C3    1.314552 A    
C31   Cl5   1.764563 S    
N1    C35   1.393185 A    
C44   H26   1.109389 S    
C9    C10   1.380953 A    
C6    C7    1.426191 A    
C32   C33   1.410641 A    
C13   C14   1.394404 A    
C39   H20   1.097478 S    
C22   Cl3   1.742110 S    
Cu1   N2    2.032431 S    
C14   Cl1   1.761478 S    
C43   H29   1.110942 S    
C2    C5    1.472339 S    
C37   C38   1.534258 S    
C48   H37   1.110063 S    
C12   Cl4   1.765829 S    
C12   C18   1.417317 A    
C11   C12   1.388423 A    
C17   H2    1.086728 S    
C23   C28   1.440406 A    
O3    Cu1   1.964804 S    
C32   H9    1.060642 S    
C42   H22   1.102489 S    
C5    C10   1.393655 A    
C43   H30   1.089267 S    
C29   C30   1.404721 A    
C39   C40   1.529798 S    
C45   H34   1.111555 S    
C14   C15   1.402965 A    
O3    C2    1.306826 A    
Cu2   N1    2.032423 S    
C22   C23   1.427572 A    
C9    Cl6   1.764371 S    
C40   H16   1.110336 S    
C42   H21   1.110492 S    
C38   H11   1.107377 S    
O1    C1    1.304656 A    
C6    C37   1.529177 S    
C26   C27   1.387653 A    
C46   H32   1.104605 S    
C16   H5    1.086799 S    
C43   C44   1.529718 S    
C19   C39   1.514530 S    
Cu2   O8    1.964804 S    
C7    C8    1.420762 A    
C16   C17   1.338030 D    
C13   C18   1.407972 A    
C41   C42   1.528319 S    
C33   N2    1.384295 A    
Cu2   O6    1.983589 S    
C30   C31   1.396779 A    
O8    C4    1.308262 A    
C48   H38   1.110743 S    
C35   C36   1.416505 A    
C25   C26   1.387814 A    
C41   H25   1.108530 S    
C46   H31   1.109022 S    
C33   C34   1.432681 A    
C10   H4    1.077462 S    
C42   H23   1.110280 S    
Cu1   O5    1.975954 S    
C11   C15   1.399907 A    
C29   H8    1.054306 S    
C23   C24   1.426509 A    
O1    Cu1   1.983589 S    
O2    Cu2   1.975953 S    
H6    C26   1.082372 S    
O6    C3    1.307228 A    
C41   H24   1.100719 S    
O4    Cu2   1.963159 S    
C45   H35   1.111487 S    
C15   C17   1.467748 S    
C47   H40   1.107866 S    
C20   C21   1.382695 A    
O2    C1    1.302620 A    
C37   H15   1.108102 S    
C46   H33   1.110342 S    
C3    C28   1.499189 S    
C36   N2    1.349606 A    
O4    C2    1.300159 A    
C40   H18   1.109456 S    
C29   C34   1.415157 A    
C47   C48   1.532536 S    
C19   C24   1.420421 A    
C7    C47   1.529378 S    
C37   H14   1.101267 S    
C40   H17   1.110854 S    
C31   C32   1.390310 A    
C30   C45   1.526885 S    
C4    C18   1.475308 S    
C35   C43   1.515765 S    
