data_mof_unit_50282.cif
_audit_creation_date              2012-12-10T20:27:17-0500
_audit_creation_method            fapswitch 2.2
_symmetry_space_group_name_H-M    P1
_symmetry_Int_Tables_number       1
_space_group_crystal_system       triclinic
_cell_length_a                    10.784158
_cell_length_b                    10.717659
_cell_length_c                    9.890706
_cell_angle_alpha                 89.744458
_cell_angle_beta                  102.727538
_cell_angle_gamma                 91.362034
_cell_volume                      1114.7722997

loop_
_atom_site_label
_atom_site_type_symbol
_atom_type_description
_atom_site_fract_x
_atom_site_fract_y
_atom_site_fract_z
_atom_type_partial_charge
C1    C     C_R   0.496974 0.259901 0.499225 0.962466
C2    C     C_R   0.478578 0.127868 0.493781 -0.358843
C3    C     C_R   0.462151 0.063508 0.366974 0.587077
C4    C     C_R   0.458274 0.934861 0.366285 0.554301
C5    C     C_R   0.476364 0.870611 0.493029 -0.279572
C6    C     C_R   0.471841 0.935089 0.613831 -0.125642
C7    C     C_3   0.555080 0.929480 0.756304 0.459529
C8    C     C_3   0.554105 0.070949 0.756504 0.474826
C9    C     C_R   0.432307 0.410525 0.055684 0.201164
C10   C     C_R   0.571564 0.585622 0.086573 -0.042278
C11   C     C_R   0.572005 0.583291 0.943063 -0.041835
C12   C     C_R   0.259681 0.504113 0.443347 0.846219
C13   C     C_R   0.432251 0.410996 0.912965 0.277576
C14   C     C_3   0.291883 0.389960 0.872420 -0.512748
C15   C     C_3   0.291037 0.391034 0.025861 -0.309807
C16   C     C_R   0.495967 0.739779 0.498633 0.985240
C17   C     C_R   0.741075 0.505467 0.556673 0.831575
C18   C     C_2   0.124317 0.517807 0.413048 0.375750
C19   C     C_2   0.069998 0.569036 0.508046 0.429814
C20   C     C_2   0.877830 0.524931 0.586696 0.360656
C21   C     C_2   0.934183 0.564837 0.485956 0.451296
C22   C     C_R   0.471286 0.062601 0.613909 -0.087773
H1    H     H_    0.648085 0.117648 0.760718 0.129325
H2    H     H_    0.628323 0.650601 0.899069 0.218355
H3    H     H_    0.242278 0.470589 0.816017 0.295373
H4    H     H_    0.266391 0.298534 0.819549 0.226562
H5    H     H_    0.241194 0.472104 0.057372 0.250137
H6    H     H_    0.507821 0.884060 0.833495 0.156222
N1    N     N_R   0.499160 0.499140 0.142600 -0.160936
N2    N     N_R   0.499160 0.499180 0.856960 -0.133184
O1    O     O_R   0.500020 0.316790 0.614700 -0.606113
O2    O     O_R   0.500000 0.316760 0.385350 -0.550291
O3    O     O_R   0.317820 0.500020 0.571850 -0.606417
O4    O     O_R   0.317800 0.499980 0.342510 -0.583709
O5    O     O_R   0.500000 0.683240 0.614650 -0.599637
O6    O     O_R   0.499980 0.683210 0.385300 -0.629360
O7    O     O_R   0.682200 0.500020 0.657490 -0.565571
O8    O     O_R   0.682180 0.499980 0.428150 -0.621280
Zn1   Zn    Zn3+2 0.500010 0.500020 0.653140 1.042322
Zn2   Zn    Zn3+2 0.499990 0.499980 0.346860 1.043110
F1    F     F_    0.868055 0.589581 0.355568 -0.653354
C23   C     C_2   0.647342 0.685876 0.171082 0.683450
H7    H     H_    0.668470 0.682854 0.281888 0.146248
O9    O     O_2   0.689434 0.775000 0.116490 -0.511789
C24   C     C_2   0.251688 0.267662 0.077499 0.646161
H8    H     H_    0.284474 0.181305 0.041952 0.143313
O10   O     O_2   0.181652 0.263576 0.159003 -0.483802
F2    F     F_    0.139018 0.620295 0.627867 -0.641648
F3    F     F_    0.946896 0.500706 0.716500 -0.607642
F4    F     F_    0.054193 0.473137 0.290397 -0.569911
F5    F     F_    0.461631 0.122912 0.245493 -0.613359
F6    F     F_    0.447480 0.875202 0.243177 -0.602815
F7    F     F_    0.674306 0.884389 0.755795 -0.639134
F8    F     F_    0.488815 0.117176 0.850544 -0.639617

loop_
_geom_bond_atom_site_label_1
_geom_bond_atom_site_label_2
_ccdc_geom_bond_type
C2    C22   A    
C8    C22   S    
C20   F3    S    
C1    O1    A    
C10   C23   S    
C13   N2    A    
C15   H5    S    
C9    N1    A    
C8    H1    S    
C24   O10   D    
C2    C3    A    
C9    C15   S    
C7    C8    S    
O7    Zn1   S    
C17   O7    A    
C13   C14   S    
C14   H4    S    
O8    Zn2   S    
C12   O3    A    
C10   N1    A    
O3    Zn1   S    
C23   O9    D    
C4    F6    S    
O4    Zn2   S    
C5    C6    A    
N1    Zn2   S    
C19   C21   S    
O1    Zn1   S    
N2    Zn1   S    
C18   C19   D    
C6    C7    S    
C17   O8    A    
O2    Zn2   S    
C16   O5    A    
O5    Zn1   S    
C21   F1    S    
C10   C11   A    
C7    F7    S    
C12   C18   S    
C3    C4    A    
C6    C22   A    
C11   H2    S    
O6    Zn2   S    
C17   C20   S    
C14   H3    S    
C18   F4    S    
C1    C2    S    
C23   H7    S    
C8    F8    S    
C3    F5    S    
C15   C24   S    
C14   C15   S    
C5    C16   S    
C9    C13   A    
C19   F2    S    
C20   C21   D    
C24   H8    S    
C12   O4    A    
C1    O2    A    
C16   O6    A    
C7    H6    S    
C11   N2    A    
C4    C5    A    
