data_mof_unit_67898.cif
_audit_creation_date              2012-12-10T17:47:46-0500
_audit_creation_method            fapswitch 2.2
_symmetry_space_group_name_H-M    P1
_symmetry_Int_Tables_number       1
_space_group_crystal_system       triclinic
_cell_length_a                    10.934373
_cell_length_b                    10.488777
_cell_length_c                    10.111355
_cell_angle_alpha                 91.467413
_cell_angle_beta                  90.752583
_cell_angle_gamma                 96.182365
_cell_volume                      1152.38328806

loop_
_atom_site_label
_atom_site_type_symbol
_atom_type_description
_atom_site_fract_x
_atom_site_fract_y
_atom_site_fract_z
_atom_type_partial_charge
C1    C     C_R   0.512716 0.258962 0.497256 1.011840
C2    C     C_R   0.621635 0.082082 0.599920 0.029281
C3    C     C_R   0.557374 0.128389 0.489853 -0.209417
C4    C     C_R   0.257728 0.503040 0.499530 1.020009
C5    C     C_R   0.554385 0.048433 0.371296 0.398955
C6    C     C_R   0.592531 0.927989 0.381120 0.282000
C7    C     C_R   0.581036 0.870929 0.501703 -0.226460
C8    C     C_R   0.291361 0.380920 0.116188 0.385023
C9    C     C_R   0.192404 0.347005 0.030017 -0.214792
C10   C     C_R   0.215039 0.307790 0.902010 0.226581
C11   C     C_R   0.336569 0.322133 0.859886 0.385474
C12   C     C_3   0.877151 0.501272 0.495315 -0.160204
C13   C     C_R   0.413885 0.421672 0.924397 0.008978
C14   C     C_R   0.404839 0.433108 0.065650 0.111771
C15   C     C_R   0.586506 0.572340 0.074057 0.011390
C16   C     C_R   0.532096 0.736262 0.501923 0.943326
C17   C     C_R   0.585112 0.574278 0.932288 0.015559
C18   C     C_R   0.741366 0.501015 0.499706 0.842521
C19   C     C_3   0.056656 0.383351 0.568352 0.138522
C20   C     C_3   0.916125 0.386846 0.571721 -0.412308
C21   C     C_3   0.079529 0.629664 0.584081 0.589356
C22   C     C_3   0.064245 0.502256 0.349423 0.112604
C23   C     C_3   0.939015 0.632870 0.553611 -0.514422
C24   C     C_3   0.119909 0.507577 0.498866 -0.387733
C25   C     C_3   0.921762 0.488827 0.350203 0.196005
C26   C     C_R   0.692086 0.163314 0.690605 -0.248428
C27   C     C_R   0.758123 0.113249 0.792616 0.409731
C28   C     C_R   0.751611 0.980399 0.808671 0.414407
C29   C     C_R   0.683531 0.897773 0.718161 -0.269319
C30   C     C_R   0.622691 0.947756 0.611264 0.049742
Cl1   Cl    Cl    0.836092 0.220921 0.907412 -0.426148
Cl2   Cl    Cl    0.831619 0.915090 0.938091 -0.356375
Cl3   Cl    Cl    0.688646 0.865659 0.262209 -0.492456
Cl4   Cl    Cl    0.280725 0.285550 0.251098 -0.400523
Cl5   Cl    Cl    0.110416 0.182438 0.839273 -0.364011
H1    H     H_    0.090997 0.386960 0.671314 0.179903
H2    H     H_    0.883257 0.388946 0.673960 0.247816
H3    H     H_    0.888800 0.661787 0.642621 0.238555
H4    H     H_    0.092035 0.414829 0.303075 0.199246
H5    H     H_    0.223412 0.915140 0.711581 0.444913
H6    H     H_    0.443384 0.877863 0.121833 0.401182
H7    H     H_    0.928149 0.085912 0.535502 0.371805
H8    H     H_    0.563725 0.115189 0.936791 0.425597
H9    H     H_    0.024717 0.454879 0.875511 0.399812
H10   H     H_    0.076824 0.819224 0.190318 0.445914
H11   H     H_    0.703344 0.348604 0.101844 0.423920
H12   H     H_    0.889689 0.572551 0.299810 0.195184
H13   H     H_    0.924555 0.708086 0.481623 0.223941
H14   H     H_    0.697474 0.265818 0.683254 0.203994
H15   H     H_    0.688009 0.795743 0.725069 0.168358
H16   H     H_    0.659541 0.629433 0.128146 0.214504
H17   H     H_    0.105281 0.313624 0.069398 0.275702
H18   H     H_    0.656313 0.634106 0.883280 0.160721
H19   H     H_    0.867997 0.296975 0.529365 0.216157
N1    N     N_R   0.498810 0.498800 0.142780 -0.113270
N2    N     N_R   0.498760 0.498720 0.857170 -0.115936
O1    O     O_R   0.500000 0.316780 0.614690 -0.586731
O2    O     O_2   0.087143 0.882401 0.513555 -0.198408
O3    O     O_3   0.259948 0.838689 0.677455 -0.434219
O4    O     O_2   0.338180 0.040038 0.252204 -0.165917
O5    O     O_2   0.505034 0.194278 0.167433 -0.233408
O6    O     O_3   0.502552 0.954291 0.106589 -0.484061
O7    O     O_2   0.063380 0.195455 0.370205 -0.180627
O8    O     O_2   0.221808 0.207935 0.542785 -0.202302
O9    O     O_3   0.999154 0.113412 0.595274 -0.445906
O10   O     O_2   0.330865 0.082522 0.948861 -0.168145
O11   O     O_2   0.384529 0.111593 0.718622 -0.248094
O12   O     O_R   0.499990 0.316750 0.385360 -0.526726
O13   O     O_3   0.545046 0.198369 0.902468 -0.552541
O14   O     O_2   0.214443 0.596371 0.814723 -0.289980
O15   O     O_2   0.067196 0.753266 0.823909 -0.149736
O16   O     O_3   0.980937 0.520614 0.832670 -0.524728
O17   O     O_2   0.248164 0.647196 0.209459 -0.239710
O18   O     O_2   0.053762 0.577812 0.098864 -0.232918
O19   O     O_3   0.056888 0.764274 0.267010 -0.458510
O20   O     O_2   0.934761 0.268917 0.189449 -0.171831
O21   O     O_2   0.756523 0.268689 0.327337 -0.332700
O22   O     O_3   0.773000 0.414032 0.124819 -0.493168
O23   O     O_R   0.314800 0.499990 0.614670 -0.592789
O24   O     O_R   0.314790 0.499970 0.385330 -0.546319
O25   O     O_R   0.500010 0.683250 0.614640 -0.585224
O26   O     O_R   0.500000 0.683220 0.385310 -0.565623
O27   O     O_R   0.685210 0.500030 0.614670 -0.656045
O28   O     O_R   0.685200 0.500010 0.385330 -0.593414
O29   O     O_2   0.257520 0.771163 0.435627 -0.224159
S1    S     S_3+6 0.170588 0.782624 0.547103 0.149455
S2    S     S_3+6 0.472807 0.064210 0.222795 0.158109
S3    S     S_3+6 0.089639 0.224251 0.513530 0.120611
S4    S     S_3+6 0.397712 0.172784 0.854179 0.116301
S5    S     S_3+6 0.089815 0.624243 0.766858 0.075068
S6    S     S_3+6 0.111761 0.624499 0.228892 0.085495
S7    S     S_3+6 0.847640 0.352683 0.249833 0.108964
Zn1   Zn    Zn3+2 0.500010 0.500020 0.653130 1.048134
Zn2   Zn    Zn3+2 0.499990 0.499980 0.346870 1.113306

loop_
_geom_bond_atom_site_label_1
_geom_bond_atom_site_label_2
_ccdc_geom_bond_type
O21   S7    D    
O26   Zn2   S    
O7    S3    D    
C19   C20   S    
O29   S1    D    
C12   C23   S    
C26   C27   A    
C28   C29   A    
O23   Zn1   S    
C19   H1    S    
C5    C6    A    
C4    C24   S    
O27   Zn1   S    
O11   S4    D    
C1    O12   A    
O16   S5    S    
O5    S2    D    
C8    C9    A    
C22   C25   S    
H7    O9    S    
C18   O28   A    
C22   S6    S    
H9    O16   S    
C10   Cl5   S    
C15   H16   S    
C9    C10   A    
C25   H12   S    
O19   S6    S    
C29   H15   S    
C13   N2    A    
C14   N1    A    
H8    O13   S    
H5    O3    S    
O1    Zn1   S    
C13   C14   A    
O14   S5    D    
C9    H17   S    
H6    O6    S    
N1    Zn2   S    
O13   S4    S    
O2    S1    D    
O4    S2    D    
O10   S4    D    
C21   S5    S    
N2    Zn1   S    
C27   Cl1   S    
C28   Cl2   S    
O17   S6    D    
C4    O23   A    
C20   H19   S    
C19   S3    S    
C26   H14   S    
H11   O22   S    
C8    Cl4   S    
O22   S7    S    
O12   Zn2   S    
C1    C3    S    
C15   N1    A    
O18   S6    D    
C29   C30   A    
C1    O1    A    
O25   Zn1   S    
C11   S4    S    
C12   C20   S    
C16   O26   A    
C18   O27   A    
C2    C26   A    
O28   Zn2   S    
C17   N2    A    
O20   S7    D    
C7    C16   S    
C21   C23   S    
C22   C24   S    
O24   Zn2   S    
C17   H18   S    
O9    S3    S    
C15   C17   A    
C21   S1    S    
C25   S7    S    
C8    C14   A    
C23   H13   S    
C3    C5    A    
C4    O24   A    
C6    C7    A    
C23   H3    S    
O6    S2    S    
C6    Cl3   S    
C2    C30   A    
C12   C25   S    
H10   O19   S    
C19   C24   S    
O3    S1    S    
C20   H2    S    
C11   C13   A    
O15   S5    D    
C22   H4    S    
C16   O25   A    
C2    C3    A    
C10   C11   A    
C5    S2    S    
C21   C24   S    
C12   C18   S    
C27   C28   A    
C7    C30   A    
O8    S3    D    
