data_mof_unit_5883.cif
_audit_creation_date              2012-12-11T14:40:26-0500
_audit_creation_method            fapswitch 2.2
_symmetry_space_group_name_H-M    P1
_symmetry_Int_Tables_number       1
_space_group_crystal_system       triclinic
_cell_length_a                    19.740067
_cell_length_b                    10.856758
_cell_length_c                    19.449282
_cell_angle_alpha                 89.785559
_cell_angle_beta                  97.32267
_cell_angle_gamma                 90.297113
_cell_volume                      4134.16520319

loop_
_atom_site_label
_atom_site_type_symbol
_atom_type_description
_atom_site_fract_x
_atom_site_fract_y
_atom_site_fract_z
_atom_type_partial_charge
Br1   Br    Br    0.691393 0.155117 0.015595 -0.545450
Br2   Br    Br    0.360056 0.173951 0.968652 -0.479114
Br3   Br    Br    0.192888 0.670165 0.014720 -0.586189
Br4   Br    Br    0.863131 0.646188 0.974412 -0.511183
C1    C     C_R   0.709617 0.994159 0.367328 0.526783
C2    C     C_3   0.261191 0.367598 0.561897 0.055087
C3    C     C_2   0.968207 0.882665 0.046071 0.301803
C4    C     C_2   0.474912 0.958474 0.056276 0.284062
C5    C     C_2   0.573261 0.954445 0.935560 0.272072
C6    C     C_2   0.985647 0.448626 0.055206 0.299004
C7    C     C_2   0.081606 0.459345 0.935577 0.268377
C8    C     C_3   0.246644 0.898641 0.433331 0.060027
C9    C     C_3   0.761194 0.867588 0.561895 0.053515
C10   C     C_3   0.714459 0.503830 0.469287 -0.130008
C11   C     C_3   0.237598 0.499621 0.545153 -0.110341
C12   C     C_3   0.214460 0.003830 0.469287 -0.129854
C13   C     C_3   0.737602 0.999613 0.545150 -0.109169
C14   C     C_3   0.783447 0.519167 0.516128 -0.117010
C15   C     C_3   0.180315 0.447504 0.491522 -0.129737
C16   C     C_3   0.283447 0.019166 0.516129 -0.116523
C17   C     C_R   0.274248 0.950797 0.639687 0.532726
C18   C     C_3   0.680319 0.947496 0.491520 -0.129593
C19   C     C_3   0.815155 0.413070 0.479009 -0.110429
C20   C     C_3   0.204124 0.315005 0.509088 -0.108782
C21   C     C_3   0.315154 0.913068 0.479009 -0.110338
C22   C     C_3   0.704127 0.814997 0.509087 -0.109267
C23   C     C_3   0.790916 0.319116 0.530393 -0.118551
C24   C     C_3   0.253676 0.320075 0.453994 -0.109987
C25   C     C_3   0.290914 0.819114 0.530393 -0.118667
C26   C     C_3   0.753678 0.820065 0.453992 -0.109821
C27   C     C_3   0.759196 0.424258 0.566791 0.059786
C28   C     C_R   0.209616 0.494163 0.367328 0.526953
C29   C     C_3   0.229778 0.451853 0.437253 0.055844
C30   C     C_3   0.259195 0.924257 0.566792 0.059953
C31   C     C_3   0.729782 0.951844 0.437251 0.055911
C32   C     C_3   0.551423 0.269741 0.964666 -0.035717
C33   C     C_3   0.502842 0.274579 0.020352 -0.028262
C34   C     C_3   0.049422 0.772255 0.965248 -0.037987
C35   C     C_3   0.001054 0.769410 0.021246 -0.026332
C36   C     C_3   0.593954 0.168640 0.005878 0.073732
C37   C     C_3   0.457969 0.173249 0.983108 0.165613
C38   C     C_3   0.095476 0.674839 0.005676 0.048252
C39   C     C_R   0.774249 0.450798 0.639687 0.534797
C40   C     C_3   0.959811 0.664071 0.983691 0.157395
C41   C     C_3   0.545343 0.173939 0.062012 -0.034954
C42   C     C_3   0.506222 0.169594 0.926787 0.031890
C43   C     C_3   0.047194 0.672967 0.062132 -0.031301
C44   C     C_3   0.007365 0.668539 0.926713 0.041686
C45   C     C_R   0.560374 0.183059 0.348407 0.534677
C46   C     C_R   0.440178 0.183166 0.651624 0.522783
C47   C     C_R   0.060377 0.683059 0.348407 0.534693
C48   C     C_R   0.940182 0.683165 0.651625 0.520940
C49   C     C_3   0.500437 0.072508 0.023853 -0.023565
C50   C     C_3   0.721961 0.304114 0.483920 -0.116912
C51   C     C_3   0.548110 0.068371 0.967141 -0.029804
C52   C     C_3   0.006012 0.567614 0.023531 -0.009853
C53   C     C_3   0.052974 0.571044 0.966256 -0.025603
C54   C     C_1   0.763491 0.427676 0.905207 0.101367
C55   C     C_1   0.239982 0.414723 0.098490 0.060619
C56   C     C_1   0.265937 0.935034 0.907311 0.095619
C57   C     C_1   0.742011 0.907368 0.101306 0.065943
C58   C     C_1   0.750740 0.421684 0.037257 0.064472
C59   C     C_1   0.254221 0.399357 0.967238 0.063158
C60   C     C_1   0.253389 0.931612 0.039612 0.077149
C61   C     C_3   0.310986 0.371946 0.507800 -0.139626
C62   C     C_1   0.760586 0.872469 0.972753 0.078545
C63   C     C_1   0.756030 0.423105 0.965635 0.081288
C64   C     C_1   0.248979 0.401791 0.038886 0.061491
C65   C     C_1   0.259116 0.933482 0.967994 0.087736
C66   C     C_1   0.752672 0.886449 0.043063 0.071586
C67   C     C_1   0.745449 0.406282 0.097642 0.060840
C68   C     C_1   0.257869 0.391543 0.906070 0.081608
C69   C     C_1   0.247165 0.912767 0.099552 0.065221
C70   C     C_1   0.766939 0.855256 0.912913 0.092995
C71   C     C_R   0.739694 0.364907 0.361216 0.531775
C72   C     C_3   0.221960 0.804115 0.483920 -0.116902
C73   C     C_R   0.273200 0.317645 0.631268 0.523608
C74   C     C_R   0.239694 0.864907 0.361217 0.530907
C75   C     C_R   0.773201 0.817640 0.631268 0.527153
C76   C     C_R   0.722932 0.948838 0.165570 0.566853
C77   C     C_R   0.278793 0.954332 0.837303 0.573507
C78   C     C_R   0.222662 0.449833 0.164850 0.564070
C79   C     C_R   0.778074 0.452309 0.836360 0.571861
C80   C     C_R   0.564338 0.182877 0.136984 0.597077
C81   C     C_R   0.473549 0.178402 0.856254 0.643150
C82   C     C_R   0.065038 0.682810 0.137254 0.600355
C83   C     C_3   0.810989 0.871935 0.507798 -0.140117
C84   C     C_R   0.973465 0.678279 0.856436 0.638451
C85   C     C_R   0.736688 0.363655 0.165575 0.557542
C86   C     C_R   0.264103 0.360550 0.835767 0.584590
C87   C     C_R   0.237073 0.865060 0.166217 0.558734
C88   C     C_R   0.775165 0.818845 0.844038 0.586525
C89   C     C_1   0.467332 0.175334 0.587494 -0.007897
C90   C     C_1   0.534072 0.174791 0.413018 -0.015301
C91   C     C_1   0.967340 0.675332 0.587497 -0.009100
C92   C     C_1   0.034079 0.674791 0.413020 -0.015111
C93   C     C_1   0.513029 0.171400 0.468106 -0.055315
C94   C     C_3   0.746645 0.398641 0.433330 0.059749
C95   C     C_1   0.488768 0.171627 0.532630 -0.051711
C96   C     C_1   0.013037 0.671399 0.468109 -0.055228
C97   C     C_1   0.988777 0.671626 0.532633 -0.052000
C98   C     C_3   0.690380 0.410267 0.521480 -0.120657
C99   C     C_3   0.287060 0.504881 0.489507 -0.121309
C100  C     C_3   0.190379 0.910268 0.521481 -0.121073
C101  C     C_3   0.787064 0.004870 0.489505 -0.121538
C102  C     C_2   0.583159 0.379947 0.934451 0.258586
C103  C     C_2   0.474462 0.392319 0.044988 0.306188
C104  C     C_2   0.078546 0.886661 0.936602 0.260472
Cr1   Cr    Cr6+3 0.765830 0.160660 0.268180 1.059206
Cr2   Cr    Cr6+3 0.384070 0.324050 0.751550 1.075597
Cr3   Cr    Cr6+3 0.115930 0.824050 0.248450 1.040741
Cr4   Cr    Cr6+3 0.884070 0.824050 0.751550 1.077764
Cr5   Cr    Cr6+3 0.234170 0.160660 0.731820 1.069921
Cr6   Cr    Cr6+3 0.265830 0.660660 0.268180 1.058848
Cr7   Cr    Cr6+3 0.734170 0.660660 0.731820 1.061320
Cr8   Cr    Cr6+3 0.612110 0.009150 0.248770 1.034296
Cr9   Cr    Cr6+3 0.387890 0.009150 0.751230 1.073127
Cr10  Cr    Cr6+3 0.112110 0.509150 0.248770 1.035752
Cr11  Cr    Cr6+3 0.887890 0.509150 0.751230 1.089095
Cr12  Cr    Cr6+3 0.615930 0.324050 0.248450 1.040130
H1    H     H_    0.695266 0.216841 0.467759 0.089442
H2    H     H_    0.231597 0.571543 0.584323 0.130498
H3    H     H_    0.182962 0.076326 0.440730 0.115366
H4    H     H_    0.731601 0.071538 0.584318 0.133808
H5    H     H_    0.309792 0.106898 0.532051 0.088136
H6    H     H_    0.626519 0.979047 0.483195 0.116287
H7    H     H_    0.809792 0.606899 0.532051 0.087915
H8    H     H_    0.126515 0.479052 0.483197 0.116088
H9    H     H_    0.865877 0.415854 0.460071 0.130451
H10   H     H_    0.169865 0.237590 0.519346 0.130799
H11   H     H_    0.365877 0.915850 0.460072 0.130160
H12   H     H_    0.364759 0.340488 0.516208 0.112986
H13   H     H_    0.669867 0.737583 0.519344 0.130569
H14   H     H_    0.821940 0.245107 0.558187 0.123060
H15   H     H_    0.260109 0.248758 0.414626 0.129820
H16   H     H_    0.321938 0.745106 0.558188 0.122073
H17   H     H_    0.760111 0.748750 0.414623 0.129933
H18   H     H_    0.605339 0.452359 0.968526 0.079948
H19   H     H_    0.497184 0.479975 0.033569 0.080458
H20   H     H_    0.099592 0.958422 0.971785 0.087568
H21   H     H_    0.985741 0.973292 0.032480 0.089800
H22   H     H_    0.511276 0.892167 0.080791 0.103625
H23   H     H_    0.195263 0.716842 0.467759 0.089478
H24   H     H_    0.566789 0.865241 0.959181 0.084671
H25   H     H_    0.024998 0.387267 0.079264 0.099342
H26   H     H_    0.107475 0.390132 0.969459 0.090692
H27   H     H_    0.864762 0.840476 0.516205 0.113212
H28   H     H_    0.639864 0.407662 0.540833 0.127472
H29   H     H_    0.321035 0.581870 0.478043 0.130249
H30   H     H_    0.139863 0.907665 0.540833 0.127142
H31   H     H_    0.821039 0.081860 0.478041 0.130431
H32   H     H_    0.682960 0.576323 0.440730 0.115362
O1    O     O_R   0.783230 0.287800 0.346510 -0.523549
O2    O     O_R   0.454570 0.285140 0.836900 -0.464257
O3    O     O_R   0.045430 0.785140 0.163100 -0.463612
O4    O     O_R   0.954570 0.785140 0.836900 -0.476162
O5    O     O_R   0.677850 0.374730 0.185500 -0.527529
O6    O     O_R   0.322150 0.374730 0.814500 -0.483477
O7    O     O_R   0.177850 0.874730 0.185500 -0.526364
O8    O     O_R   0.822150 0.874730 0.814500 -0.478742
O9    O     O_3   0.664630 0.164620 0.255130 -0.317278
O10   O     O_3   0.335370 0.164620 0.744870 -0.305672
O11   O     O_3   0.164630 0.664620 0.255130 -0.318312
O12   O     O_R   0.216770 0.287800 0.653490 -0.501511
O13   O     O_3   0.835370 0.664620 0.744870 -0.327659
O14   O     O_R   0.760130 0.037060 0.338610 -0.494852
O15   O     O_R   0.239870 0.037060 0.661390 -0.519333
O16   O     O_R   0.260130 0.537060 0.338610 -0.494423
O17   O     O_R   0.739870 0.537060 0.661390 -0.519560
O18   O     O_R   0.666620 0.921370 0.332440 -0.515590
O19   O     O_R   0.333380 0.921370 0.667560 -0.521588
O20   O     O_R   0.166620 0.421370 0.332440 -0.514797
O21   O     O_R   0.833380 0.421370 0.667560 -0.519050
O22   O     O_R   0.557170 0.082420 0.312350 -0.491516
O23   O     O_R   0.283230 0.787800 0.346510 -0.524128
O24   O     O_R   0.442830 0.082420 0.687650 -0.479874
O25   O     O_R   0.057170 0.582420 0.312350 -0.490857
O26   O     O_R   0.942830 0.582420 0.687650 -0.476820
O27   O     O_R   0.548310 0.285980 0.316250 -0.480368
O28   O     O_R   0.451690 0.285980 0.683750 -0.495265
O29   O     O_R   0.048310 0.785980 0.316250 -0.480175
O30   O     O_R   0.951690 0.785980 0.683750 -0.495237
O31   O     O_R   0.680520 0.375500 0.327470 -0.518088
O32   O     O_R   0.319480 0.375500 0.672530 -0.510496
O33   O     O_R   0.180520 0.875500 0.327470 -0.518619
O34   O     O_R   0.716770 0.787800 0.653490 -0.495702
O35   O     O_R   0.819480 0.875500 0.672530 -0.501362
O36   O     O_R   0.780350 0.286970 0.193350 -0.467054
O37   O     O_R   0.219650 0.286970 0.806650 -0.474732
O38   O     O_R   0.280350 0.786970 0.193350 -0.467088
O39   O     O_R   0.719650 0.786970 0.806650 -0.466193
O40   O     O_R   0.757460 0.036290 0.196640 -0.458105
O41   O     O_R   0.242540 0.036290 0.803360 -0.477862
O42   O     O_R   0.257460 0.536290 0.196640 -0.456046
O43   O     O_R   0.742540 0.536290 0.803360 -0.497536
O44   O     O_R   0.663740 0.920540 0.179290 -0.532790
O45   O     O_R   0.554500 0.081650 0.170370 -0.488410
O46   O     O_R   0.336260 0.920540 0.820710 -0.494392
O47   O     O_R   0.163740 0.420540 0.179290 -0.536389
O48   O     O_R   0.836260 0.420540 0.820710 -0.480794
O49   O     O_2   0.585160 0.388291 0.872183 -0.464658
O50   O     O_2   0.426838 0.389895 0.079288 -0.434955
O51   O     O_2   0.080145 0.898848 0.874464 -0.462725
O52   O     O_2   0.922535 0.873428 0.082577 -0.439698
O53   O     O_2   0.413925 0.939189 0.055256 -0.459539
O54   O     O_2   0.602625 0.961937 0.884168 -0.451631
O55   O     O_2   0.925741 0.419734 0.054039 -0.445009
O56   O     O_R   0.445500 0.081650 0.829630 -0.475716
O57   O     O_2   0.075664 0.445204 0.872904 -0.467946
O58   O     O_R   0.054500 0.581650 0.170370 -0.487880
O59   O     O_R   0.945500 0.581650 0.829630 -0.453981
O60   O     O_R   0.545430 0.285140 0.163100 -0.465652

loop_
_geom_bond_atom_site_label_1
_geom_bond_atom_site_label_2
_ccdc_geom_bond_type
C57   C66   T    
C72   C100  S    
Cr4   O4    S    
C9    C75   S    
Br3   C38   S    
Cr12  O60   S    
C72   H23   S    
Cr6   O38   S    
C75   O34   A    
C24   H15   S    
C10   C14   S    
C55   C78   S    
Cr7   O17   S    
Cr9   O56   S    
C71   O31   A    
Cr4   O35   S    
C39   O17   A    
C23   C50   S    
C44   C53   S    
C25   C72   S    
C40   C52   S    
C11   C15   S    
C18   C31   S    
Cr10  O58   S    
C37   C42   S    
C75   O35   A    
C58   C63   S    
C33   C37   S    
C31   C101  S    
C84   O4    A    
C32   C33   S    
C11   H2    S    
Cr12  O27   S    
C48   O30   A    
C33   C103  S    
C104  O51   D    
C5    O54   D    
Cr2   O32   S    
C34   C35   S    
C55   C64   T    
C18   H6    S    
C16   C21   S    
C57   C76   S    
C100  H30   S    
C62   C70   T    
C92   C96   T    
C15   H8    S    
Cr3   O29   S    
C73   O32   A    
C52   C53   S    
C19   H9    S    
C48   C91   S    
C46   O24   A    
C70   C88   S    
Cr3   O7    S    
Br1   C36   S    
C98   H28   S    
Cr5   O10   S    
Cr5   O37   S    
C12   C100  S    
C2    C61   S    
C8    C12   S    
C84   O59   A    
C8    C74   S    
C42   C51   S    
C91   C97   T    
C60   C69   T    
C44   C84   S    
C32   C42   S    
C5    C51   S    
Cr11  O26   S    
Cr10  O20   S    
C45   C90   S    
Cr7   O13   S    
Cr1   O1    S    
C89   C95   T    
C34   C44   S    
C83   C101  S    
Cr2   O6    S    
C88   O39   A    
C47   C92   S    
C81   O2    A    
C42   C81   S    
Cr7   O39   S    
C73   O12   A    
C28   O20   A    
C41   C49   S    
C26   H17   S    
C34   C104  S    
Cr9   O19   S    
C76   O40   A    
C19   C94   S    
C76   O44   A    
Cr10  O47   S    
C38   C53   S    
C45   O22   A    
C93   C95   S    
C5    H24   S    
C50   C98   S    
C10   C94   S    
C49   C51   S    
Cr1   O36   S    
Cr2   O10   S    
C36   C41   S    
C101  H31   S    
C87   O38   A    
Cr10  O11   S    
C2    C11   S    
Cr3   O33   S    
C1    O18   A    
C23   C27   S    
Cr11  O48   S    
C43   C82   S    
C20   C24   S    
Cr8   O9    S    
C32   C36   S    
Cr3   O11   S    
C69   C87   S    
C103  O50   D    
C15   C29   S    
C74   O33   A    
C77   O46   A    
C104  H20   S    
C79   O43   A    
C2    C73   S    
Cr4   O30   S    
C17   C30   S    
Br4   C40   S    
C90   C93   T    
C17   O19   A    
C32   C102  S    
C25   C30   S    
C71   C94   S    
C30   C100  S    
C14   C19   S    
C10   C98   S    
C86   O6    A    
Cr4   O8    S    
C46   O28   A    
C6    O55   D    
C27   C98   S    
C3    O52   D    
Cr2   O2    S    
C13   C101  S    
C14   H7    S    
C68   C86   S    
C56   C77   S    
C71   O1    A    
C13   H4    S    
C67   C85   S    
Cr2   O28   S    
C12   C16   S    
C36   C51   S    
C2    C20   S    
C9    C83   S    
Cr8   O18   S    
C87   O7    A    
C7    H26   S    
C82   O3    A    
C7    C53   S    
C1    O14   A    
C85   O5    A    
C37   C49   S    
C27   C39   S    
Cr12  O9    S    
C26   C31   S    
Cr9   O24   S    
Cr6   O23   S    
C50   H1    S    
C24   C29   S    
C22   C26   S    
C19   C23   S    
C28   O16   A    
C18   C22   S    
Cr12  O5    S    
C80   O45   A    
C85   O36   A    
C9    C22   S    
C41   C80   S    
C61   C99   S    
C33   C41   S    
C21   H11   S    
C3    H21   S    
C61   H12   S    
C6    C52   S    
C35   C43   S    
Cr7   O34   S    
Cr7   O43   S    
C59   C64   S    
Cr6   O42   S    
C29   C99   S    
C23   H14   S    
Cr5   O41   S    
C12   H3    S    
Cr11  O13   S    
C82   O58   A    
C45   O27   A    
C47   O29   A    
C4    C49   S    
Cr5   O15   S    
C80   O60   A    
C46   C89   S    
Cr6   O16   S    
C35   C40   S    
Cr1   O14   S    
C9    C13   S    
Cr9   O10   S    
C60   C65   S    
C62   C66   S    
Cr11  O59   S    
C13   C18   S    
C17   O15   A    
Cr8   O22   S    
C8    C21   S    
C88   O8    A    
C28   C29   S    
C8    C72   S    
C15   C20   S    
C79   O48   A    
C16   C30   S    
C16   H5    S    
C22   H13   S    
Cr1   O9    S    
C54   C79   S    
Cr11  O21   S    
C102  O49   D    
Cr8   O45   S    
C39   O21   A    
C21   C25   S    
Cr6   O11   S    
C74   O23   A    
C56   C65   T    
Cr4   O13   S    
C1    C31   S    
C96   C97   S    
C58   C67   T    
C24   C61   S    
C38   C43   S    
C103  H19   S    
C4    O53   D    
Cr12  O31   S    
C48   O26   A    
C78   O42   A    
C102  H18   S    
C34   C38   S    
C99   H29   S    
C6    H25   S    
C77   O41   A    
Cr8   O44   S    
Cr10  O25   S    
C20   H10   S    
C54   C63   T    
C78   O47   A    
C25   H16   S    
C59   C68   T    
C83   H27   S    
C10   H32   S    
Br2   C37   S    
C3    C35   S    
C50   C94   S    
C4    H22   S    
C14   C27   S    
Cr1   O40   S    
C11   C99   S    
C26   C83   S    
C47   O25   A    
Cr3   O3    S    
C7    O57   D    
Cr9   O46   S    
C40   C44   S    
C81   O56   A    
C43   C52   S    
Cr5   O12   S    
C86   O37   A    
