data_mof_unit_24569.cif
_audit_creation_date              2012-12-10T18:55:22-0500
_audit_creation_method            fapswitch 2.2
_symmetry_space_group_name_H-M    P1
_symmetry_Int_Tables_number       1
_space_group_crystal_system       triclinic
_cell_length_a                    10.708243
_cell_length_b                    9.821973
_cell_length_c                    27.744275
_cell_angle_alpha                 89.926594
_cell_angle_beta                  90.086087
_cell_angle_gamma                 90.006355
_cell_volume                      2918.0282041

loop_
_atom_site_label
_atom_site_type_symbol
_atom_type_description
_atom_site_fract_x
_atom_site_fract_y
_atom_site_fract_z
_atom_type_partial_charge
C1    C     C_R   0.259830 0.499998 0.499975 0.876778
C2    C     C_R   0.383178 0.503861 0.872584 -0.146898
C3    C     C_R   0.500441 0.500323 0.353319 -0.043356
C4    C     C_R   0.499768 0.499475 0.646672 -0.042431
C5    C     C_R   0.385240 0.512600 0.974716 -0.029146
C6    C     C_R   0.613081 0.470842 0.025106 -0.028164
C7    C     C_R   0.613340 0.479500 0.974178 0.098414
C8    C     C_R   0.388263 0.524191 0.025599 0.101932
C9    C     C_R   0.498510 0.495453 0.949152 0.071030
C10   C     C_R   0.501643 0.498497 0.050654 0.072726
C11   C     C_R   0.272172 0.515934 0.948521 -0.317505
C12   C     C_R   0.740170 0.500001 0.500026 0.876804
C13   C     C_R   0.720708 0.433414 0.051319 -0.323372
C14   C     C_R   0.270014 0.508653 0.898357 0.567052
C15   C     C_R   0.723070 0.434584 0.101575 0.566227
C16   C     C_R   0.500020 0.500087 0.405976 0.877663
C17   C     C_R   0.500008 0.499896 0.594021 0.877133
C18   C     C_R   0.281668 0.561845 0.052418 -0.221287
C19   C     C_R   0.725302 0.475218 0.947337 -0.219992
C20   C     C_R   0.063887 0.378894 0.490233 -0.184453
C21   C     C_R   0.936113 0.621105 0.509768 -0.184193
C22   C     C_R   0.936011 0.378882 0.490275 -0.185617
C23   C     C_R   0.503197 0.499663 0.101708 -0.123703
C24   C     C_R   0.063989 0.621118 0.509727 -0.185570
C25   C     C_R   0.872573 0.499993 0.500032 -0.015021
C26   C     C_R   0.127427 0.500006 0.499970 -0.014918
C27   C     C_R   0.577896 0.071918 0.529903 -0.073982
C28   C     C_R   0.422104 0.928082 0.470097 -0.074024
C29   C     C_R   0.422099 0.072118 0.470099 -0.073343
C30   C     C_R   0.577902 0.927882 0.529901 -0.073622
C31   C     C_R   0.395744 0.533146 0.177562 0.505112
C32   C     C_R   0.608739 0.488152 0.822209 0.505705
C33   C     C_R   0.610671 0.468663 0.177971 0.533580
C34   C     C_R   0.497300 0.495264 0.898098 -0.123505
C35   C     C_R   0.386387 0.505348 0.821887 0.531266
C36   C     C_R   0.504907 0.377196 0.277882 -0.097713
C37   C     C_R   0.490530 0.621778 0.722220 -0.098153
C38   C     C_R   0.503965 0.376750 0.327944 -0.213244
C39   C     C_R   0.491359 0.622625 0.672144 -0.212436
C40   C     C_R   0.497642 0.624146 0.327958 -0.211144
C41   C     C_R   0.507677 0.375732 0.671935 -0.207988
C42   C     C_R   0.498466 0.624199 0.277894 -0.100309
C43   C     C_R   0.507171 0.375337 0.721990 -0.107379
C44   C     C_R   0.502182 0.500819 0.252914 0.311069
C45   C     C_R   0.393692 0.532988 0.127263 0.017822
C46   C     C_R   0.498471 0.498225 0.747017 0.317761
C47   C     C_3   0.101023 0.383774 0.876366 -0.227220
C48   C     C_3   0.921020 0.495942 0.122171 -0.213707
C49   C     C_R   0.610713 0.486835 0.872508 0.008918
C50   C     C_R   0.284619 0.566045 0.102283 -0.150827
C51   C     C_R   0.723696 0.478781 0.897457 -0.137769
C52   C     C_R   0.613705 0.467347 0.127263 -0.142751
H1    H     H_    0.494824 0.720745 0.346708 0.161604
H2    H     H_    0.811926 0.475625 0.878489 0.188597
H3    H     H_    0.485077 0.719290 0.653470 0.161515
H4    H     H_    0.506133 0.279971 0.346680 0.162069
H5    H     H_    0.483904 0.716768 0.741823 0.136629
H6    H     H_    0.507498 0.281759 0.258405 0.141456
H7    H     H_    0.182438 0.520132 0.965954 0.155564
H8    H     H_    0.804215 0.397705 0.033767 0.159759
H9    H     H_    0.194925 0.592382 0.035914 0.138823
H10   H     H_    0.816434 0.473531 0.963893 0.140147
H11   H     H_    0.112592 0.284852 0.482310 0.154765
H12   H     H_    0.514452 0.279480 0.653114 0.160374
H13   H     H_    0.887408 0.715148 0.517692 0.154795
H14   H     H_    0.887224 0.284821 0.482388 0.159086
H15   H     H_    0.112776 0.715178 0.517614 0.158929
H16   H     H_    0.070195 0.357963 0.913535 0.126665
H17   H     H_    0.165129 0.303803 0.862308 0.160849
H18   H     H_    0.017123 0.384191 0.852897 0.208445
H19   H     H_    0.884665 0.595046 0.135695 0.162286
H20   H     H_    0.956352 0.507198 0.084707 0.119539
H21   H     H_    0.001430 0.467123 0.145272 0.213041
H22   H     H_    0.640098 0.126564 0.553786 0.128873
H23   H     H_    0.359900 0.873437 0.446215 0.129501
H24   H     H_    0.359879 0.126923 0.446221 0.126080
H25   H     H_    0.640124 0.873078 0.553777 0.126531
H26   H     H_    0.496478 0.719821 0.258431 0.139813
H27   H     H_    0.513319 0.279854 0.741411 0.133911
H28   H     H_    0.200492 0.595492 0.121222 0.173307
N1    N     N_R   0.502918 0.501000 0.201572 -0.364148
N2    N     N_R   0.497856 0.497451 0.798292 -0.365598
N3    N     N_R   0.500000 0.857200 0.500000 -0.081144
N4    N     N_R   0.500000 0.142800 0.500000 -0.080961
O1    O     O_R   0.316770 0.614620 0.500000 -0.627569
O2    O     O_2   0.716616 0.480589 0.797211 -0.552230
O3    O     O_2   0.279811 0.514658 0.796082 -0.490747
O4    O     O_2   0.714097 0.439128 0.203784 -0.495142
O5    O     O_3   0.156190 0.514149 0.874777 -0.557286
O6    O     O_3   0.830121 0.392303 0.125302 -0.557111
O7    O     O_R   0.683230 0.385380 0.500000 -0.627509
O8    O     O_R   0.683230 0.614620 0.500000 -0.626021
O9    O     O_R   0.316770 0.385380 0.500000 -0.626010
O10   O     O_R   0.500030 0.614650 0.428760 -0.621371
O11   O     O_R   0.499970 0.385350 0.571240 -0.621375
O12   O     O_R   0.499970 0.614650 0.571240 -0.623616
O13   O     O_R   0.500030 0.385350 0.428760 -0.623640
O14   O     O_2   0.291260 0.563938 0.202466 -0.561714
Zn1   Zn    Zn3+2 0.500000 0.653120 0.500000 0.953943
Zn2   Zn    Zn3+2 0.500000 0.346880 0.500000 0.954045

loop_
_geom_bond_atom_site_label_1
_geom_bond_atom_site_label_2
_ccdc_geom_bond_type
C2    C35   A    
C23   C45   A    
C47   O5    S    
C12   O7    A    
C14   O5    S    
C29   H24   S    
C33   C52   A    
C45   C50   A    
C28   C29   A    
C33   O4    S    
C24   C26   A    
C5    C11   A    
C36   H6    S    
C11   C14   A    
C16   O13   A    
C4    C41   A    
C19   H10   S    
C43   H27   S    
O12   Zn1   S    
C28   N3    A    
C31   O14   S    
C30   N3    A    
C47   H17   S    
C24   H15   S    
C46   N2    S    
C30   H25   S    
C35   O3    S    
C39   H3    S    
C3    C38   A    
C49   C51   A    
C22   C25   A    
C17   O11   A    
O7    Zn2   S    
C27   H22   S    
C2    C34   A    
C40   C42   A    
C48   O6    S    
C27   C30   A    
C41   C43   A    
C42   C44   A    
C48   H20   S    
C11   H7    S    
C35   N2    A    
C1    O1    A    
N4    Zn2   S    
C29   N4    A    
C44   N1    S    
C13   H8    S    
O11   Zn2   S    
C8    C18   A    
C47   H18   S    
C5    C9    A    
O1    Zn1   S    
C4    C39   A    
C32   O2    S    
C17   O12   A    
C15   C52   A    
O9    Zn2   S    
C4    C17   S    
C8    C10   A    
C20   C22   A    
C3    C40   A    
C42   H26   S    
C7    C19   A    
C13   C15   A    
C9    C34   A    
C36   C44   A    
C48   H19   S    
C47   H16   S    
O13   Zn2   S    
C18   C50   A    
C7    C9    A    
C21   C25   A    
C27   N4    A    
C34   C49   A    
C21   H13   S    
C48   H21   S    
C12   O8    A    
C50   H28   S    
C6    C10   A    
C5    C8    A    
C18   H9    S    
C22   H14   S    
C6    C7    A    
C10   C23   A    
C32   N2    A    
C16   O10   A    
C31   N1    A    
C12   C25   S    
C51   H2    S    
C20   H11   S    
C36   C38   A    
C37   C39   A    
C6    C13   A    
C23   C52   A    
C1    C26   S    
C20   C26   A    
O10   Zn1   S    
C2    C14   A    
C43   C46   A    
C32   C49   A    
C19   C51   A    
C38   H4    S    
C1    O9    A    
C40   H1    S    
C31   C45   A    
C21   C24   A    
N3    Zn1   S    
C41   H12   S    
C37   C46   A    
C28   H23   S    
C33   N1    A    
C37   H5    S    
C3    C16   S    
O8    Zn1   S    
C15   O6    S    
