data_mof_unit_24197.cif
_audit_creation_date              2012-12-10T16:53:08-0500
_audit_creation_method            fapswitch 2.2
_symmetry_space_group_name_H-M    P1
_symmetry_Int_Tables_number       1
_space_group_crystal_system       triclinic
_cell_length_a                    10.778453
_cell_length_b                    10.940807
_cell_length_c                    9.704211
_cell_angle_alpha                 91.399955
_cell_angle_beta                  90.243301
_cell_angle_gamma                 90.20137
_cell_volume                      1144.00943839

loop_
_atom_site_label
_atom_site_type_symbol
_atom_type_description
_atom_site_fract_x
_atom_site_fract_y
_atom_site_fract_z
_atom_type_partial_charge
C1    C     C_R   0.497606 0.265349 0.498062 0.834330
C2    C     C_R   0.065673 0.394769 0.570570 0.099198
C3    C     C_R   0.128942 0.487148 0.498940 -0.068012
C4    C     C_R   0.064011 0.573673 0.424254 -0.152943
C5    C     C_R   0.936044 0.573919 0.424805 -0.182852
C6    C     C_R   0.871134 0.487606 0.499981 -0.089612
C7    C     C_2   0.469897 0.930116 0.393960 -0.359688
C8    C     C_2   0.478452 0.865753 0.509108 0.414867
C9    C     C_2   0.446850 0.061751 0.397288 0.446280
C10   C     C_2   0.504482 0.133284 0.493283 -0.360469
C11   C     C_2   0.417888 0.442137 0.920178 -0.132330
C12   C     C_R   0.262655 0.495880 0.499703 0.808539
C13   C     C_2   0.411596 0.451532 0.075341 0.738139
C14   C     C_R   0.495936 0.734575 0.501911 0.762909
C15   C     C_R   0.737368 0.495968 0.500086 0.772001
C16   C     C_R   0.129512 0.300028 0.637340 -0.123175
C17   C     C_R   0.064621 0.208845 0.704713 -0.085170
C18   C     C_R   0.935584 0.209019 0.705188 -0.121418
C19   C     C_R   0.870614 0.300399 0.638315 -0.169643
C20   C     C_R   0.934437 0.394985 0.571096 0.092929
Cu1   Cu    Cu3+1 0.500020 0.500020 0.638630 0.982851
Cu2   Cu    Cu3+1 0.499980 0.499980 0.361370 1.042465
H1    H     H_    0.112830 0.643279 0.367925 0.162999
H2    H     H_    0.565596 0.093822 0.569288 0.179191
H3    H     H_    0.347628 0.387172 0.867320 0.190813
H4    H     H_    0.559700 0.557402 0.896147 0.190976
H5    H     H_    0.578898 0.527200 0.107067 0.137293
H6    H     H_    0.229530 0.293678 0.635934 0.151435
H7    H     H_    0.114699 0.136844 0.755246 0.169705
H8    H     H_    0.885531 0.137142 0.756109 0.155032
H9    H     H_    0.770515 0.294426 0.637840 0.148340
H10   H     H_    0.887234 0.643627 0.368707 0.155981
H11   H     H_    0.474562 0.884543 0.293396 0.151428
N1    N     N_2   0.498640 0.498660 0.846910 -0.314048
N2    N     N_2   0.498610 0.498630 0.153040 -0.329676
O1    O     O_R   0.500020 0.321960 0.617040 -0.585851
O2    O     O_R   0.499980 0.321920 0.382900 -0.496594
O3    O     O_R   0.319670 0.500020 0.617100 -0.597883
O4    O     O_R   0.319630 0.499980 0.382950 -0.492531
O5    O     O_R   0.500020 0.678080 0.617100 -0.523413
O6    O     O_R   0.499980 0.678040 0.382960 -0.620720
O7    O     O_R   0.680370 0.500020 0.617050 -0.579817
O8    O     O_R   0.680330 0.499980 0.382900 -0.579470
F1    F     F_    0.308876 0.404797 0.134964 -0.579716
F2    F     F_    0.458310 0.918572 0.635611 -0.654829
S1    S     S_3+6 0.343884 0.116972 0.270529 0.061703
O9    O     O_2   0.261688 0.214598 0.331679 -0.224721
O10   O     O_2   0.417694 0.169096 0.154622 -0.270209
O11   O     O_3   0.254110 0.002027 0.208247 -0.507219
H12   H     H_    0.303915 0.961403 0.134940 0.352608

loop_
_geom_bond_atom_site_label_1
_geom_bond_atom_site_label_2
_ccdc_geom_bond_type
C16   H6    S    
C18   H8    S    
C2    C16   A    
C17   H7    S    
C9    C10   D    
Cu2   O8    S    
Cu1   N1    S    
C1    O2    A    
C5    H10   S    
C19   H9    S    
C12   O4    A    
C17   C18   A    
C15   O8    A    
C7    C8    D    
Cu1   O1    S    
Cu1   Cu2   S    
Cu2   N2    S    
C11   C13   S    
S1    O11   S    
Cu1   O7    S    
Cu1   O5    S    
C14   O6    A    
Cu2   O4    S    
C13   N2    D    
C2    C3    A    
C11   N1    D    
C12   O3    A    
C5    C6    A    
S1    O10   D    
Cu2   O6    S    
C7    H11   S    
C2    C20   A    
C3    C4    A    
C9    S1    S    
C6    C20   A    
C15   O7    A    
C7    C9    S    
C18   C19   A    
C1    C10   S    
O11   H12   S    
C4    H1    S    
C11   H3    S    
C8    F2    S    
C16   C17   A    
C10   H2    S    
C8    C14   S    
C3    C12   S    
H5    N2    S    
C6    C15   S    
S1    O9    D    
Cu2   O2    S    
C14   O5    A    
H4    N1    S    
C13   F1    S    
Cu1   O3    S    
C19   C20   A    
C1    O1    A    
C4    C5    A    
