data_mof_unit_24823.cif
_audit_creation_date              2012-12-10T17:13:34-0500
_audit_creation_method            fapswitch 2.2
_symmetry_space_group_name_H-M    P1
_symmetry_Int_Tables_number       1
_space_group_crystal_system       triclinic
_cell_length_a                    10.763767
_cell_length_b                    12.977437
_cell_length_c                    11.744883
_cell_angle_alpha                 99.549876
_cell_angle_beta                  93.282911
_cell_angle_gamma                 91.618105
_cell_volume                      1614.01881165

loop_
_atom_site_label
_atom_site_type_symbol
_atom_type_description
_atom_site_fract_x
_atom_site_fract_y
_atom_site_fract_z
_atom_type_partial_charge
C1    C     C_R   0.498579 0.299350 0.478657 0.820761
C2    C     C_3   0.878238 0.494262 0.496969 0.137227
C3    C     C_3   0.935514 0.595657 0.578418 -0.009820
C4    C     C_3   0.922770 0.494236 0.370758 -0.007135
C5    C     C_R   0.489328 0.812213 0.532911 -0.031019
C6    C     C_R   0.501277 0.185495 0.466129 -0.071091
C7    C     C_R   0.592159 0.023276 0.383383 -0.212264
C8    C     C_R   0.581118 0.130241 0.387498 0.123078
C9    C     C_R   0.430814 0.132142 0.538272 0.076276
C10   C     C_R   0.451767 0.025589 0.539798 0.158236
C11   C     C_R   0.530536 0.971477 0.459501 0.087598
C12   C     C_R   0.260190 0.500870 0.500443 0.771883
C13   C     C_R   0.547078 0.865148 0.455541 -0.239943
C14   C     C_R   0.416203 0.865315 0.616488 -0.212622
C15   C     C_R   0.396460 0.971084 0.619484 -0.193118
C16   C     C_R   0.374817 0.404091 0.024382 0.067078
C17   C     C_R   0.389304 0.413588 0.146332 0.019040
C18   C     C_R   0.553710 0.541744 0.154230 0.336381
C19   C     C_R   0.544049 0.533651 0.031410 0.026590
C20   C     C_R   0.453645 0.464624 0.965728 0.007503
C21   C     C_R   0.445507 0.459360 0.843267 0.038998
C22   C     C_R   0.610821 0.585400 0.852641 0.080097
C23   C     C_R   0.499377 0.700202 0.521201 0.788428
C24   C     C_R   0.622768 0.593935 0.972384 -0.314046
C25   C     C_R   0.739774 0.495055 0.498552 0.763570
C26   C     C_3   0.074774 0.396220 0.534744 -0.390900
C27   C     C_3   0.931043 0.394644 0.541129 -0.024997
C28   C     C_3   0.079604 0.593035 0.585998 -0.387375
C29   C     C_3   0.065662 0.507740 0.376963 -0.366196
C30   C     C_3   0.122525 0.499517 0.499792 0.070823
Cu1   Cu    Cu3+1 0.509350 0.507730 0.615930 0.923418
Cu2   Cu    Cu3+1 0.490650 0.492270 0.384070 0.918909
H1    H     H_    0.883909 0.562408 0.337249 0.170628
H2    H     H_    0.123089 0.667082 0.567929 0.168086
H3    H     H_    0.605380 0.823313 0.392431 0.132482
H4    H     H_    0.652399 0.980458 0.322777 0.143306
H5    H     H_    0.377422 0.407408 0.789503 0.136686
H6    H     H_    0.671694 0.631869 0.809227 0.125977
H7    H     H_    0.891872 0.323755 0.482720 0.157163
H8    H     H_    0.112790 0.585520 0.675694 0.161691
H9    H     H_    0.092205 0.585398 0.355134 0.153128
H10   H     H_    0.105670 0.448180 0.310974 0.191552
N1    N     N_R   0.523430 0.519360 0.790130 -0.183772
N2    N     N_R   0.476570 0.480640 0.209880 -0.199789
O1    O     O_R   0.506640 0.354460 0.582000 -0.578088
O2    O     O_R   0.490840 0.341410 0.386200 -0.585070
O3    O     O_R   0.325590 0.506510 0.597900 -0.594327
O4    O     O_R   0.309790 0.493450 0.402100 -0.592327
O5    O     O_R   0.509160 0.658590 0.613800 -0.583110
O6    O     O_R   0.493360 0.645540 0.418000 -0.582001
O7    O     O_R   0.690210 0.506550 0.597900 -0.588928
O8    O     O_R   0.674410 0.493490 0.402100 -0.596605
H11   H     H_    0.122107 0.386659 0.619005 0.180044
C31   C     C_3   0.892207 0.699161 0.543392 -0.935895
H12   H     H_    0.924711 0.765649 0.611869 0.243909
H13   H     H_    0.931068 0.712722 0.461442 0.238145
H14   H     H_    0.789122 0.700315 0.533938 0.229677
H15   H     H_    0.370994 0.824168 0.676839 0.147637
H16   H     H_    0.338358 0.009105 0.684804 0.149611
C32   C     C_3   0.659590 0.183912 0.310706 -0.842963
H17   H     H_    0.725175 0.130148 0.263732 0.218674
H18   H     H_    0.599279 0.214410 0.245030 0.253290
H19   H     H_    0.715738 0.248778 0.364578 0.218113
C33   C     C_3   0.330575 0.186313 0.609461 -0.891356
H20   H     H_    0.304648 0.261606 0.583962 0.228363
H21   H     H_    0.243242 0.137092 0.596260 0.224372
H22   H     H_    0.362429 0.200122 0.702338 0.233270
H23   H     H_    0.100968 0.328852 0.470006 0.140676
C34   C     C_3   0.275186 0.329518 0.959593 -0.923531
H24   H     H_    0.220812 0.290460 0.019016 0.232984
H25   H     H_    0.209368 0.372514 0.910145 0.235477
H26   H     H_    0.318611 0.267939 0.899310 0.234649
H27   H     H_    0.694511 0.648376 0.016499 0.146576
H28   H     H_    0.329769 0.367237 0.191146 0.138393
C35   C     C_3   0.650168 0.621014 0.218779 -0.812310
H29   H     H_    0.658805 0.630453 0.312112 0.273847
H30   H     H_    0.743832 0.599929 0.189788 0.189922
H31   H     H_    0.628981 0.699909 0.199743 0.190448
C36   C     C_3   0.895491 0.378574 0.662726 -0.883390
H32   H     H_    0.926661 0.445847 0.730305 0.236620
H33   H     H_    0.793923 0.363177 0.664727 0.260603
H34   H     H_    0.940620 0.308132 0.685553 0.232484
H35   H     H_    0.903980 0.596987 0.667101 0.172986
C37   C     C_3   0.881759 0.397459 0.278479 -0.914492
H36   H     H_    0.779868 0.383597 0.267005 0.273079
H37   H     H_    0.912231 0.410363 0.192949 0.235341
H38   H     H_    0.925381 0.325342 0.297687 0.232697

loop_
_geom_bond_atom_site_label_1
_geom_bond_atom_site_label_2
_ccdc_geom_bond_type
C18   C35   S    
C29   H10   S    
C9    C33   S    
C7    H4    S    
C19   C20   A    
C37   H38   S    
C12   O4    A    
C6    C9    A    
C7    C8    A    
C7    C11   A    
C26   C27   S    
Cu1   N1    S    
C32   H19   S    
C3    C28   S    
C37   H37   S    
C13   H3    S    
C27   C36   S    
C10   C15   A    
C3    C31   S    
C24   H27   S    
C23   O5    A    
C28   H8    S    
C22   H6    S    
C32   H18   S    
C18   C19   A    
C34   H25   S    
Cu2   O8    S    
C31   H12   S    
C22   N1    A    
C27   H7    S    
C16   C17   A    
C4    C37   S    
C2    C27   S    
C9    C10   A    
C5    C13   A    
C4    C29   S    
C29   H9    S    
C28   H2    S    
Cu1   O3    S    
Cu2   O4    S    
C15   H16   S    
Cu1   O5    S    
C12   O3    A    
C14   H15   S    
C31   H13   S    
C1    C6    S    
C33   H22   S    
C37   H36   S    
C36   H33   S    
C23   O6    A    
C6    C8    A    
C32   H17   S    
C33   H21   S    
C34   H26   S    
C2    C4    S    
C35   H29   S    
C25   O7    A    
C29   C30   S    
C18   N2    A    
Cu1   Cu2   S    
C5    C23   S    
C16   C20   A    
Cu2   N2    S    
C35   H30   S    
Cu2   O6    S    
C5    C14   A    
C26   C30   S    
C3    H35   S    
C17   H28   S    
C22   C24   A    
C26   H11   S    
C4    H1    S    
C12   C30   S    
Cu2   O2    S    
C16   C34   S    
Cu1   O7    S    
C36   H34   S    
C26   H23   S    
C33   H20   S    
C28   C30   S    
C2    C3    S    
C17   N2    A    
C8    C32   S    
C11   C13   A    
C1    O1    A    
C19   C24   A    
C2    C25   S    
C34   H24   S    
C1    O2    A    
C35   H31   S    
C25   O8    A    
C10   C11   A    
C36   H32   S    
C21   H5    S    
C20   C21   A    
Cu1   O1    S    
C14   C15   A    
C21   N1    A    
C31   H14   S    
