data_mof_unit_32102.cif
_audit_creation_date              2013-03-05T15:39:32-0500
_audit_creation_method            fapswitch 2.2
_symmetry_space_group_name_H-M    P1
_symmetry_Int_Tables_number       1
_space_group_crystal_system       triclinic
_cell_length_a                    19.728561
_cell_length_b                    16.983512
_cell_length_c                    15.398285
_cell_angle_alpha                 89.721838
_cell_angle_beta                  53.264648
_cell_angle_gamma                 89.748911
_cell_volume                      4134.68477299

loop_
_atom_site_label
_atom_site_type_symbol
_atom_site_description
_atom_site_fract_x
_atom_site_fract_y
_atom_site_fract_z
_atom_type_partial_charge
C1    C     C_R   0.338658 0.173179 0.052235 -0.147851
C2    C     C_R   0.377394 0.801709 0.993999 -0.164892
C3    C     C_R   0.838664 0.673188 0.052226 -0.147839
C4    C     C_R   0.877397 0.301708 0.993997 -0.164876
H1    H     H_    0.327358 0.219501 0.106869 0.104260
H2    H     H_    0.388287 0.746595 0.019399 0.120297
H3    H     H_    0.827370 0.719514 0.106853 0.104268
H4    H     H_    0.888289 0.246595 0.019401 0.120246
N1    N     N_R   0.408680 0.130160 0.995800 -0.046881
N2    N     N_R   0.408680 0.869840 0.995800 -0.046343
N3    N     N_R   0.908680 0.630160 0.995800 -0.046885
N4    N     N_R   0.908680 0.369840 0.995800 -0.046351
C5    C     C_R   0.347830 0.830833 0.218468 -0.000168
C6    C     C_R   0.398501 0.199542 0.207727 -0.138249
C7    C     C_R   0.847829 0.330834 0.218469 -0.000101
C8    C     C_R   0.898533 0.699551 0.207720 -0.138466
H5    H     H_    0.328612 0.780463 0.195859 0.107615
H6    H     H_    0.398583 0.256030 0.175056 0.097166
H7    H     H_    0.828611 0.280464 0.195861 0.107597
H8    H     H_    0.898622 0.756038 0.175043 0.097160
N5    N     N_R   0.421680 0.867580 0.153120 -0.041825
N6    N     N_R   0.421680 0.132420 0.153120 -0.043597
N7    N     N_R   0.921680 0.367580 0.153120 -0.041830
N8    N     N_R   0.921680 0.632420 0.153120 -0.043586
C9    C     C_R   0.367916 0.887325 0.894330 -0.061202
C10   C     C_R   0.328416 0.085586 0.954466 -0.029986
C11   C     C_R   0.867921 0.387321 0.894324 -0.061204
C12   C     C_R   0.828413 0.585583 0.954475 -0.029831
H9    H     H_    0.364429 0.913516 0.832999 0.149596
H10   H     H_    0.307880 0.049841 0.916486 0.158705
H11   H     H_    0.864438 0.413506 0.832987 0.149596
H12   H     H_    0.807863 0.549825 0.916521 0.158721
N9    N     N_R   0.403730 0.921770 0.935950 -0.058826
N10   N     N_R   0.403730 0.078230 0.935950 -0.062109
N11   N     N_R   0.903730 0.421770 0.935950 -0.058840
N12   N     N_R   0.903730 0.578230 0.935950 -0.062115
C13   C     C_R   0.406537 0.107572 0.304020 -0.136335
C14   C     C_R   0.357549 0.922176 0.314410 -0.107766
C15   C     C_R   0.906562 0.607575 0.304007 -0.136163
C16   C     C_R   0.857549 0.422179 0.314409 -0.107767
H13   H     H_    0.411600 0.078036 0.362271 0.108724
H14   H     H_    0.348832 0.956395 0.379193 0.096969
H15   H     H_    0.911624 0.578023 0.362248 0.108932
H16   H     H_    0.848830 0.456397 0.379193 0.096984
N13   N     N_R   0.426630 0.075970 0.212960 -0.043306
N14   N     N_R   0.426630 0.924030 0.212960 -0.038226
N15   N     N_R   0.926630 0.575970 0.212960 -0.043346
N16   N     N_R   0.926630 0.424030 0.212960 -0.038221
C17   C     C_R   0.285231 0.146231 0.029208 0.002298
C18   C     C_R   0.351258 0.810200 0.930134 0.022192
C19   C     C_R   0.785235 0.646237 0.029204 0.002196
C20   C     C_R   0.851266 0.310196 0.930129 0.022291
C21   C     C_R   0.306323 0.863208 0.321316 0.012290
C22   C     C_R   0.387682 0.185185 0.303283 0.091325
C23   C     C_R   0.806323 0.363211 0.321317 0.012290
C24   C     C_R   0.887768 0.685208 0.303250 0.091370
C25   C     C_R   0.659157 0.179748 0.958529 -0.033865
C26   C     C_R   0.624601 0.799941 0.010066 -0.029014
C27   C     C_R   0.159164 0.679741 0.958517 -0.034115
C28   C     C_R   0.124616 0.299945 0.010048 -0.029049
H17   H     H_    0.670041 0.232907 0.912949 0.127162
H18   H     H_    0.622542 0.744529 0.978004 0.146262
H19   H     H_    0.170049 0.732898 0.912933 0.127198
H20   H     H_    0.122574 0.244530 0.977974 0.146032
N17   N     N_R   0.591320 0.134600 0.004200 -0.065717
N18   N     N_R   0.591320 0.865400 0.004200 -0.064904
N19   N     N_R   0.091320 0.634600 0.004200 -0.065718
N20   N     N_R   0.091320 0.365400 0.004200 -0.064865
C29   C     C_R   0.650408 0.828630 0.781124 -0.099992
C30   C     C_R   0.599517 0.199420 0.791408 -0.011891
C31   C     C_R   0.150413 0.328634 0.781107 -0.099936
C32   C     C_R   0.099512 0.699421 0.791411 -0.011838
H21   H     H_    0.667196 0.776353 0.804123 0.161786
H22   H     H_    0.603024 0.255658 0.821023 0.095523
H23   H     H_    0.167246 0.276365 0.804071 0.161493
H24   H     H_    0.103019 0.755659 0.821026 0.095487
N21   N     N_R   0.578320 0.867660 0.846880 -0.056359
N22   N     N_R   0.578320 0.132340 0.846880 -0.044297
N23   N     N_R   0.078320 0.367660 0.846880 -0.056354
N24   N     N_R   0.078320 0.632340 0.846880 -0.044291
C33   C     C_R   0.591145 0.106522 0.697063 -0.127646
C34   C     C_R   0.642748 0.923871 0.686146 -0.097681
C35   C     C_R   0.091136 0.606525 0.697069 -0.127648
C36   C     C_R   0.142732 0.423881 0.686147 -0.097660
H25   H     H_    0.584450 0.076263 0.641132 0.097609
H26   H     H_    0.654140 0.962288 0.622906 0.101368
H27   H     H_    0.084433 0.576269 0.641142 0.097669
H28   H     H_    0.154119 0.462307 0.622916 0.101385
N25   N     N_R   0.573370 0.074390 0.787040 -0.037284
N26   N     N_R   0.573370 0.925610 0.787040 -0.047072
N27   N     N_R   0.073370 0.574390 0.787040 -0.037283
N28   N     N_R   0.073370 0.425610 0.787040 -0.047068
C37   C     C_R   0.632775 0.893873 0.105860 -0.125455
C38   C     C_R   0.666827 0.083680 0.055751 -0.099327
C39   C     C_R   0.132783 0.393877 0.105850 -0.125379
C40   C     C_R   0.166832 0.583675 0.055740 -0.099172
H29   H     H_    0.636927 0.920702 0.166078 0.108812
H30   H     H_    0.685565 0.050692 0.098424 0.108272
H31   H     H_    0.136937 0.420705 0.166067 0.108873
H32   H     H_    0.185572 0.550686 0.098412 0.108340
N29   N     N_R   0.596270 0.927870 0.064040 -0.050670
N30   N     N_R   0.596270 0.072130 0.064040 -0.051159
N31   N     N_R   0.096270 0.427870 0.064040 -0.050680
N32   N     N_R   0.096270 0.572130 0.064040 -0.051155
Ni1   Ni    Ni4+2 0.500000 0.131190 0.000000 0.228486
Ni2   Ni    Ni4+2 0.500000 0.868810 0.000000 0.258121
Ni3   Ni    Ni4+2 1.000000 0.631190 0.000000 0.228423
Ni4   Ni    Ni4+2 0.000000 0.368810 0.000000 0.258097
Ni5   Ni    Ni4+2 0.488650 0.000000 0.862740 0.232764
Ni6   Ni    Ni4+2 0.988650 0.500000 0.862740 0.232830
Ni7   Ni    Ni4+2 0.511350 0.000000 0.137260 0.248661
Ni8   Ni    Ni4+2 0.011350 0.500000 0.137260 0.248796
C41   C     C_R   0.707746 0.148439 0.988314 0.207488
C42   C     C_R   0.649675 0.814935 0.074519 0.194904
C43   C     C_R   0.207755 0.648431 0.988297 0.207377
C44   C     C_R   0.149692 0.314942 0.074498 0.194972
C45   C     C_R   0.692120 0.861917 0.678343 0.067075
C46   C     C_R   0.607410 0.185014 0.697341 0.034925
C47   C     C_R   0.192081 0.361909 0.678325 0.067138
C48   C     C_R   0.107400 0.685017 0.697346 0.034928
C49   C     C_3   0.254675 0.197169 0.478726 -0.437524
C50   C     C_3   0.190696 0.872830 0.520965 -0.418755
C51   C     C_3   0.754605 0.697431 0.478447 -0.437446
C52   C     C_3   0.690682 0.372831 0.520964 -0.418695
H33   H     H_    0.260560 0.135867 0.499617 0.175098
H34   H     H_    0.226947 0.918706 0.528122 0.166303
H35   H     H_    0.760208 0.636017 0.499274 0.175080
H36   H     H_    0.726919 0.418725 0.528120 0.166318
H37   H     H_    0.221226 0.193588 0.440777 0.197086
H38   H     H_    0.145272 0.904033 0.512350 0.206397
H39   H     H_    0.721292 0.694210 0.440296 0.197136
H40   H     H_    0.645249 0.404014 0.512348 0.206455
C53   C     C_3   0.201546 0.244601 0.582534 -0.348445
C54   C     C_3   0.142138 0.823689 0.626259 -0.382137
C55   C     C_3   0.701505 0.744794 0.582330 -0.348658
C56   C     C_3   0.642138 0.323690 0.626260 -0.382145
H41   H     H_    0.642211 0.763878 0.594585 0.187438
H42   H     H_    0.573612 0.338523 0.675615 0.188366
H43   H     H_    0.142174 0.263492 0.594862 0.187434
H44   H     H_    0.073615 0.838528 0.675604 0.188290
H45   H     H_    0.182149 0.205971 0.652272 0.202696
H46   H     H_    0.164561 0.840166 0.674761 0.202059
H47   H     H_    0.681972 0.706064 0.652034 0.202799
H48   H     H_    0.664570 0.340171 0.674751 0.202054
H49   H     H_    0.387163 0.178175 0.482980 0.123134
H50   H     H_    0.331280 0.812572 0.471102 0.135753
H51   H     H_    0.886651 0.677776 0.483402 0.123177
H52   H     H_    0.831255 0.312604 0.471147 0.135761
C57   C     C_3   0.387603 0.239033 0.455585 0.102327
C58   C     C_3   0.305318 0.769414 0.443633 0.098309
C59   C     C_3   0.887453 0.738689 0.455899 0.102540
C60   C     C_3   0.805320 0.269437 0.443652 0.098295
C61   C     C_3   0.830118 0.819964 0.372319 -0.354328
C62   C     C_3   0.689284 0.262874 0.414926 -0.353946
C63   C     C_3   0.329628 0.319798 0.372399 -0.354279
C64   C     C_3   0.189265 0.762887 0.414934 -0.353733
C65   C     C_3   0.342873 0.235638 0.399247 0.153903
C66   C     C_3   0.248947 0.817731 0.421850 0.128901
C67   C     C_3   0.842966 0.735664 0.399227 0.153669
C68   C     C_3   0.748949 0.317735 0.421852 0.129015
H53   H     H_    0.891344 0.849858 0.313288 0.221101
H54   H     H_    0.725918 0.218399 0.350005 0.195253
H55   H     H_    0.390713 0.349833 0.313125 0.220959
H56   H     H_    0.225886 0.718417 0.350002 0.195290
H57   H     H_    0.796636 0.817547 0.334401 0.158685
H58   H     H_    0.652236 0.297867 0.395250 0.216743
H59   H     H_    0.295923 0.317088 0.334787 0.158766
H60   H     H_    0.152212 0.797893 0.395279 0.216741
C69   C     C_3   0.751152 0.817828 0.576685 0.139780
C70   C     C_3   0.655495 0.234193 0.598915 0.131219
C71   C     C_3   0.251076 0.317818 0.576672 0.139910
C72   C     C_3   0.155488 0.734193 0.598916 0.130999
C73   C     C_3   0.836023 0.793211 0.557393 0.104299
C74   C     C_3   0.750601 0.210026 0.534687 0.086010
C75   C     C_3   0.336100 0.293502 0.557137 0.104440
C76   C     C_3   0.250591 0.710016 0.534686 0.086048
C77   C     C_3   0.775804 0.867975 0.476227 -0.434956
C78   C     C_3   0.628427 0.219452 0.523602 -0.393056
C79   C     C_3   0.275404 0.367838 0.476266 -0.435130
C80   C     C_3   0.128415 0.719457 0.523607 -0.392661
H61   H     H_    0.718591 0.886106 0.482972 0.179266
H62   H     H_    0.562438 0.240326 0.563515 0.225567
H63   H     H_    0.218051 0.385803 0.483243 0.179326
H64   H     H_    0.062424 0.740328 0.563527 0.225567
H65   H     H_    0.810107 0.922225 0.469595 0.203987
H66   H     H_    0.630243 0.156083 0.505173 0.165381
H67   H     H_    0.309665 0.422185 0.469428 0.203976
H68   H     H_    0.130235 0.656088 0.505172 0.165509
H69   H     H_    0.872152 0.848461 0.541030 0.144292
H70   H     H_    0.757307 0.151115 0.498568 0.126232
H71   H     H_    0.372072 0.348867 0.540740 0.144329
H72   H     H_    0.257286 0.651100 0.498585 0.126242
C81   C     C_2   0.275547 0.689947 0.978005 -0.338673
C82   C     C_2   0.191746 0.258918 0.099610 -0.281203
C83   C     C_2   0.775532 0.189959 0.978027 -0.338702
C84   C     C_2   0.691718 0.758905 0.099647 -0.281144
H73   H     H_    0.271810 0.688796 0.051316 0.143759
H74   H     H_    0.230976 0.287441 0.117552 0.111005
H75   H     H_    0.771779 0.188825 0.051349 0.143791
H76   H     H_    0.730919 0.787421 0.117641 0.110975
C85   C     C_2   0.820977 0.244973 0.901107 0.286243
C86   C     C_2   0.704063 0.682592 0.068160 0.325833
C87   C     C_2   0.320973 0.744977 0.901106 0.286286
C88   C     C_2   0.204062 0.182595 0.068166 0.325680
N33   N     N_R   0.823809 0.754969 0.651633 0.222785
O1    O     O_R   0.792292 0.684381 0.681924 -0.425988
O2    O     O_R   0.850325 0.789645 0.701366 -0.399330
N34   N     N_R   0.779820 0.202184 0.602340 0.253919
O3    O     O_R   0.781378 0.262643 0.652637 -0.367156
O4    O     O_R   0.806553 0.134243 0.610100 -0.314917
N35   N     N_R   0.324124 0.255354 0.651282 0.222805
O5    O     O_R   0.292820 0.184694 0.681585 -0.426228
O6    O     O_R   0.350617 0.290213 0.700933 -0.399213
N36   N     N_R   0.279813 0.702184 0.602336 0.253915
O7    O     O_R   0.281368 0.762648 0.652626 -0.367139
O8    O     O_R   0.306543 0.634245 0.610108 -0.314828
N37   N     N_R   0.476483 0.263648 0.381074 0.234738
O9    O     O_R   0.536305 0.213756 0.354289 -0.419342
O10   O     O_R   0.496784 0.335678 0.345364 -0.399761
N38   N     N_R   0.377809 0.729739 0.347626 0.251192
O11   O     O_R   0.454109 0.750405 0.310799 -0.336972
O12   O     O_R   0.367289 0.672628 0.300674 -0.391719
N39   N     N_R   0.976464 0.762959 0.381635 0.234702
O13   O     O_R   0.035994 0.712797 0.355162 -0.419333
O14   O     O_R   0.997159 0.834942 0.345874 -0.400268
N40   N     N_R   0.877835 0.229782 0.347650 0.251203
O15   O     O_R   0.954121 0.250468 0.310861 -0.336947
O16   O     O_R   0.867350 0.172669 0.300666 -0.391751
N41   N     N_R   0.841729 0.238516 0.794297 0.256579
O17   O     O_R   0.879034 0.296349 0.725527 -0.366996
O18   O     O_R   0.841188 0.169696 0.757943 -0.304307
N42   N     N_R   0.641982 0.638827 0.067303 0.232673
O19   O     O_R   0.664514 0.588213 0.991293 -0.404776
O20   O     O_R   0.562004 0.647254 0.145836 -0.290977
N43   N     N_R   0.341696 0.738541 0.794311 0.256556
O21   O     O_R   0.378857 0.796433 0.725612 -0.367025
O22   O     O_R   0.341256 0.669715 0.757886 -0.304212
N44   N     N_R   0.141937 0.138825 0.067394 0.232713
O23   O     O_R   0.164425 0.088000 0.991629 -0.405017
O24   O     O_R   0.061964 0.147389 0.145860 -0.291065

loop_
_geom_bond_atom_site_label_1
_geom_bond_atom_site_label_2
_geom_bond_distance
_ccdc_geom_bond_type
C26   H18   1.076969 S    
C58   C76   1.527771 S    
C60   C68   1.567888 S    
C50   H34   1.109376 S    
C59   C73   1.561512 S    
C14   N14   1.323557 A    
C63   C65   1.549957 S    
N43   O22   1.301253 A    
C6    H6    1.080652 S    
C29   N21   1.327743 A    
N39   O13   1.301220 A    
N20   N31   1.449915 A    
C4    H4    1.081903 S    
N28   Ni6   1.847623 S    
N38   O12   1.301782 A    
C18   C87   1.453929 S    
C7    H7    1.077203 S    
C72   C76   1.563475 S    
N24   Ni3   1.894407 S    
C21   C66   1.474514 S    
C25   N17   1.323447 A    
C42   C84   1.454865 S    
C4    C20   1.363173 A    
N22   Ni1   1.894407 S    
C1    H1    1.075584 S    
N39   O14   1.301296 A    
N27   Ni6   1.849898 S    
C15   N15   1.323563 A    
N3    N12   1.324014 A    
C14   H14   1.077940 S    
C24   C67   1.463805 S    
C3    H3    1.075596 S    
C75   H71   1.113874 S    
C56   H48   1.109114 S    
C12   C19   1.393600 A    
C39   H31   1.081387 S    
C76   H72   1.115390 S    
C30   N22   1.330342 A    
C38   H30   1.080526 S    
N1    Ni1   1.841185 S    
N15   Ni8   1.866050 S    
N25   Ni5   1.849898 S    
C77   H65   1.113192 S    
C52   H40   1.113059 S    
C55   H41   1.114565 S    
C20   C85   1.453906 S    
C29   C45   1.392484 A    
C61   C77   1.525512 S    
C9    C18   1.381202 A    
C50   C54   1.542360 S    
C2    C18   1.363185 A    
C3    N3    1.326118 A    
C27   N19   1.323455 A    
H50   C58   1.115327 S    
N32   Ni8   1.823090 S    
C64   C66   1.557515 S    
C26   N18   1.318619 A    
N35   O5    1.302150 A    
C39   N31   1.346929 A    
N34   O3    1.300610 A    
C1    C17   1.378071 A    
C30   H22   1.080533 S    
N43   O21   1.300664 A    
C40   C43   1.390520 A    
C29   H21   1.076136 S    
N26   Ni5   1.847623 S    
C75   N35   1.469560 S    
C4    N4    1.321993 A    
C80   H68   1.109303 S    
C83   H75   1.086461 S    
N5    Ni2   1.894417 S    
C19   C86   1.466741 S    
C32   H24   1.080535 S    
C52   H36   1.109383 S    
C44   C82   1.454826 S    
C72   C80   1.561264 S    
C7    N7    1.331492 A    
C43   C81   1.436878 S    
C17   C88   1.466762 S    
C8    N8    1.326932 A    
C49   C65   1.551483 S    
N14   Ni7   1.868353 S    
C10   N10   1.340346 A    
C74   N34   1.466828 S    
C41   C83   1.436851 S    
N18   N29   1.449915 A    
C71   C79   1.563817 S    
N30   Ni7   1.823090 S    
C2    H2    1.081902 S    
N17   N30   1.442725 A    
N18   Ni2   1.841676 S    
N17   Ni1   1.842192 S    
N38   O11   1.300851 A    
C38   C41   1.390518 A    
C63   C79   1.525256 S    
N19   N32   1.442725 A    
C79   H63   1.112117 S    
N33   O2    1.301257 A    
N22   N25   1.394456 A    
C9    H9    1.080646 S    
N44   O24   1.299852 A    
N21   N26   1.387520 A    
C31   H23   1.076201 S    
C51   H39   1.114689 S    
C62   C68   1.557513 S    
C52   C56   1.542380 S    
C11   H11   1.080654 S    
C77   H61   1.112054 S    
C36   H28   1.076013 S    
C12   H12   1.078783 S    
C1    N1    1.326116 A    
C56   H42   1.112887 S    
C10   C17   1.393606 A    
C37   N29   1.346943 A    
C84   H76   1.081827 S    
N4    Ni4   1.841029 S    
C3    C19   1.378073 A    
N36   O7    1.300588 A    
C48   C72   1.472871 S    
C15   H15   1.080966 S    
C63   H55   1.109349 S    
N37   O9    1.301273 A    
C34   H26   1.075996 S    
C71   C75   1.570435 S    
C33   C46   1.373142 A    
C31   N23   1.327797 A    
C61   H53   1.109280 S    
N31   Ni8   1.820578 S    
C57   C75   1.561604 S    
C7    C23   1.390740 A    
C35   C48   1.373132 A    
C61   C67   1.549985 S    
H51   C59   1.112519 S    
C8    C24   1.375326 A    
C5    C21   1.390732 A    
C49   H33   1.114110 S    
N41   O17   1.300643 A    
C45   C69   1.479965 S    
C54   H46   1.109107 S    
C51   H35   1.114061 S    
C15   C24   1.369941 A    
C39   C44   1.396859 A    
C8    H8    1.080640 S    
C16   C23   1.383785 A    
C82   C88   1.355088 D    
C32   C48   1.384010 A    
N42   O20   1.299862 A    
C50   C66   1.559466 S    
C5    N5    1.331491 A    
N8    Ni3   1.894520 S    
C57   N37   1.470022 S    
N4    N11   1.317467 A    
C36   N28   1.320599 A    
C58   N38   1.468651 S    
C38   N30   1.334917 A    
N23   N28   1.387520 A    
C78   H62   1.113197 S    
N11   Ni6   1.894350 S    
C74   H70   1.115394 S    
C60   N40   1.468637 S    
C13   C22   1.369896 A    
C88   N44   1.442356 S    
C23   C68   1.474506 S    
N16   Ni8   1.868353 S    
C56   C70   1.557886 S    
C53   H43   1.114583 S    
N40   O16   1.301792 A    
C62   C78   1.542088 S    
N3    Ni3   1.841185 S    
N1    N10   1.324014 A    
N41   O18   1.301238 A    
N35   O6    1.301282 A    
C28   C44   1.373094 A    
C47   C71   1.479826 S    
N9    Ni5   1.894350 S    
C13   N13   1.323554 A    
C2    N2    1.322003 A    
C37   H29   1.081389 S    
C11   C20   1.381193 A    
C86   N42   1.442272 S    
N5    N14   1.376503 A    
C70   C74   1.563475 S    
C16   N16   1.323558 A    
N33   O1    1.302136 A    
N44   O23   1.300099 A    
N21   Ni2   1.894504 S    
C69   C73   1.570563 S    
N7    N16   1.376503 A    
C58   C66   1.567887 S    
C51   C55   1.517813 S    
C61   H57   1.113876 S    
N8    N15   1.369658 A    
C53   H45   1.110776 S    
C62   H54   1.109287 S    
C62   H58   1.112903 S    
H52   C60   1.115334 S    
C49   H37   1.114734 S    
C34   N26   1.320720 A    
C35   H27   1.079011 S    
C25   C41   1.389618 A    
N13   Ni7   1.866050 S    
C25   H17   1.081241 S    
C83   C85   1.343861 D    
C54   H44   1.112884 S    
C31   C47   1.392482 A    
C73   N33   1.469557 S    
N29   Ni7   1.820578 S    
N6    Ni1   1.894520 S    
C35   N27   1.324205 A    
N2    N9    1.317467 A    
C27   H19   1.081237 S    
C81   C87   1.343846 D    
C5    H5    1.077205 S    
C28   H20   1.076997 S    
C6    C22   1.375254 A    
C11   N11   1.342076 A    
C6    N6    1.326820 A    
N24   N27   1.394456 A    
C40   N32   1.334922 A    
C64   H56   1.109281 S    
C53   C71   1.553470 S    
N36   O8    1.300982 A    
C33   N25   1.324196 A    
C32   N24   1.330346 A    
N34   O4    1.300986 A    
C22   C65   1.463645 S    
N12   Ni6   1.891725 S    
C64   C80   1.542102 S    
N19   Ni3   1.842192 S    
C82   H74   1.081827 S    
C14   C21   1.383798 A    
C63   H59   1.113971 S    
C30   C46   1.384005 A    
C36   C47   1.386410 A    
C81   H73   1.086455 S    
N7    Ni4   1.894417 S    
C40   H32   1.080526 S    
C73   H69   1.113879 S    
C55   H47   1.110758 S    
C59   N39   1.470015 S    
N23   Ni4   1.894504 S    
C69   C77   1.563839 S    
C76   N36   1.466822 S    
C37   C42   1.396872 A    
C55   C69   1.553428 S    
C13   H13   1.080982 S    
N37   O10   1.301387 A    
C87   N43   1.442380 S    
C33   H25   1.079009 S    
C51   C67   1.551440 S    
N2    Ni2   1.841029 S    
C28   N20   1.318628 A    
C52   C68   1.559466 S    
C78   H66   1.109299 S    
C64   H60   1.112902 S    
N42   O19   1.300171 A    
C16   H16   1.077941 S    
N6    N13   1.369658 A    
C79   H67   1.113225 S    
C12   N12   1.340348 A    
C27   C43   1.389630 A    
N40   O15   1.300860 A    
C9    N9    1.342059 A    
C60   C74   1.527761 S    
C26   C42   1.373104 A    
N10   Ni5   1.891725 S    
C46   C70   1.472857 S    
C85   N41   1.442415 S    
C54   C72   1.557871 S    
N20   Ni4   1.841676 S    
C34   C45   1.386566 A    
C49   C53   1.517742 S    
C57   C65   1.565672 S    
C50   H38   1.113053 S    
H49   C57   1.112554 S    
C80   H64   1.113196 S    
C84   C86   1.355080 D    
C59   C67   1.565711 S    
C70   C78   1.561266 S    
C10   H10   1.078778 S    
