data_mof_unit_63485.cif
_audit_creation_date              2012-12-10T17:20:36-0500
_audit_creation_method            fapswitch 2.2
_symmetry_space_group_name_H-M    P1
_symmetry_Int_Tables_number       1
_space_group_crystal_system       triclinic
_cell_length_a                    10.219533
_cell_length_b                    10.816422
_cell_length_c                    13.641557
_cell_angle_alpha                 92.521004
_cell_angle_beta                  75.244786
_cell_angle_gamma                 95.786345
_cell_volume                      1450.50148644

loop_
_atom_site_label
_atom_site_type_symbol
_atom_type_description
_atom_site_fract_x
_atom_site_fract_y
_atom_site_fract_z
_atom_type_partial_charge
C1    C     C_R   0.556519 0.732549 0.496345 0.922586
C2    C     C_2   0.080286 0.506303 0.477698 0.421794
C3    C     C_1   0.447364 0.504903 0.881962 0.087438
C4    C     C_1   0.552621 0.495193 0.118047 0.084274
C5    C     C_2   0.587262 0.865174 0.503120 -0.307241
C6    C     C_2   0.409142 0.135926 0.523189 -0.326115
C7    C     C_2   0.483465 0.935176 0.532560 -0.141202
C8    C     C_2   0.507903 0.067470 0.529795 -0.115683
C9    C     C_R   0.442732 0.267667 0.509127 0.915889
C10   C     C_R   0.477052 0.503354 0.687924 0.879994
C11   C     C_R   0.522944 0.496659 0.312083 0.877621
C12   C     C_1   0.540217 0.495593 0.206890 -0.077917
C13   C     C_1   0.459758 0.504453 0.793120 -0.077404
C14   C     C_2   0.557568 0.495715 0.013816 0.275327
C15   C     C_2   0.442444 0.504438 0.986191 0.277622
C16   C     C_2   0.933503 0.529991 0.489018 0.584853
Cl1   Cl    Cl    0.070845 0.604761 0.659416 -0.437155
Cl2   Cl    Cl    0.884723 0.295068 0.436400 -0.475544
Cl3   Cl    Cl    0.283377 0.515101 0.073926 -0.489629
Cl4   Cl    Cl    0.716659 0.485101 0.926092 -0.484100
H1    H     H_    0.610803 0.108031 0.526339 0.226747
H2    H     H_    0.378219 0.895321 0.552544 0.210691
H3    H     H_    0.306535 0.094821 0.526573 0.175572
H4    H     H_    0.692216 0.905552 0.483082 0.187175
H5    H     H_    0.198024 0.384028 0.412655 0.377475
H6    H     H_    0.971691 0.704834 0.517612 0.336050
N1    N     N_2   0.847200 0.448220 0.460120 0.046686
N2    N     N_2   0.152800 0.551780 0.539880 -0.020227
O1    O     O_R   0.430150 0.692610 0.508030 -0.607608
O2    O     O_3   0.890487 0.644851 0.522267 -0.728452
O3    O     O_R   0.569850 0.307390 0.491970 -0.577230
O4    O     O_R   0.653100 0.659360 0.482430 -0.556153
O5    O     O_R   0.346900 0.340640 0.517570 -0.634859
O6    O     O_R   0.372470 0.518990 0.654990 -0.562424
O7    O     O_R   0.627530 0.481010 0.345010 -0.585899
O8    O     O_R   0.595430 0.485740 0.629390 -0.573427
O9    O     O_R   0.404570 0.514260 0.370610 -0.595043
O10   O     O_3   0.140204 0.440642 0.392110 -0.691217
Zn1   Zn    Zn3+2 0.351130 0.522200 0.517090 1.061691
Zn2   Zn    Zn3+2 0.648870 0.477800 0.482910 1.115045

loop_
_geom_bond_atom_site_label_1
_geom_bond_atom_site_label_2
_ccdc_geom_bond_type
C9    O5    A    
C11   C12   S    
H5    O10   S    
C4    C12   T    
C7    H2    S    
C2    C16   S    
C2    O10   S    
C3    C13   T    
N1    Zn2   S    
O1    Zn1   S    
C16   N1    D    
C1    O1    A    
O7    Zn2   S    
C7    C8    S    
C10   O6    A    
C15   Cl3   S    
O5    Zn1   S    
C5    H4    S    
C6    C9    S    
C1    C5    S    
C6    H3    S    
C11   O7    A    
C10   O8    A    
H6    O2    S    
C5    C7    D    
O4    Zn2   S    
C4    C14   S    
C2    N2    D    
C9    O3    A    
C16   O2    S    
O6    Zn1   S    
C14   Cl4   S    
O8    Zn2   S    
C3    C15   S    
O3    Zn2   S    
O9    Zn1   S    
C11   O9    A    
C14   C15   D    
C6    C8    D    
N2    Zn1   S    
Cl1   N2    S    
C1    O4    A    
Cl2   N1    S    
C10   C13   S    
C8    H1    S    
