data_mof_unit_46774.cif
_audit_creation_date              2012-12-11T14:21:00-0500
_audit_creation_method            fapswitch 2.2
_symmetry_space_group_name_H-M    P1
_symmetry_Int_Tables_number       1
_space_group_crystal_system       triclinic
_cell_length_a                    11.548817
_cell_length_b                    11.515864
_cell_length_c                    19.529556
_cell_angle_alpha                 90.536161
_cell_angle_beta                  90.014834
_cell_angle_gamma                 60.041424
_cell_volume                      2250.16054867

loop_
_atom_site_label
_atom_site_type_symbol
_atom_type_description
_atom_site_fract_x
_atom_site_fract_y
_atom_site_fract_z
_atom_type_partial_charge
C1    C     C_R   0.640434 0.117579 0.599179 0.553022
C2    C     C_1   0.652789 0.150070 0.668578 0.004573
C3    C     C_R   0.659971 0.677450 0.191225 -0.006522
C4    C     C_R   0.612412 0.745908 0.598578 0.548822
C5    C     C_R   0.533086 0.728249 0.221372 0.028239
C6    C     C_R   0.527551 0.705921 0.291156 0.031050
C7    C     C_R   0.761410 0.647850 0.302605 -0.153000
C8    C     C_R   0.773548 0.635840 0.232365 -0.140678
C9    C     C_R   0.415027 0.781843 0.181816 -0.074056
C10   C     C_R   0.300867 0.785686 0.207484 -0.119552
C11   C     C_R   0.300406 0.744228 0.273870 -0.155338
C12   C     C_1   0.641128 0.703783 0.667939 0.005434
C13   C     C_R   0.411621 0.705382 0.315534 -0.100915
C14   C     C_R   0.639003 0.684261 0.332892 -0.007700
C15   C     C_R   0.170406 0.180599 0.184701 -0.007407
C16   C     C_R   0.240623 0.145460 0.598099 0.557403
C17   C     C_R   0.248639 0.235162 0.207427 0.025809
C18   C     C_R   0.280197 0.228610 0.277819 0.021258
C19   C     C_R   0.197164 0.072274 0.293766 -0.136654
C20   C     C_R   0.147138 0.097960 0.227814 -0.152026
C21   C     C_R   0.285950 0.306308 0.162294 -0.092982
C22   C     C_R   0.319546 0.398051 0.187632 -0.116639
C23   C     C_1   0.127053 0.198367 0.859356 0.003247
C24   C     C_R   0.327988 0.410536 0.257610 -0.139930
C25   C     C_R   0.320606 0.319818 0.301828 -0.104857
C26   C     C_R   0.261273 0.138167 0.320709 0.001934
C27   C     C_R   0.671856 0.188660 0.194958 -0.016142
C28   C     C_R   0.648708 0.111135 0.402872 0.573254
C29   C     C_R   0.730900 0.055429 0.217843 0.015898
C30   C     C_R   0.758303 0.031044 0.287830 0.006421
C31   C     C_R   0.629620 0.270195 0.313123 0.058179
C32   C     C_R   0.626949 0.294827 0.242962 -0.133868
C33   C     C_R   0.781017 0.945635 0.171461 -0.076624
C34   C     C_1   0.171333 0.170234 0.727682 -0.031210
C35   C     C_R   0.883585 0.820558 0.190927 -0.115551
C36   C     C_R   0.928998 0.800601 0.257988 -0.143440
C37   C     C_R   0.865322 0.903067 0.306542 -0.087577
C38   C     C_R   0.684335 0.138685 0.335160 0.045245
C39   C     C_R   0.082121 0.230853 0.928667 0.541493
C40   C     C_R   0.615589 0.737160 0.402528 0.540552
C41   C     C_R   0.683870 0.604547 0.929545 0.541461
C42   C     C_R   0.708351 0.206427 0.930196 0.541609
C43   C     C_R   0.087961 0.232781 0.123422 0.533958
C44   C     C_R   0.681346 0.616058 0.124055 0.529169
C45   C     C_1   0.150323 0.181951 0.798950 -0.031069
C46   C     C_R   0.706931 0.211341 0.126634 0.532393
C47   C     C_R   0.301059 0.116593 0.393475 0.549157
C48   C     C_1   0.670456 0.646626 0.860173 0.003533
C49   C     C_1   0.654727 0.683629 0.728404 -0.031045
C50   C     C_1   0.663490 0.666765 0.799698 -0.031492
C51   C     C_1   0.194931 0.161066 0.667304 0.002615
C52   C     C_1   0.678670 0.190823 0.860850 0.002942
C53   C     C_1   0.658385 0.167427 0.729026 -0.030984
C54   C     C_1   0.665648 0.180682 0.800373 -0.031178
Cr1   Cr    Cr6+3 0.404720 0.198220 0.499960 1.023828
Cr2   Cr    Cr6+3 0.698290 0.897110 0.500380 1.020829
Cr3   Cr    Cr6+3 0.396970 0.904720 0.499610 1.024112
Cr4   Cr    Cr6+3 0.926180 0.151990 0.028120 1.019674
Cr5   Cr    Cr6+3 0.921330 0.451820 0.027470 1.014348
Cr6   Cr    Cr6+3 0.626260 0.446870 0.028710 1.017098
H1    H     H_    0.847813 0.626499 0.333354 0.133492
H2    H     H_    0.413935 0.812247 0.129380 0.121043
H3    H     H_    0.873135 0.588992 0.210536 0.149454
H4    H     H_    0.213696 0.818462 0.175462 0.115007
H5    H     H_    0.213131 0.743606 0.293536 0.103295
H6    H     H_    0.406377 0.669441 0.365593 0.141006
H7    H     H_    0.176132 0.008321 0.325450 0.148750
H8    H     H_    0.281899 0.297174 0.107262 0.129458
H9    H     H_    0.084410 0.057611 0.211668 0.145029
H10   H     H_    0.488593 0.439818 0.360580 0.215499
H11   H     H_    0.639831 0.428920 0.351218 0.234739
H12   H     H_    0.337244 0.460710 0.153150 0.124848
H13   H     H_    0.348025 0.486391 0.277048 0.109656
H14   H     H_    0.342223 0.329315 0.354156 0.172359
H15   H     H_    0.749367 0.958952 0.118507 0.120961
H16   H     H_    0.593934 0.396149 0.226249 0.145206
H17   H     H_    0.929860 0.739992 0.153542 0.115077
H18   H     H_    0.012064 0.704574 0.272755 0.104981
H19   H     H_    0.909702 0.882436 0.356730 0.144893
N1    N     N_3   0.591303 0.375437 0.362878 -0.626913
O1    O     O_R   0.267740 0.231960 0.575440 -0.500373
O2    O     O_R   0.596130 0.579390 0.952730 -0.508065
O3    O     O_R   0.639060 0.321160 0.958670 -0.494718
O4    O     O_R   0.527280 0.186640 0.570530 -0.490818
O5    O     O_R   0.821240 0.124200 0.104370 -0.518151
O6    O     O_R   0.036890 0.167040 0.097840 -0.504884
O7    O     O_R   0.056180 0.349610 0.102880 -0.524095
O8    O     O_R   0.797660 0.564870 0.097950 -0.508290
O9    O     O_R   0.595880 0.584250 0.104270 -0.521362
O10   O     O_R   0.638830 0.325670 0.099150 -0.504841
O11   O     O_3   0.824590 0.350230 0.028100 -0.244298
O12   O     O_R   0.685970 0.784660 0.430010 -0.498368
O13   O     O_R   0.728090 0.003450 0.576380 -0.503463
O14   O     O_R   0.682970 0.789190 0.570490 -0.492456
O15   O     O_R   0.499290 0.771880 0.575530 -0.504149
O16   O     O_R   0.285330 0.030870 0.569730 -0.488319
O17   O     O_R   0.270980 0.227080 0.423890 -0.531352
O18   O     O_R   0.530280 0.182120 0.430050 -0.507519
O19   O     O_R   0.731330 0.998570 0.424830 -0.539752
O20   O     O_R   0.502530 0.767000 0.423990 -0.535939
O21   O     O_R   0.288330 0.026350 0.429250 -0.495959
O22   O     O_3   0.499990 0.000020 0.499980 -0.272154
O23   O     O_R   0.821500 0.119340 0.952830 -0.508647
O24   O     O_R   0.037130 0.162530 0.957360 -0.495196
O25   O     O_R   0.056440 0.344740 0.951340 -0.509743
O26   O     O_R   0.797900 0.560360 0.957470 -0.495048

loop_
_geom_bond_atom_site_label_1
_geom_bond_atom_site_label_2
_ccdc_geom_bond_type
C47   O21   A    
C27   C29   A    
C19   C20   A    
C18   C26   A    
C16   C51   S    
C42   O23   A    
C12   C49   T    
C7    C8    A    
C53   C54   S    
C1    O4    A    
Cr2   O14   S    
Cr3   O22   S    
C37   H19   S    
Cr1   O22   S    
C34   C51   T    
Cr5   O25   S    
C23   C45   T    
C36   C37   A    
C25   H14   S    
C5    C6    A    
Cr6   O3    S    
C24   H13   S    
C29   C33   A    
C30   C38   A    
C39   O25   A    
C1    C2    S    
C19   C26   A    
Cr5   O8    S    
C7    H1    S    
Cr6   O2    S    
C33   H15   S    
C7    C14   A    
C35   C36   A    
Cr3   O16   S    
C19   H7    S    
C4    C12   S    
C9    C10   A    
C46   O5    A    
C48   C50   T    
C21   C22   A    
C15   C20   A    
C18   C25   A    
Cr4   O6    S    
C22   H12   S    
H11   N1    S    
C52   C54   T    
C13   H6    S    
Cr2   O13   S    
C3    C44   S    
C16   O16   A    
Cr5   O26   S    
C41   O26   A    
H10   N1    S    
C9    H2    S    
C39   O24   A    
C24   C25   A    
C31   N1    S    
C3    C8    A    
Cr6   O9    S    
Cr3   O20   S    
C35   H17   S    
C17   C21   A    
C30   C37   A    
Cr2   O22   S    
C5    C9    A    
C29   C30   A    
C6    C14   A    
C4    O15   A    
C31   C32   A    
C28   C38   S    
Cr1   O17   S    
C17   C18   A    
C34   C45   S    
Cr5   O11   S    
C40   O12   A    
C26   C47   S    
C4    O14   A    
C28   O19   A    
C21   H8    S    
C22   C24   A    
C20   H9    S    
Cr1   O1    S    
Cr4   O5    S    
C27   C46   S    
Cr4   O11   S    
Cr6   O11   S    
C28   O18   A    
C15   C17   A    
C27   C32   A    
C43   O6    A    
C10   H4    S    
C42   O3    A    
C3    C5    A    
C2    C53   T    
C32   H16   S    
C46   O10   A    
Cr6   O10   S    
Cr3   O21   S    
C47   O17   A    
C31   C38   A    
C40   O20   A    
C43   O7    A    
C15   C43   S    
C36   H18   S    
C6    C13   A    
C11   C13   A    
C23   C39   S    
C41   O2    A    
Cr1   O18   S    
C16   O1    A    
C33   C35   A    
C41   C48   S    
Cr5   O7    S    
C10   C11   A    
C8    H3    S    
C14   C40   S    
Cr2   O12   S    
Cr4   O24   S    
C1    O13   A    
C49   C50   S    
Cr3   O15   S    
Cr4   O23   S    
Cr2   O19   S    
Cr1   O4    S    
C44   O8    A    
C44   O9    A    
C11   H5    S    
C42   C52   S    
