data_mof_unit_59413.cif
_audit_creation_date              2012-12-11T17:09:39-0500
_audit_creation_method            fapswitch 2.2
_symmetry_space_group_name_H-M    P1
_symmetry_Int_Tables_number       1
_space_group_crystal_system       triclinic
_cell_length_a                    14.793883
_cell_length_b                    6.975735
_cell_length_c                    13.55339
_cell_angle_alpha                 90.000017
_cell_angle_beta                  100.043794
_cell_angle_gamma                 90.0
_cell_volume                      1377.25032927

loop_
_atom_site_label
_atom_site_type_symbol
_atom_type_description
_atom_site_fract_x
_atom_site_fract_y
_atom_site_fract_z
_atom_type_partial_charge
O1    O     O_R   0.586930 0.505770 0.416350 -0.538944
O2    O     O_R   0.413070 0.005770 0.583650 -0.538944
O3    O     O_R   0.397900 0.173100 0.389630 -0.534117
O4    O     O_R   0.602100 0.673100 0.610370 -0.534117
C1    C     C_R   0.365319 0.345527 0.361805 0.753958
C2    C     C_R   0.634681 0.845527 0.638195 0.753957
O5    O     O_R   0.585280 0.175870 0.404330 -0.536345
O6    O     O_R   0.414720 0.675870 0.595670 -0.536346
O7    O     O_R   0.601790 0.008380 0.598460 -0.530890
O8    O     O_R   0.398210 0.508380 0.401540 -0.530890
C3    C     C_R   0.614900 0.344952 0.383316 0.718624
C4    C     C_R   0.385100 0.844952 0.616684 0.718624
O9    O     O_3   0.505200 0.340120 0.563670 -0.370425
O10   O     O_3   0.494800 0.840120 0.436330 -0.370424
V1    V     V_3+5 0.499040 0.064180 0.488190 1.497572
V2    V     V_3+5 0.500960 0.564180 0.511810 1.497572
C5    C     C_R   0.251317 0.006539 0.675769 0.070158
C6    C     C_R   0.748682 0.506539 0.324230 0.070159
C7    C     C_R   0.314357 0.854303 0.682110 -0.108738
C8    C     C_R   0.685643 0.354303 0.317890 -0.108739
C9    C     C_R   0.308473 0.711056 0.753916 -0.111117
C10   C     C_R   0.691528 0.211055 0.246084 -0.111116
H1    H     H_    0.356619 0.592958 0.763288 0.146501
H2    H     H_    0.643382 0.092956 0.236713 0.146501
C11   C     C_R   0.244202 0.725803 0.819078 -0.098796
C12   C     C_R   0.755798 0.225802 0.180923 -0.098797
H3    H     H_    0.245295 0.625116 0.878690 0.167684
H4    H     H_    0.754706 0.125115 0.121311 0.167684
C13   C     C_R   0.181581 0.877356 0.812738 -0.092729
C14   C     C_R   0.818419 0.377356 0.187262 -0.092730
C15   C     C_R   0.188891 0.019744 0.742232 0.077551
C16   C     C_R   0.811109 0.519744 0.257768 0.077551
C17   C     C_3   0.210130 0.225440 0.762957 0.183083
C18   C     C_3   0.789870 0.725441 0.237042 0.183082
C19   C     C_3   0.271765 0.215886 0.683595 -0.056691
C20   C     C_3   0.728234 0.715886 0.316404 -0.056692
H5    H     H_    0.345304 0.245242 0.713358 0.130290
H6    H     H_    0.654696 0.745242 0.286641 0.130290
C21   C     C_1   0.783010 0.877234 0.783555 -0.129808
C22   C     C_1   0.216989 0.377234 0.216445 -0.129808
C23   C     C_1   0.715351 0.860200 0.717824 -0.129925
C24   C     C_1   0.284649 0.360200 0.282176 -0.129925
O11   O     O_R   0.101720 0.231700 0.098560 -0.530936
O12   O     O_R   0.898280 0.731700 0.901440 -0.530936
O13   O     O_R   0.914700 0.558980 0.095690 -0.524793
O14   O     O_R   0.085300 0.058980 0.904310 -0.524793
C25   C     C_R   0.885444 0.389868 0.117225 0.739317
C26   C     C_R   0.114556 0.889868 0.882775 0.739316
O15   O     O_R   0.102080 0.561590 0.110390 -0.537584
O16   O     O_R   0.897920 0.061590 0.889610 -0.537584
O17   O     O_R   0.086950 0.728940 0.916330 -0.536537
O18   O     O_R   0.913050 0.228940 0.083670 -0.536537
C27   C     C_R   0.136066 0.391978 0.137202 0.757179
C28   C     C_R   0.863934 0.891978 0.862798 0.757180
O19   O     O_3   0.994770 0.394510 0.936380 -0.357968
O20   O     O_3   0.005230 0.894510 0.063620 -0.357968
V3    V     V_3+5 0.000970 0.670520 0.011800 1.551168
V4    V     V_3+5 0.999030 0.170520 0.988200 1.551168
I1    I     I_    0.290648 0.253070 0.912935 -0.481974
I2    I     I_    0.709351 0.753069 0.087064 -0.481974
I3    I     I_    0.084318 0.388146 0.731747 -0.268375
I4    I     I_    0.915681 0.888146 0.268253 -0.268375
I5    I     I_    0.223266 0.352317 0.542201 -0.316391
I6    I     I_    0.776733 0.852318 0.457798 -0.316392

loop_
_geom_bond_atom_site_label_1
_geom_bond_atom_site_label_2
_ccdc_geom_bond_type
O4    V2    S    
C14   C16   A    
C1    C24   S    
C15   C17   S    
C12   C14   A    
C25   O18   A    
O17   V3    S    
C11   H3    S    
O19   V3    S    
C12   H4    S    
O1    C3    A    
O12   V3    S    
O6    C4    A    
O2    C4    A    
O3    C1    A    
C2    O7    A    
O5    V1    S    
C20   I6    S    
O7    V1    S    
O15   V3    S    
C1    O8    A    
C17   I1    S    
O1    V2    S    
O8    V2    S    
O14   V4    S    
C18   I2    S    
O2    V1    S    
O13   V3    S    
O16   C28   A    
O13   C25   A    
O18   V4    S    
C17   I3    S    
O15   C27   A    
C4    C7    S    
O4    C2    A    
C17   C19   S    
C18   C20   S    
O20   V4    S    
O5    C3    A    
C6    C8    A    
O9    V1    S    
C9    H1    S    
C11   C13   A    
C5    C15   A    
O10   V2    S    
C3    C8    S    
O19   V4    S    
C21   C28   S    
C6    C16   A    
C13   C26   S    
C20   H6    S    
O16   V4    S    
O14   C26   A    
O12   C28   A    
C14   C25   S    
C18   I4    S    
O3    V1    S    
O20   V3    S    
C21   C23   T    
O6    V2    S    
C22   C27   S    
C10   C12   A    
O9    V2    S    
C9    C11   A    
O10   V1    S    
C5    C7    A    
C19   I5    S    
C5    C19   S    
O11   V4    S    
C19   H5    S    
C13   C15   A    
C6    C20   S    
O11   C27   A    
C26   O17   A    
C10   H2    S    
C8    C10   A    
C22   C24   T    
C7    C9    A    
C2    C23   S    
C16   C18   S    
