data_mof_unit_38054.cif
_audit_creation_date              2012-12-10T20:25:38-0500
_audit_creation_method            fapswitch 2.2
_symmetry_space_group_name_H-M    P1
_symmetry_Int_Tables_number       1
_space_group_crystal_system       triclinic
_cell_length_a                    8.5914
_cell_length_b                    10.676148
_cell_length_c                    9.903313
_cell_angle_alpha                 90.277098
_cell_angle_beta                  98.570006
_cell_angle_gamma                 90.667124
_cell_volume                      898.139137141

loop_
_atom_site_label
_atom_site_type_symbol
_atom_type_description
_atom_site_fract_x
_atom_site_fract_y
_atom_site_fract_z
_atom_type_partial_charge
C1    C     C_R   0.504318 0.260108 0.500428 0.881398
C2    C     C_R   0.566427 0.935241 0.390298 -0.208521
C3    C     C_R   0.529128 0.871606 0.505168 -0.115652
C4    C     C_R   0.520259 0.936844 0.625642 0.150299
C5    C     C_3   0.399536 0.928921 0.719655 -0.456866
C6    C     C_3   0.399241 0.070831 0.719427 -0.491104
C7    C     C_R   0.427270 0.405536 0.061257 0.207237
C8    C     C_R   0.584604 0.586030 0.084860 -0.101620
C9    C     C_R   0.586773 0.586515 0.941293 -0.000180
C10   C     C_R   0.426370 0.405914 0.918997 0.198906
C11   C     C_3   0.255489 0.372418 0.893069 -0.497814
C12   C     C_R   0.201310 0.500333 0.464171 0.971531
C13   C     C_3   0.257572 0.370002 0.046504 -0.493847
C14   C     C_R   0.504948 0.739920 0.500866 0.873353
C15   C     C_R   0.798581 0.501441 0.535629 0.960472
C16   C     C_2   0.036017 0.499558 0.444715 -0.379430
C17   C     C_2   0.963579 0.505847 0.554188 -0.381649
C18   C     C_R   0.519795 0.064583 0.625280 0.152197
C19   C     C_R   0.528016 0.128801 0.504455 -0.113278
C20   C     C_R   0.565705 0.064829 0.389899 -0.219751
H1    H     H_    0.974376 0.492113 0.340676 0.181432
H2    H     H_    0.183151 0.449372 0.843595 0.213528
H3    H     H_    0.232708 0.279006 0.843859 0.201000
H4    H     H_    0.184408 0.444088 0.083944 0.221741
H5    H     H_    0.239594 0.274608 0.086400 0.203939
H6    H     H_    0.024848 0.515128 0.657626 0.168593
H7    H     H_    0.584322 0.113701 0.297909 0.177521
H8    H     H_    0.585550 0.885817 0.298492 0.184401
H9    H     H_    0.286497 0.886078 0.670282 0.201680
H10   H     H_    0.447792 0.889145 0.820515 0.234076
H11   H     H_    0.285957 0.110636 0.669979 0.199072
H12   H     H_    0.447893 0.112865 0.820037 0.212952
H13   H     H_    0.650968 0.655389 0.150564 0.185636
N1    N     N_R   0.498950 0.499140 0.142680 -0.130670
N2    N     N_R   0.498950 0.499180 0.857030 -0.154165
O1    O     O_R   0.500020 0.316790 0.614690 -0.613426
O2    O     O_R   0.500000 0.316760 0.385350 -0.623020
O3    O     O_R   0.271760 0.500010 0.587850 -0.612635
O4    O     O_R   0.271740 0.499970 0.358500 -0.621095
O5    O     O_R   0.500000 0.683240 0.614650 -0.647227
O6    O     O_R   0.499980 0.683210 0.385310 -0.621576
O7    O     O_R   0.728260 0.500030 0.641500 -0.657512
O8    O     O_R   0.728240 0.499990 0.412150 -0.613914
Zn1   Zn    Zn3+2 0.500010 0.500020 0.653130 0.928160
Zn2   Zn    Zn3+2 0.499990 0.499980 0.346870 0.943824
C21   C     C_2   0.686055 0.682407 0.886664 0.377114
H14   H     H_    0.721257 0.672643 0.787668 0.139740
O9    O     O_2   0.733513 0.774779 0.954457 -0.614847

loop_
_geom_bond_atom_site_label_1
_geom_bond_atom_site_label_2
_ccdc_geom_bond_type
C7    C10   A    
C6    H12   S    
O3    Zn1   S    
C16   H1    S    
C20   H7    S    
C11   C13   S    
O2    Zn2   S    
C11   H2    S    
C19   C20   A    
C1    O2    A    
O4    Zn2   S    
C4    C18   A    
C12   O4    A    
C7    C13   S    
C2    C3    A    
C15   O8    A    
C9    C21   S    
N1    Zn2   S    
C8    N1    A    
N2    Zn1   S    
O8    Zn2   S    
C13   H5    S    
C10   N2    A    
C3    C14   S    
O7    Zn1   S    
C14   O6    A    
C17   H6    S    
C11   H3    S    
C5    H10   S    
C5    H9    S    
C8    H13   S    
C12   O3    A    
C5    C6    S    
C6    C18   S    
C7    N1    A    
C21   O9    D    
O1    Zn1   S    
C1    C19   S    
C10   C11   S    
C14   O5    A    
C3    C4    A    
C6    H11   S    
C16   C17   D    
O5    Zn1   S    
C15   O7    A    
C15   C17   S    
C18   C19   A    
C9    N2    A    
O6    Zn2   S    
C21   H14   S    
C8    C9    A    
C2    H8    S    
C1    O1    A    
C2    C20   A    
C12   C16   S    
C13   H4    S    
C4    C5    S    
