data_mof_unit_33931.cif
_audit_creation_date              2012-12-11T18:39:41-0500
_audit_creation_method            fapswitch 2.2
_symmetry_space_group_name_H-M    P1
_symmetry_Int_Tables_number       1
_space_group_crystal_system       triclinic
_cell_length_a                    8.24372
_cell_length_b                    14.446873
_cell_length_c                    19.081726
_cell_angle_alpha                 97.215517
_cell_angle_beta                  91.807058
_cell_angle_gamma                 91.201868
_cell_volume                      2252.72590617

loop_
_atom_site_label
_atom_site_type_symbol
_atom_type_description
_atom_site_fract_x
_atom_site_fract_y
_atom_site_fract_z
_atom_type_partial_charge
Ba1   Ba    Ba6+2 0.843770 0.541130 0.463760 1.661476
Ba2   Ba    Ba6+2 0.346040 0.458940 0.536250 1.682889
C1    C     C_3   0.619255 0.887573 0.284431 -0.246293
C2    C     C_3   0.599738 0.791017 0.308260 0.353630
C3    C     C_3   0.507689 0.312014 0.324636 0.305404
C4    C     C_3   0.488829 0.284327 0.245214 -0.382222
C5    C     C_3   0.146664 0.277328 0.736684 0.356509
C6    C     C_3   0.161080 0.254344 0.812250 -0.288156
C7    C     C_3   0.656647 0.220459 0.737523 0.460965
C8    C     C_3   0.651282 0.155485 0.794972 0.307493
C9    C     C_R   0.041656 0.556078 0.799609 -0.150512
C10   C     C_R   0.009772 0.537373 0.725488 0.042093
C11   C     C_R   0.865190 0.426831 0.815900 -0.144165
C12   C     C_3   0.076932 0.743792 0.265208 0.328782
C13   C     C_R   0.795571 0.432876 0.748909 0.040308
C14   C     C_R   0.315272 0.581315 0.187528 -0.169898
C15   C     C_R   0.388205 0.573595 0.253617 0.008090
C16   C     C_R   0.147668 0.446430 0.200981 -0.148320
C17   C     C_R   0.180674 0.462996 0.274916 0.055114
C18   C     C_R   0.981548 0.494556 0.846826 -0.019052
C19   C     C_R   0.880320 0.478159 0.701369 -0.261719
C20   C     C_R   0.203095 0.511565 0.155358 0.005366
C21   C     C_R   0.309975 0.522193 0.299588 -0.241461
C22   C     C_R   0.765333 0.449323 0.963121 -0.087786
C23   C     C_3   0.040824 0.772417 0.192350 -0.339287
C24   C     C_R   0.668649 0.410000 0.010337 -0.073142
C25   C     C_R   0.717895 0.417760 0.080445 -0.058242
C26   C     C_R   0.866782 0.460154 0.101443 -0.077796
C27   C     C_R   0.983820 0.480066 0.052591 0.020012
C28   C     C_R   0.930250 0.475754 0.979571 0.044363
C29   C     C_R   0.146585 0.507756 0.076240 -0.011686
C30   C     C_R   0.253276 0.533009 0.023110 0.036953
C31   C     C_R   0.200553 0.526761 0.949850 0.010665
C32   C     C_R   0.037549 0.499676 0.926211 -0.004287
C33   C     C_R   0.416993 0.562213 0.039897 -0.084756
C34   C     C_3   0.254688 0.759715 0.650443 0.302156
C35   C     C_R   0.512893 0.600914 0.992082 -0.078886
C36   C     C_R   0.465724 0.589087 0.921628 -0.011852
C37   C     C_R   0.318732 0.544156 0.900870 -0.050096
C38   C     C_R   0.699594 0.946328 0.545915 -0.020327
C39   C     C_R   0.509979 0.806054 0.504796 0.000752
C40   C     C_R   0.366535 0.771819 0.469021 -0.267035
C41   C     C_R   0.263440 0.829925 0.437520 0.024307
C42   C     C_R   0.309192 0.923505 0.436941 -0.139809
C43   C     C_R   0.456788 0.959849 0.470310 0.009362
C44   C     C_R   0.557657 0.902893 0.508244 -0.033932
C45   C     C_3   0.304695 0.836857 0.710005 0.383564
C46   C     C_R   0.644624 0.094098 0.500185 -0.004778
C47   C     C_R   0.746296 0.039335 0.538509 -0.001769
C48   C     C_R   0.688914 0.189171 0.498262 0.030309
C49   C     C_R   0.829665 0.227740 0.534214 -0.275114
C50   C     C_R   0.936199 0.172050 0.566641 -0.004563
C51   C     C_R   0.895422 0.079140 0.569073 -0.153599
C52   C     C_R   0.501518 0.053300 0.466428 -0.034665
C53   C     C_3   0.011663 0.249254 0.387708 0.312363
C54   C     C_3   0.011042 0.143123 0.373634 -0.381680
C55   C     C_3   0.690802 0.668950 0.670757 0.287401
C56   C     C_3   0.740043 0.701205 0.747732 -0.311723
H1    H     H_    0.670741 0.790607 0.358704 0.080353
H2    H     H_    0.427697 0.862837 0.699726 0.050636
H3    H     H_    0.219924 0.895654 0.709979 0.083041
H4    H     H_    0.888264 0.272329 0.400754 -0.002188
H5    H     H_    0.097592 0.272098 0.432799 0.064642
H6    H     H_    0.920250 0.118039 0.330848 0.129915
H7    H     H_    0.979959 0.112125 0.421857 0.059316
H8    H     H_    0.133155 0.119321 0.357480 0.121021
H9    H     H_    0.795148 0.636420 0.643274 0.027246
H10   H     H_    0.589817 0.616842 0.668895 0.085448
H11   H     H_    0.748208 0.901478 0.273196 0.122943
H12   H     H_    0.863636 0.733396 0.751222 0.167923
H13   H     H_    0.737580 0.641378 0.778878 0.051159
H14   H     H_    0.656166 0.754397 0.771415 0.216179
H15   H     H_    0.469327 0.778421 0.318038 -0.104623
H16   H     H_    0.581953 0.941642 0.327066 0.032612
H17   H     H_    0.389366 0.336331 0.344881 0.010330
H18   H     H_    0.599348 0.369964 0.334473 0.073035
H19   H     H_    0.392599 0.229131 0.233229 0.135181
H20   H     H_    0.454800 0.345890 0.219076 0.054062
H21   H     H_    0.605260 0.257827 0.223918 0.129594
H22   H     H_    0.087189 0.719736 0.150860 0.078424
H23   H     H_    0.235322 0.334130 0.730319 0.099648
H24   H     H_    0.023770 0.302469 0.726931 -0.035791
H25   H     H_    0.140412 0.317572 0.849913 0.041344
H26   H     H_    0.069781 0.199433 0.820381 0.129049
H27   H     H_    0.284432 0.229419 0.823378 0.181049
H28   H     H_    0.777641 0.255568 0.744641 -0.315226
H29   H     H_    0.651474 0.181485 0.683156 0.054919
H30   H     H_    0.776423 0.130824 0.805056 0.002409
H31   H     H_    0.018313 0.674145 0.267310 0.078090
H32   H     H_    0.610943 0.193881 0.845717 0.020592
H33   H     H_    0.117233 0.615804 0.819326 0.168144
H34   H     H_    0.823778 0.370234 0.843322 0.067725
H35   H     H_    0.353456 0.639564 0.161121 0.080376
H36   H     H_    0.073001 0.385934 0.180731 0.066943
H37   H     H_    0.839113 0.471879 0.646547 0.060526
H38   H     H_    0.354846 0.524698 0.353715 0.066433
H39   H     H_    0.702476 0.463348 0.915795 0.068180
H40   H     H_    0.546916 0.384497 0.994301 0.080019
H41   H     H_    0.635289 0.398141 0.119379 0.080725
H42   H     H_    0.210415 0.739869 0.272753 -0.048443
H43   H     H_    0.886196 0.478760 0.156565 0.130323
H44   H     H_    0.480360 0.550431 0.087699 0.082440
H45   H     H_    0.633619 0.628220 0.008066 0.090463
H46   H     H_    0.549262 0.607144 0.882542 0.114126
H47   H     H_    0.301425 0.521528 0.846028 0.131703
H48   H     H_    0.330687 0.699136 0.468135 0.064617
H49   H     H_    0.229359 0.967958 0.410698 0.070826
H50   H     H_    0.982931 0.038821 0.594901 0.092524
H51   H     H_    0.861744 0.300582 0.533217 0.059448
H52   H     H_    0.907891 0.777773 0.183210 0.152059
H53   H     H_    0.422770 0.093713 0.436333 0.086191
H54   H     H_    0.100198 0.841131 0.188146 0.137138
H55   H     H_    0.356123 0.712734 0.639429 0.018400
H56   H     H_    0.229230 0.792345 0.601782 -0.091580
O1    O     O_2   0.890230 0.433890 0.328780 -0.470750
O2    O     O_3   0.641027 0.746551 0.639534 -0.650721
O3    O     O_3   0.015021 0.810644 0.316499 -0.600385
O4    O     O_2   0.299470 0.566150 0.671260 -0.460740
O5    O     O_3   0.053110 0.557700 0.582890 -0.483252
O6    O     O_3   0.553300 0.392440 0.634370 -0.456933
O7    O     O_3   0.111992 0.714970 0.667822 -0.598772
O8    O     O_3   0.638180 0.384440 0.468210 -0.487057
O9    O     O_3   0.143740 0.341320 0.600540 -0.508121
O10   O     O_2   0.272839 0.175935 0.560728 -0.451517
O11   O     O_3   0.176441 0.197270 0.689634 -0.538246
O12   O     O_3   0.136580 0.442380 0.417110 -0.497126
O13   O     O_3   0.551510 0.615640 0.531790 -0.500197
O14   O     O_2   0.394780 0.268760 0.474430 -0.464369
O15   O     O_3   0.557493 0.234553 0.356682 -0.646260
O16   O     O_2   0.466136 0.461659 0.757777 -0.510904
O17   O     O_3   0.526372 0.282277 0.745807 -0.608187
O18   O     O_3   0.636390 0.607640 0.365630 -0.476986
O19   O     O_2   0.717127 0.543475 0.240444 -0.504568
O20   O     O_3   0.058544 0.285077 0.326544 -0.632662
O21   O     O_3   0.658459 0.723039 0.256449 -0.600279
O22   O     O_2   0.794910 0.731270 0.525620 -0.435022
O23   O     O_3   0.045950 0.658760 0.399470 -0.484951
O24   O     O_2   0.930490 0.826207 0.445724 -0.483642
P1    P     P_3+3 0.064140 0.407250 0.340900 0.973472
P2    P     P_3+3 0.622060 0.719380 0.547490 0.965774
P3    P     P_3+3 0.066028 0.780733 0.400329 0.957831
P4    P     P_3+3 0.125560 0.592830 0.659110 1.043149
P5    P     P_3+3 0.132511 0.221075 0.603393 0.999612
P6    P     P_3+3 0.597989 0.613187 0.276924 0.938616
P7    P     P_3+3 0.573127 0.267177 0.448174 0.932674
P8    P     P_3+3 0.587821 0.391406 0.723873 0.946410
S1    S     S_3+6 0.304733 0.796836 0.795372 -0.056168
O25   O     O_2   0.369931 0.700071 0.790419 -0.382624
O26   O     O_2   0.133820 0.796306 0.820732 -0.306329
O27   O     O_3   0.421199 0.867634 0.854058 -0.405840
H57   H     H_    0.407060 0.843066 0.899797 0.358834
C57   C     C_1   0.518049 0.894263 0.220588 0.301366
N1    N     N_1   0.438256 0.899263 0.170210 -0.282385
S2    S     S_3+6 0.521726 0.055006 0.770232 -0.063700
O28   O     O_2   0.383606 0.055339 0.820269 -0.221589
O29   O     O_2   0.453719 0.052078 0.695586 -0.342463
O30   O     O_3   0.634306 0.960331 0.777085 -0.466131
H58   H     H_    0.683611 0.946587 0.730213 0.329524
C58   C     C_1   0.798434 0.903300 0.596336 0.327226
N2    N     N_1   0.883522 0.872969 0.636756 -0.258974

loop_
_geom_bond_atom_site_label_1
_geom_bond_atom_site_label_2
_ccdc_geom_bond_type
O18   P6    S    
C53   C54   S    
O6    P8    S    
O30   H58   S    
O16   P8    D    
C6    H25   S    
C39   C40   A    
C38   C58   S    
O3    P3    S    
S1    O25   D    
O22   P2    D    
C33   H44   S    
C34   H56   S    
C8    S2    S    
Ba2   O4    S    
C5    C6    S    
Ba2   O9    S    
C42   C43   A    
C38   C44   A    
C25   H41   S    
C14   H35   S    
C31   C37   A    
O17   P8    S    
C15   P6    S    
C26   C27   A    
C1    H11   S    
C22   C24   A    
C6    H27   S    
C36   C37   A    
C54   H8    S    
O14   P7    D    
C4    H20   S    
C38   C47   A    
C23   H22   S    
C53   H4    S    
C21   H38   S    
C34   C45   S    
Ba1   Ba2   S    
Ba1   O5    S    
O8    P7    S    
C1    H16   S    
Ba1   O8    S    
C39   P2    S    
C36   H46   S    
C23   H54   S    
C45   H2    S    
C26   H43   S    
C58   N2    T    
C14   C15   A    
C53   H5    S    
Ba2   O8    S    
C39   C44   A    
C54   H6    S    
O10   P5    D    
C3    H17   S    
Ba1   O22   S    
C7    C8    S    
O15   P7    S    
Ba1   P1    S    
C18   C32   S    
Ba2   O13   S    
Ba1   O18   S    
C3    O15   S    
C49   H51   S    
C16   C20   A    
C55   H9    S    
C34   H55   S    
C4    H21   S    
C48   C49   A    
C55   O2    S    
C7    O17   S    
O12   P1    S    
C45   S1    S    
C9    C18   A    
C50   P5    S    
C20   C29   S    
C28   C32   A    
C49   C50   A    
C30   C33   A    
S1    O27   S    
Ba1   O12   S    
S2    O30   S    
O20   P1    S    
C35   H45   S    
Ba2   O6    S    
C16   C17   A    
C4    H19   S    
C19   H37   S    
C43   C44   A    
C10   C19   A    
C22   H39   S    
C46   C52   A    
C17   C21   A    
C41   C42   A    
C12   H31   S    
C35   C36   A    
C7    H28   S    
C29   C30   A    
Ba2   O5    S    
C12   O3    S    
C8    H30   S    
C31   C32   A    
C1    C57   S    
C15   C21   A    
C5    O11   S    
C40   H48   S    
Ba2   P4    S    
S2    O28   D    
C2    H15   S    
Ba1   P2    S    
C23   H52   S    
C24   H40   S    
C2    O21   S    
Ba2   O12   S    
C48   P7    S    
O21   P6    S    
C5    H23   S    
O1    P1    D    
C43   C52   A    
C11   C13   A    
C11   H34   S    
C24   C25   A    
C16   H36   S    
C41   P3    S    
C40   C41   A    
C55   H10   S    
C1    C2    S    
Ba1   O23   S    
C50   C51   A    
C33   C35   A    
C42   H49   S    
C37   H47   S    
O23   P3    S    
C46   C47   A    
O19   P6    D    
C14   C20   A    
C11   C18   A    
S1    O26   D    
C6    H26   S    
S2    O29   D    
O7    P4    S    
C56   H12   S    
Ba1   O13   S    
O4    P4    D    
O24   P3    D    
C45   H3    S    
C13   P8    S    
C9    C10   A    
C12   H42   S    
C53   O20   S    
C30   C31   A    
C3    H18   S    
C34   O7    S    
C27   C29   A    
C7    H29   S    
C51   H50   S    
C56   H14   S    
C55   C56   S    
C3    C4    S    
O11   P5    S    
C47   C51   A    
C2    H1    S    
C46   C48   A    
C10   P4    S    
C52   H53   S    
C12   C23   S    
C56   H13   S    
C22   C28   A    
C27   C28   A    
C9    H33   S    
C13   C19   A    
C5    H24   S    
C57   N1    T    
C8    H32   S    
C17   P1    S    
O13   P2    S    
O9    P5    S    
C25   C26   A    
O5    P4    S    
O27   H57   S    
Ba1   O1    S    
C54   H7    S    
O2    P2    S    
Ba2   O14   S    
