data_mof_unit_23331.cif
_audit_creation_date              2012-12-10T18:21:51-0500
_audit_creation_method            fapswitch 2.2
_symmetry_space_group_name_H-M    P1
_symmetry_Int_Tables_number       1
_space_group_crystal_system       triclinic
_cell_length_a                    19.356549
_cell_length_b                    10.727079
_cell_length_c                    9.495388
_cell_angle_alpha                 90.484091
_cell_angle_beta                  92.405797
_cell_angle_gamma                 86.995336
_cell_volume                      1967.13062579

loop_
_atom_site_label
_atom_site_type_symbol
_atom_type_description
_atom_site_fract_x
_atom_site_fract_y
_atom_site_fract_z
_atom_type_partial_charge
C1    C     C_R   0.502525 0.259841 0.499435 0.820390
C2    C     C_R   0.496755 0.740344 0.500282 0.824218
C3    C     C_3   0.553034 0.031945 0.578772 0.224430
C4    C     C_3   0.444884 0.968590 0.419047 0.227157
C5    C     C_3   0.556035 0.947881 0.448130 0.208515
C6    C     C_3   0.441904 0.053183 0.549212 0.211694
C7    C     C_3   0.495277 0.877259 0.501201 -0.156441
C8    C     C_3   0.502818 0.123443 0.497110 -0.159930
C9    C     C_3   0.491977 0.962690 0.634467 -0.255157
C10   C     C_3   0.505771 0.038713 0.363097 -0.257398
C11   C     C_3   0.537573 0.584254 0.052958 0.261819
C12   C     C_3   0.462521 0.414960 0.947257 0.304808
C13   C     C_3   0.476088 0.604391 0.950372 0.284468
C14   C     C_3   0.524137 0.394944 0.050061 0.289119
C15   C     C_3   0.562804 0.479407 0.953976 -0.154158
C16   C     C_3   0.437255 0.520390 0.046104 -0.121714
C17   C     C_R   0.367273 0.506032 0.497142 0.865791
C18   C     C_R   0.632738 0.495332 0.503006 0.861439
C19   C     C_R   0.259952 0.445941 0.601808 -0.321233
C20   C     C_R   0.739826 0.562106 0.402590 -0.327179
C21   C     C_R   0.188313 0.439556 0.607407 0.442261
C22   C     C_R   0.811526 0.568655 0.397252 0.459109
C23   C     C_R   0.145372 0.493950 0.499181 -0.191163
C24   C     C_R   0.854613 0.508049 0.501035 -0.188054
C25   C     C_R   0.174328 0.557296 0.388300 0.111341
C26   C     C_R   0.825817 0.442707 0.610352 0.111019
C27   C     C_R   0.246629 0.569085 0.386217 0.445814
C28   C     C_R   0.753377 0.432891 0.613659 0.445451
C29   C     C_R   0.290439 0.508453 0.492551 -0.298819
C30   C     C_R   0.709519 0.495304 0.508655 -0.298497
C31   C     C_R   0.930110 0.509025 0.496022 0.505849
C32   C     C_R   0.069895 0.492671 0.503978 0.513213
Cu1   Cu    Cu3+1 0.500020 0.499990 0.643150 1.009929
Cu2   Cu    Cu3+1 0.499980 0.500010 0.356850 1.000026
H1    H     H_    0.292542 0.400811 0.683941 0.235307
H2    H     H_    0.706993 0.610732 0.323394 0.232349
H3    H     H_    0.614795 0.466400 0.911886 0.230715
H4    H     H_    0.384997 0.532203 0.087335 0.228523
H5    H     H_    0.484145 0.942010 0.745932 0.155124
H6    H     H_    0.511587 0.069089 0.253207 0.181831
N1    N     N_R   0.035559 0.568111 0.595855 -0.188918
N2    N     N_R   0.964428 0.433198 0.404512 -0.181209
N3    N     N_R   0.966706 0.575511 0.592525 -0.209270
N4    N     N_R   0.033292 0.426054 0.407525 -0.205863
N5    N     N_3   0.500050 0.499970 0.858290 -0.219894
N6    N     N_3   0.499950 0.500030 0.141710 -0.226136
O1    O     O_R   0.500030 0.316850 0.620870 -0.552967
O2    O     O_R   0.499970 0.683150 0.379130 -0.545742
O3    O     O_R   0.500000 0.316860 0.379090 -0.597259
O4    O     O_R   0.500000 0.683140 0.620910 -0.590724
O5    O     O_R   0.400160 0.499980 0.620930 -0.558573
O6    O     O_R   0.599840 0.500020 0.379070 -0.577318
O7    O     O_R   0.400130 0.499990 0.379150 -0.531665
O8    O     O_R   0.599870 0.500010 0.620850 -0.533501
S1    S     S_3+6 0.153713 0.362418 0.750859 0.014484
O9    O     O_2   0.209154 0.283963 0.828894 -0.305787
O10   O     O_2   0.123637 0.458998 0.849724 -0.268758
O11   O     O_3   0.090899 0.270435 0.691319 -0.529060
H7    H     H_    0.065488 0.250104 0.775855 0.377625
S2    S     S_3+6 0.846376 0.656845 0.262768 -0.004788
O12   O     O_2   0.888832 0.571213 0.170311 -0.292351
O13   O     O_2   0.789834 0.722872 0.174363 -0.330141
O14   O     O_3   0.897487 0.763050 0.337537 -0.534495
H8    H     H_    0.916135 0.807324 0.257454 0.375788
N7    N     N_2   0.130697 0.609533 0.276467 -0.361983
H9    H     H_    0.103042 0.545618 0.218932 0.292864
C33   C     C_3   0.090825 0.723535 0.308805 -0.486757
H10   H     H_    0.037974 0.701884 0.338509 0.225109
H11   H     H_    0.086177 0.783439 0.213835 0.245451
H12   H     H_    0.116132 0.776484 0.396112 0.237142
N8    N     N_2   0.870282 0.380537 0.714423 -0.388476
H13   H     H_    0.912592 0.329953 0.677289 0.267709
C34   C     C_3   0.884944 0.450547 0.842448 -0.404469
H14   H     H_    0.939104 0.480131 0.845084 0.222238
H15   H     H_    0.878882 0.389866 0.934695 0.257974
H16   H     H_    0.849359 0.534824 0.851759 0.242522
S3    S     S_3+6 0.275814 0.666464 0.251835 -0.036531
O15   O     O_2   0.235459 0.789928 0.256261 -0.326137
O16   O     O_2   0.351050 0.691737 0.265875 -0.323684
O17   O     O_3   0.258831 0.597249 0.095275 -0.533454
H17   H     H_    0.241194 0.665227 0.031341 0.382076
S4    S     S_3+6 0.723946 0.332246 0.744444 -0.042629
O18   O     O_2   0.735356 0.392189 0.886593 -0.346933
O19   O     O_2   0.649381 0.303584 0.724494 -0.322775
O20   O     O_3   0.771724 0.196677 0.739868 -0.525118
H18   H     H_    0.776341 0.168070 0.838881 0.372061
N9    N     N_2   0.617462 0.885215 0.392923 -0.428450
H19   H     H_    0.636660 0.809715 0.451522 0.248469
C35   C     C_3   0.670446 0.964485 0.348076 -0.634015
H20   H     H_    0.703023 0.912931 0.271550 0.265505
H21   H     H_    0.704687 0.989871 0.439183 0.240299
H22   H     H_    0.647351 0.050345 0.296671 0.218944
N10   N     N_2   0.380579 0.116609 0.603901 -0.434159
H23   H     H_    0.361768 0.192265 0.545100 0.248986
C36   C     C_3   0.327170 0.038248 0.648566 -0.636265
H24   H     H_    0.295312 0.089961 0.726312 0.266202
H25   H     H_    0.349817 0.951442 0.698571 0.227455
H26   H     H_    0.292550 0.014292 0.557421 0.236171
N11   N     N_2   0.613116 0.065753 0.662672 -0.370080
H27   H     H_    0.649551 0.104303 0.603065 0.303943
C37   C     C_3   0.642102 0.970353 0.757653 -0.634139
H28   H     H_    0.687750 0.005377 0.817093 0.252825
H29   H     H_    0.658554 0.885088 0.698117 0.216581
H30   H     H_    0.603497 0.947238 0.835147 0.208880
N12   N     N_2   0.384816 0.931804 0.337082 -0.376783
H31   H     H_    0.349029 0.892421 0.397707 0.299592
C38   C     C_3   0.354981 0.024146 0.239512 -0.615754
H32   H     H_    0.308210 0.988243 0.184862 0.274098
H33   H     H_    0.392646 0.042462 0.158410 0.210253
H34   H     H_    0.340143 0.112040 0.295883 0.216041
N13   N     N_2   0.453141 0.724107 0.892569 -0.410676
H35   H     H_    0.494842 0.772192 0.864366 0.247233
C39   C     C_3   0.406674 0.798681 0.978123 -0.648773
H36   H     H_    0.395968 0.891787 0.929648 0.204462
H37   H     H_    0.430246 0.812034 0.085397 0.261657
H38   H     H_    0.356858 0.753003 0.984539 0.279771
N14   N     N_2   0.552704 0.278921 0.110604 -0.429782
H39   H     H_    0.586444 0.293628 0.195223 0.282496
C40   C     C_3   0.582667 0.189933 0.012397 -0.675231
H40   H     H_    0.592693 0.098445 0.064911 0.208537
H41   H     H_    0.632677 0.222140 0.977541 0.289770
H42   H     H_    0.547341 0.175949 0.919659 0.256729
N15   N     N_2   0.578764 0.681025 0.114776 -0.395929
H43   H     H_    0.549304 0.756337 0.151111 0.278255
C41   C     C_3   0.635003 0.716425 0.030649 -0.657453
H44   H     H_    0.657890 0.801209 0.075912 0.250539
H45   H     H_    0.616303 0.736557 0.920694 0.197373
H46   H     H_    0.675806 0.639775 0.029888 0.283801
N16   N     N_2   0.418878 0.321331 0.886131 -0.401298
H47   H     H_    0.445466 0.251909 0.832453 0.284025
C42   C     C_3   0.370601 0.273422 0.981536 -0.647665
H48   H     H_    0.346456 0.190531 0.934142 0.243614
H49   H     H_    0.328952 0.345621 0.001845 0.282635
H50   H     H_    0.397701 0.246169 0.082852 0.219667

loop_
_geom_bond_atom_site_label_1
_geom_bond_atom_site_label_2
_ccdc_geom_bond_type
N9    H19   S    
N10   H23   S    
C31   N2    A    
C27   C29   A    
C1    C8    S    
Cu1   N5    S    
C34   H14   S    
C36   H24   S    
S1    O9    D    
C42   H50   S    
C17   O5    A    
C6    C9    S    
C36   H26   S    
C18   O6    A    
N15   H43   S    
C14   N6    S    
C20   C30   A    
S3    O15   D    
N12   C38   S    
C37   H28   S    
C31   N3    A    
S2    O14   S    
C10   H6    S    
C38   H34   S    
C19   C21   A    
C24   C26   A    
N16   H47   S    
N14   C40   S    
C22   S2    S    
N15   C41   S    
C9    H5    S    
C17   C29   S    
S2    O13   D    
C15   H3    S    
C2    O4    A    
C2    C7    S    
C11   C15   S    
C12   C16   S    
N7    C33   S    
C41   H46   S    
C38   H32   S    
Cu2   N6    S    
C35   H21   S    
C3    C5    S    
C39   H38   S    
C6    N10   S    
S3    O16   D    
N10   C36   S    
C26   N8    S    
N1    N3    A    
N2    N4    A    
C4    C7    S    
C40   H41   S    
C12   N16   S    
C28   S4    S    
C33   H10   S    
C25   N7    S    
C4    C6    S    
C3    C8    S    
C16   N6    S    
C5    C7    S    
C1    O1    A    
C6    C8    S    
C27   S3    S    
Cu1   O4    S    
O20   H18   S    
S2    O12   D    
C33   H11   S    
C5    N9    S    
C3    C9    S    
N11   H27   S    
C32   N1    A    
C14   N14   S    
Cu1   Cu2   S    
C32   N4    A    
N13   C39   S    
C35   H22   S    
C18   C30   S    
N11   C37   S    
C12   C14   S    
N7    H9    S    
C37   H30   S    
S4    O19   D    
S1    O10   D    
C41   H44   S    
Cu1   O1    S    
C34   H16   S    
C22   C24   A    
S1    O11   S    
Cu2   O2    S    
C34   H15   S    
C4    C10   S    
C42   H48   S    
C19   C29   A    
C17   O7    A    
N8    C34   S    
C39   H36   S    
N12   H31   S    
S3    O17   S    
Cu1   O8    S    
C7    C9    S    
Cu2   O3    S    
N13   H35   S    
C26   C28   A    
C11   N15   S    
C20   C22   A    
O17   H17   S    
C42   H49   S    
C40   H40   S    
C36   H25   S    
C12   N5    S    
Cu1   O5    S    
S4    O20   S    
C4    N12   S    
Cu2   O6    S    
C37   H29   S    
C33   H12   S    
C2    O2    A    
C23   C32   S    
C21   C23   A    
O11   H7    S    
C24   C31   S    
N8    H13   S    
C13   N13   S    
C19   H1    S    
N14   H39   S    
C13   N5    S    
C11   C13   S    
C38   H33   S    
C21   S1    S    
C28   C30   A    
C40   H42   S    
C23   C25   A    
C18   O8    A    
O14   H8    S    
C20   H2    S    
C3    N11   S    
C5    C10   S    
Cu2   O7    S    
C8    C10   S    
S4    O18   D    
C13   C16   S    
C41   H45   S    
N9    C35   S    
C15   N5    S    
C14   C15   S    
C11   N6    S    
N16   C42   S    
C35   H20   S    
C1    O3    A    
C16   H4    S    
C39   H37   S    
C25   C27   A    
