data_mof_unit_55355.cif
_audit_creation_date              2013-03-05T15:49:54-0500
_audit_creation_method            fapswitch 2.2
_symmetry_space_group_name_H-M    P1
_symmetry_Int_Tables_number       1
_space_group_crystal_system       triclinic
_cell_length_a                    27.829954
_cell_length_b                    12.986401
_cell_length_c                    11.682002
_cell_angle_alpha                 100.074374
_cell_angle_beta                  94.104454
_cell_angle_gamma                 90.769293
_cell_volume                      4144.79751136

loop_
_atom_site_label
_atom_site_type_symbol
_atom_site_description
_atom_site_fract_x
_atom_site_fract_y
_atom_site_fract_z
_atom_type_partial_charge
O1    O     O_R   0.502540 0.354460 0.582000 -0.590286
O2    O     O_R   0.497460 0.645540 0.418000 -0.596420
O3    O     O_R   0.496500 0.341410 0.386200 -0.593679
O4    O     O_R   0.503500 0.658590 0.613800 -0.533866
C1    C     C_R   0.499154 0.298984 0.478490 0.785583
C2    C     C_R   0.500600 0.700975 0.521617 0.801476
O5    O     O_R   0.433290 0.506540 0.597890 -0.582204
O6    O     O_R   0.566710 0.493460 0.402110 -0.586818
O7    O     O_R   0.427240 0.493490 0.402090 -0.531309
O8    O     O_R   0.572760 0.506510 0.597910 -0.554488
C3    C     C_R   0.407429 0.502697 0.500621 0.790768
C4    C     C_R   0.592489 0.497906 0.499699 0.784910
Cu1   Cu    Cu3+1 0.503580 0.507730 0.615930 0.977735
Cu2   Cu    Cu3+1 0.496420 0.492270 0.384070 0.958657
C5    C     C_R   0.176543 0.413408 0.478855 0.557983
C6    C     C_R   0.822591 0.604461 0.509865 0.555101
O9    O     O_2   0.201050 0.323870 0.471887 -0.496046
O10   O     O_2   0.798667 0.693595 0.540196 -0.500106
N1    N     N_R   0.201575 0.506487 0.491280 -0.470409
N2    N     N_R   0.797324 0.511170 0.484349 -0.468650
C7    C     C_R   0.178567 0.599417 0.499744 0.535312
C8    C     C_R   0.819978 0.418734 0.454062 0.532886
C9    C     C_R   0.280478 0.544694 0.599467 -0.141798
C10   C     C_R   0.725585 0.458696 0.572802 -0.139330
C11   C     C_R   0.330957 0.546597 0.604172 -0.040377
C12   C     C_R   0.675452 0.450900 0.576632 -0.041953
C13   C     C_R   0.326271 0.470013 0.397339 -0.231029
C14   C     C_R   0.666399 0.549897 0.417378 -0.236838
C15   C     C_R   0.276209 0.469513 0.394187 -0.122976
C16   C     C_R   0.716226 0.555239 0.413589 -0.108210
C17   C     C_R   0.253195 0.506583 0.495079 0.343933
C18   C     C_R   0.745996 0.509627 0.491160 0.329553
C19   C     C_R   0.101280 0.506723 0.483682 -0.110338
C20   C     C_R   0.897306 0.511962 0.478518 -0.110788
C21   C     C_R   0.125671 0.411112 0.474112 -0.122915
C22   C     C_R   0.873241 0.607295 0.506138 -0.124207
C23   C     C_R   0.098669 0.316612 0.460758 0.470556
C24   C     C_R   0.900429 0.701992 0.530239 0.470712
C25   C     C_R   0.128155 0.601372 0.496499 0.005465
C26   C     C_R   0.870210 0.417238 0.451797 0.008138
C27   C     C_R   0.354392 0.507387 0.501615 -0.087466
C28   C     C_R   0.645379 0.498411 0.498439 -0.089731
H1    H     H_    0.342962 0.439977 0.317851 0.205561
H2    H     H_    0.644143 0.586885 0.357086 0.162443
H3    H     H_    0.255186 0.440265 0.313095 0.140612
H4    H     H_    0.731743 0.594222 0.349677 0.143438
C29   C     C_R   0.972035 0.413855 0.455685 0.089071
C30   C     C_R   0.026319 0.605199 0.495657 0.087719
C31   C     C_R   0.975421 0.606449 0.500941 -0.022749
C32   C     C_R   0.023208 0.412580 0.464264 -0.021656
C33   C     C_R   0.948406 0.510859 0.478043 0.067885
C34   C     C_R   0.050101 0.508099 0.480884 0.068339
C35   C     C_R   0.943463 0.320992 0.424360 -0.212586
C36   C     C_R   0.054452 0.698074 0.503974 -0.211288
C37   C     C_R   0.893623 0.322839 0.422864 -0.153931
C38   C     C_R   0.104300 0.695999 0.504757 -0.151216
O11   O     O_2   0.793841 0.328327 0.426044 -0.548877
O12   O     O_2   0.204489 0.689687 0.510715 -0.543363
C39   C     C_R   0.048475 0.318532 0.458983 -0.307686
C40   C     C_R   0.950598 0.700431 0.530210 -0.306308
H5    H     H_    0.749083 0.422036 0.631032 0.148162
H6    H     H_    0.262136 0.574192 0.676877 0.142474
H7    H     H_    0.873474 0.249279 0.399317 0.180476
H8    H     H_    0.124134 0.769519 0.512022 0.184086
H9    H     H_    0.958459 0.245250 0.397844 0.134946
H10   H     H_    0.039017 0.774067 0.507499 0.137311
H11   H     H_    0.030377 0.244345 0.457053 0.153164
H12   H     H_    0.969152 0.774979 0.557132 0.155765
C41   C     C_R   0.500109 0.814431 0.534283 -0.052756
C42   C     C_R   0.498306 0.185406 0.466077 -0.052434
C43   C     C_R   0.499656 0.014297 0.345116 -0.212240
C44   C     C_R   0.497746 0.985377 0.655567 -0.242880
C45   C     C_R   0.500473 0.122467 0.356077 -0.218743
C46   C     C_R   0.499466 0.877231 0.644924 -0.184338
C47   C     C_R   0.495847 0.139372 0.565361 -0.287627
C48   C     C_R   0.499826 0.860393 0.434487 -0.269199
C49   C     C_R   0.497184 0.031343 0.555747 0.177823
C50   C     C_R   0.498703 0.968357 0.444535 0.186677
H13   H     H_    0.500832 0.812416 0.348832 0.150900
H14   H     H_    0.494229 0.187542 0.650647 0.152773
H15   H     H_    0.500153 0.842887 0.723033 0.170007
H16   H     H_    0.503150 0.156618 0.278649 0.137590
H17   H     H_    0.500354 0.966688 0.259436 0.129825
H18   H     H_    0.497256 0.032910 0.741517 0.126477
N3    N     N_R   0.508960 0.519350 0.790140 -0.231702
N4    N     N_R   0.491040 0.480650 0.209860 -0.247463
C51   C     C_R   0.455628 0.396809 0.019143 0.282376
C52   C     C_R   0.543026 0.603891 0.980924 0.260858
C53   C     C_R   0.457261 0.412824 0.143208 0.552185
C54   C     C_R   0.539592 0.593442 0.857138 0.532862
C55   C     C_R   0.520628 0.539877 0.157358 -0.048078
C56   C     C_R   0.481500 0.455439 0.841624 -0.018686
C57   C     C_R   0.517198 0.533761 0.034492 -0.142161
C58   C     C_R   0.485255 0.459872 0.964439 -0.165214
H19   H     H_    0.455959 0.402499 0.786063 0.186576
H20   H     H_    0.545915 0.594605 0.211982 0.191619
O13   O     O_3   0.561147 0.667736 0.804181 -0.569632
C59   C     C_3   0.611795 0.660702 0.814158 0.075755
H21   H     H_    0.622951 0.579038 0.787580 0.153821
H22   H     H_    0.627059 0.690585 0.904316 0.185426
C60   C     C_3   0.633323 0.727563 0.734945 -0.761061
H23   H     H_    0.625282 0.811124 0.764609 0.240336
H24   H     H_    0.673005 0.718768 0.737408 0.212530
H25   H     H_    0.617894 0.703166 0.643792 0.248970
O14   O     O_3   0.419061 0.376918 0.196765 -0.565892
C61   C     C_3   0.419339 0.267384 0.192006 0.129538
H26   H     H_    0.423959 0.252055 0.282380 0.170249
H27   H     H_    0.448850 0.227187 0.144003 0.076530
C62   C     C_3   0.370461 0.218769 0.142062 -0.797796
H28   H     H_    0.371080 0.132680 0.137575 0.199704
H29   H     H_    0.341955 0.250832 0.199062 0.239148
H30   H     H_    0.361332 0.235395 0.053406 0.285124
O15   O     O_3   0.419001 0.334629 0.954114 -0.572049
C63   C     C_3   0.437754 0.240838 0.894647 0.010363
H31   H     H_    0.440693 0.181729 0.952430 0.148221
H32   H     H_    0.474024 0.251149 0.862905 0.121831
C64   C     C_3   0.403091 0.196619 0.790338 -0.777030
H33   H     H_    0.400490 0.251674 0.727485 0.242816
H34   H     H_    0.416026 0.120646 0.745718 0.205435
H35   H     H_    0.366734 0.183908 0.819664 0.256413
O16   O     O_3   0.571511 0.682569 0.049317 -0.601622
C65   C     C_3   0.545755 0.776366 0.063590 0.057672
H36   H     H_    0.515610 0.771044 0.120187 0.127954
H37   H     H_    0.530921 0.794976 0.978616 0.161906
C66   C     C_3   0.579800 0.866025 0.121372 -0.789836
H38   H     H_    0.611787 0.868345 0.070109 0.254590
H39   H     H_    0.561284 0.941561 0.125217 0.189968
H40   H     H_    0.591801 0.855526 0.211263 0.249551
O17   O     O_3   0.121165 0.221937 0.458361 -0.532507
C67   C     C_3   0.116863 0.165564 0.343013 0.088605
H41   H     H_    0.131090 0.212713 0.281091 0.144110
H42   H     H_    0.078624 0.141962 0.315066 0.119443
C68   C     C_3   0.146033 0.066845 0.337420 -0.710451
H43   H     H_    0.132451 0.017395 0.397366 0.241660
H44   H     H_    0.142778 0.021554 0.247197 0.187993
H45   H     H_    0.184612 0.087770 0.363032 0.270312
O18   O     O_3   0.878624 0.796825 0.561982 -0.531948
C69   C     C_3   0.876325 0.849937 0.466095 0.086523
H46   H     H_    0.856935 0.801229 0.387901 0.144117
H47   H     H_    0.913091 0.871125 0.444470 0.118965
C70   C     C_3   0.848951 0.950377 0.497015 -0.710931
H48   H     H_    0.867684 0.001408 0.573937 0.242880
H49   H     H_    0.846982 0.992960 0.422299 0.189412
H50   H     H_    0.811774 0.931898 0.517458 0.269297
C71   C     C_R   0.656415 0.386475 0.657227 0.118182
C72   C     C_R   0.625413 0.299887 0.614318 -0.078572
C73   C     C_R   0.610039 0.235702 0.689751 -0.130336
C74   C     C_R   0.624623 0.258308 0.808526 -0.120995
C75   C     C_R   0.655726 0.343671 0.851807 -0.124439
C76   C     C_R   0.672261 0.406418 0.776297 -0.190178
H51   H     H_    0.614054 0.280743 0.522294 0.106262
H52   H     H_    0.587433 0.167413 0.656028 0.139537
H53   H     H_    0.612340 0.208828 0.866699 0.121672
H54   H     H_    0.667456 0.360569 0.943651 0.138051
H55   H     H_    0.696923 0.471487 0.810872 0.124539
C77   C     C_R   0.357484 0.592483 0.716517 0.111010
C78   C     C_R   0.386550 0.683421 0.725796 -0.070028
C79   C     C_R   0.411838 0.725569 0.831842 -0.124404
C80   C     C_R   0.407805 0.678251 0.929478 -0.142556
C81   C     C_R   0.378322 0.588923 0.921426 -0.093923
C82   C     C_R   0.353269 0.545978 0.815392 -0.136541
H56   H     H_    0.389938 0.720868 0.650756 0.110257
H57   H     H_    0.434483 0.795037 0.838504 0.111199
H58   H     H_    0.427505 0.710780 0.011368 0.114962
H59   H     H_    0.375153 0.552510 0.997202 0.159661
H60   H     H_    0.330953 0.476064 0.810015 0.146876

loop_
_geom_bond_atom_site_label_1
_geom_bond_atom_site_label_2
_geom_bond_distance
_ccdc_geom_bond_type
C2    C41   1.455158 S    
C57   C58   1.406764 A    
C13   C15   1.390962 A    
C73   C74   1.396363 A    
C48   H13   1.084708 S    
C75   H54   1.082329 S    
N1    C17   1.434058 S    
C8    O11   1.350256 S    
C63   H31   1.107529 S    
C10   H5    1.083983 S    
C49   C50   1.412712 A    
C19   C34   1.422757 A    
C5    N1    1.367133 A    
C20   C33   1.422778 A    
C78   C79   1.398994 A    
C31   C40   1.412159 A    
O1    C1    1.291193 A    
C32   C39   1.411693 A    
C77   C78   1.406333 A    
N1    C7    1.365372 A    
C48   C50   1.387316 A    
C72   C73   1.398468 A    
N4    C55   1.366059 A    
C62   H29   1.110686 S    
C71   C72   1.405324 A    
C61   H26   1.107046 S    
C51   C58   1.413962 A    
C41   C48   1.399191 A    
O4    Cu1   1.963663 S    
C4    C28   1.472997 S    
C44   C49   1.399112 A    
C39   H11   1.077092 S    
C55   H20   1.082221 S    
C67   H41   1.115523 S    
C70   H48   1.110762 S    
C9    H6    1.084076 S    
C25   C38   1.396325 A    
C14   C16   1.391749 A    
C31   C33   1.416949 A    
C37   H7    1.083650 S    
C66   H40   1.110840 S    
C32   C34   1.416547 A    
C38   H8    1.083625 S    
C35   H9    1.077286 S    
C47   H14   1.084031 S    
C54   O13   1.385584 S    
C71   C76   1.406931 A    
C6    N2    1.368160 A    
C29   C35   1.413764 A    
C23   C39   1.396169 A    
O18   C69   1.412737 S    
C60   H24   1.110601 S    
O8    Cu1   1.951646 S    
Cu1   Cu2   2.673552 S    
C11   C77   1.482693 S    
O2    C2    1.292053 A    
C5    C21   1.412576 A    
N3    C56   1.363084 A    
O13   C59   1.411504 S    
C29   C32   1.421003 A    
C43   H17   1.082169 S    
C35   C37   1.386476 A    
C36   C38   1.387298 A    
C60   H23   1.110765 S    
C74   C75   1.396177 A    
Cu2   N4    2.008792 S    
C44   C46   1.389881 A    
C70   H50   1.110779 S    
C11   C27   1.423842 A    
C43   C45   1.387802 A    
C64   H34   1.109588 S    
C29   C33   1.421021 A    
Cu1   N3    2.008790 S    
C14   H2    1.083666 S    
C56   H19   1.078849 S    
C62   H30   1.107167 S    
C15   H3    1.082965 S    
C9    C17   1.398128 A    
C79   C80   1.397431 A    
C30   C36   1.414172 A    
C12   C71   1.483983 S    
C67   H42   1.113358 S    
O7    Cu2   1.951646 S    
C10   C18   1.399251 A    
C1    C42   1.456314 S    
C36   H10   1.076966 S    
C55   C57   1.419808 A    
O7    C3    1.299084 A    
C13   C27   1.406558 A    
O5    C3    1.293743 A    
C80   C81   1.397494 A    
C7    C25   1.401461 A    
C30   C34   1.421455 A    
O6    C4    1.294790 A    
C26   C37   1.396310 A    
C8    C26   1.400426 A    
C42   C45   1.402831 A    
C56   C58   1.422026 A    
C41   C46   1.403893 A    
C19   C25   1.409804 A    
C81   H59   1.082358 S    
C47   C49   1.388885 A    
O16   C65   1.412372 S    
C44   H18   1.083847 S    
O3    Cu2   1.963663 S    
O8    C4    1.295074 A    
C79   H57   1.081768 S    
C68   H45   1.110790 S    
C24   C40   1.396644 A    
O4    C2    1.290461 A    
C30   C31   1.422443 A    
N2    C8    1.366495 A    
C77   C82   1.405066 A    
C60   H25   1.109737 S    
C59   H22   1.108539 S    
C76   H55   1.083318 S    
C51   C53   1.425039 A    
C68   H43   1.111035 S    
C20   C26   1.409374 A    
C64   H35   1.110552 S    
C67   C68   1.520866 S    
O1    Cu1   1.959729 S    
C74   H53   1.082451 S    
C46   H15   1.082589 S    
C65   H37   1.114538 S    
C22   C24   1.409787 A    
C69   C70   1.520985 S    
C45   H16   1.081432 S    
C12   C28   1.420260 A    
C68   H44   1.110427 S    
O15   C63   1.418255 S    
N2    C18   1.436395 S    
C5    O9    1.349074 S    
C52   C57   1.408507 A    
O6    Cu2   1.951991 S    
C21   C23   1.409466 A    
C16   H4    1.082925 S    
C82   H60   1.083189 S    
C52   C54   1.424748 A    
C52   O16   1.383004 S    
O3    C1    1.291857 A    
N4    C53   1.378004 A    
C63   H32   1.114282 S    
N3    C54   1.372624 A    
C69   H47   1.113660 S    
C59   C60   1.521733 S    
O14   C61   1.413938 S    
C64   H33   1.110401 S    
C81   C82   1.398479 A    
C65   C66   1.520824 S    
C70   H49   1.110621 S    
C73   H52   1.079239 S    
O17   C67   1.412602 S    
C7    O12   1.350033 S    
C15   C17   1.396046 A    
C62   H28   1.110437 S    
C6    C22   1.413552 A    
C16   C18   1.397132 A    
C10   C12   1.402002 A    
C66   H38   1.110810 S    
C61   H27   1.111963 S    
C14   C28   1.405797 A    
C19   C21   1.414170 A    
C24   O18   1.383818 S    
C23   O17   1.384026 S    
C3    C27   1.478893 S    
C20   C22   1.413799 A    
C9    C11   1.401685 A    
O2    Cu2   1.959728 S    
C51   O15   1.385861 S    
C63   C64   1.522246 S    
C69   H46   1.115269 S    
C72   H51   1.083124 S    
C13   H1    1.081691 S    
O5    Cu1   1.951996 S    
C40   H12   1.076844 S    
C6    O10   1.348966 S    
C59   H21   1.106772 S    
C53   O14   1.386725 S    
C42   C47   1.400045 A    
C66   H39   1.109640 S    
C80   H58   1.082378 S    
C65   H36   1.113347 S    
C75   C76   1.397635 A    
C78   H56   1.083312 S    
C43   C50   1.397101 A    
C61   C62   1.524415 S    
