data_mof_unit_32695.cif
_audit_creation_date              2012-12-10T18:31:53-0500
_audit_creation_method            fapswitch 2.2
_symmetry_space_group_name_H-M    P1
_symmetry_Int_Tables_number       1
_space_group_crystal_system       triclinic
_cell_length_a                    10.678691
_cell_length_b                    14.995036
_cell_length_c                    15.453592
_cell_angle_alpha                 82.398885
_cell_angle_beta                  90.099693
_cell_angle_gamma                 104.350625
_cell_volume                      2375.0223902

loop_
_atom_site_label
_atom_site_type_symbol
_atom_type_description
_atom_site_fract_x
_atom_site_fract_y
_atom_site_fract_z
_atom_type_partial_charge
C1    C     C_R   0.486951 0.441942 0.662336 0.874660
C2    C     C_3   0.120901 0.498163 0.504563 -0.009639
C3    C     C_3   0.082834 0.530821 0.409950 -0.075350
C4    C     C_3   0.093602 0.564620 0.569175 0.382938
C5    C     C_R   0.502726 0.408146 0.754596 -0.112446
C6    C     C_R   0.549273 0.593067 0.244594 -0.110073
C7    C     C_R   0.507248 0.287960 0.875748 -0.277397
C8    C     C_R   0.486413 0.313153 0.787423 0.211591
C9    C     C_R   0.544014 0.475442 0.810191 -0.326370
C10   C     C_R   0.569315 0.451260 0.897423 0.088847
C11   C     C_R   0.546825 0.355846 0.930843 0.144610
C12   C     C_R   0.741452 0.499351 0.503787 0.890735
C13   C     C_R   0.606199 0.519433 0.954055 0.073856
C14   C     C_R   0.592843 0.489969 0.044527 0.088031
C15   C     C_R   0.584655 0.395995 0.075874 -0.218599
C16   C     C_R   0.562559 0.329535 0.019333 -0.240483
C17   C     C_R   0.654158 0.615425 0.924412 -0.235911
C18   C     C_R   0.677748 0.680010 0.983493 -0.221736
C19   C     C_R   0.642286 0.651277 0.071688 0.136780
C20   C     C_R   0.590234 0.555856 0.101097 0.040619
C21   C     C_R   0.653466 0.716266 0.130406 -0.216429
C22   C     C_R   0.611656 0.686679 0.217339 -0.255961
C23   C     C_R   0.519910 0.558063 0.337532 0.890692
C24   C     C_R   0.526352 0.530002 0.183453 0.141414
C25   C     C_R   0.732112 0.852755 0.604597 -0.303122
C26   C     C_R   0.681775 0.759132 0.598632 0.009021
C27   C     C_R   0.507460 0.791827 0.515842 -0.037787
C28   C     C_R   0.551419 0.887634 0.521783 -0.012136
C29   C     C_R   0.669360 0.917785 0.563701 0.146941
C30   C     C_R   0.485114 0.954055 0.485265 0.041444
C31   C     C_R   0.541833 0.050886 0.486792 0.049884
C32   C     C_R   0.671801 0.078415 0.513309 0.179296
C33   C     C_R   0.728925 0.012278 0.558118 -0.288692
C34   C     C_R   0.257665 0.498114 0.503375 0.949560
C35   C     C_R   0.363924 0.926521 0.447105 -0.216045
C36   C     C_R   0.299943 0.991214 0.411463 -0.201942
C37   C     C_R   0.348789 0.084715 0.418822 0.120136
C38   C     C_R   0.467121 0.115928 0.459548 -0.004474
C39   C     C_R   0.276351 0.146414 0.388099 -0.323087
C40   C     C_R   0.315844 0.239307 0.401904 0.363962
C41   C     C_R   0.500768 0.209713 0.475662 -0.096735
C42   C     C_3   0.893380 0.399832 0.532103 -0.496850
C43   C     C_3   0.036220 0.398361 0.532291 -0.484769
C44   C     C_3   0.940085 0.539258 0.411851 0.021194
C45   C     C_3   0.947473 0.560543 0.574272 -0.527007
C46   C     C_3   0.878467 0.500551 0.505252 0.050413
H1    H     H_    0.843662 0.354030 0.485194 0.217358
H2    H     H_    0.139184 0.636443 0.537614 0.100592
H3    H     H_    0.552067 0.257245 0.045451 0.146190
H4    H     H_    0.627793 0.736957 0.263027 0.175563
H5    H     H_    0.717368 0.752867 0.959475 0.143785
H6    H     H_    0.491866 0.215015 0.901281 0.138435
H7    H     H_    0.551453 0.547314 0.785515 0.181102
H8    H     H_    0.847723 0.370784 0.597827 0.178820
H9    H     H_    0.597084 0.373702 0.144004 0.143470
H10   H     H_    0.679071 0.641549 0.856483 0.143564
H11   H     H_    0.696401 0.789376 0.109524 0.142969
H12   H     H_    0.825549 0.034373 0.582328 0.142807
H13   H     H_    0.582042 0.236476 0.514115 0.181958
H14   H     H_    0.207884 0.967112 0.381568 0.137287
H15   H     H_    0.822121 0.874417 0.637466 0.141181
H16   H     H_    0.732936 0.708662 0.626087 0.123855
H17   H     H_    0.426180 0.763276 0.478160 0.125368
H18   H     H_    0.063145 0.367814 0.596770 0.193846
H19   H     H_    0.314467 0.855196 0.444073 0.125242
H20   H     H_    0.188248 0.120692 0.354750 0.159802
H21   H     H_    0.051619 0.351106 0.485833 0.219477
H22   H     H_    0.885580 0.493122 0.366097 0.125433
H23   H     H_    0.084614 0.473834 0.370731 0.152137
H24   H     H_    0.934800 0.632499 0.562251 0.161758
H25   H     H_    0.899872 0.532009 0.639138 0.155524
N1    N     N_R   0.573860 0.731700 0.552730 -0.098660
N2    N     N_R   0.426060 0.268290 0.447230 -0.139171
O1    O     O_R   0.462770 0.383110 0.605620 -0.583498
O2    O     O_R   0.510160 0.531900 0.639510 -0.613761
O3    O     O_R   0.661510 0.425600 0.483070 -0.640576
O4    O     O_R   0.708900 0.574390 0.516960 -0.618400
O5    O     O_R   0.489840 0.468100 0.360490 -0.640200
O6    O     O_R   0.537230 0.616890 0.394380 -0.605415
O7    O     O_R   0.291100 0.425610 0.483040 -0.632045
O8    O     O_R   0.338490 0.574400 0.516930 -0.594221
Zn1   Zn    Zn3+2 0.468350 0.400660 0.477370 0.936856
Zn2   Zn    Zn3+2 0.531650 0.599340 0.522630 0.960798
N3    N     N_2   0.926406 0.633674 0.385908 -0.285132
H26   H     H_    0.977764 0.685709 0.418838 0.217819
C47   C     C_3   0.904713 0.661984 0.295152 -0.761633
H27   H     H_    0.863781 0.723545 0.290220 0.237060
H28   H     H_    0.835211 0.605713 0.267258 0.237216
H29   H     H_    0.997005 0.682205 0.256734 0.243386
N4    N     N_2   0.175575 0.614853 0.369382 -0.300753
H30   H     H_    0.176854 0.678498 0.387973 0.220964
C48   C     C_3   0.227617 0.613994 0.283193 -0.778953
H31   H     H_    0.303469 0.679084 0.263324 0.239558
H32   H     H_    0.150254 0.607257 0.234836 0.238556
H33   H     H_    0.271511 0.554272 0.283799 0.247904
N5    N     N_2   0.421226 0.449115 0.199402 -0.312319
H34   H     H_    0.440459 0.387407 0.225908 0.230969
C49   C     C_3   0.311884 0.443304 0.142909 -0.798826
H35   H     H_    0.314002 0.393630 0.095993 0.250851
H36   H     H_    0.311922 0.512268 0.106118 0.251696
H37   H     H_    0.220997 0.418200 0.183130 0.240923
N6    N     N_2   0.448231 0.242371 0.733048 -0.281294
H38   H     H_    0.372664 0.188737 0.760214 0.216982
C50   C     C_3   0.554305 0.208312 0.704114 -0.770473
H39   H     H_    0.599949 0.176693 0.760907 0.224191
H40   H     H_    0.628104 0.265935 0.666648 0.239273
H41   H     H_    0.517489 0.154162 0.661437 0.233861
N7    N     N_2   0.240012 0.302947 0.372136 -0.274778
H42   H     H_    0.291179 0.366623 0.342698 0.278282
C51   C     C_3   0.116357 0.270722 0.333371 -0.923942
H43   H     H_    0.129855 0.245581 0.270408 0.252412
H44   H     H_    0.068814 0.328797 0.320092 0.236994
H45   H     H_    0.052653 0.214965 0.379341 0.264307
N8    N     N_2   0.752074 0.168720 0.484865 -0.331740
H46   H     H_    0.834891 0.186629 0.519815 0.225499
C52   C     C_3   0.777832 0.188515 0.391309 -0.818588
H47   H     H_    0.838750 0.260261 0.374164 0.231021
H48   H     H_    0.686851 0.183500 0.355394 0.255386
H49   H     H_    0.828931 0.138798 0.369606 0.245364
O9    O     O_3   0.159097 0.557101 0.649651 -0.597962
C53   C     C_3   0.087673 0.496295 0.720297 0.110143
H50   H     H_    0.013300 0.437524 0.700588 0.133775
H51   H     H_    0.039575 0.536463 0.759046 0.151587
C54   C     C_3   0.180203 0.455726 0.778785 -0.823964
H52   H     H_    0.257158 0.512341 0.800271 0.268644
H53   H     H_    0.126689 0.411979 0.837275 0.204380
H54   H     H_    0.225330 0.411954 0.742511 0.238538

loop_
_geom_bond_atom_site_label_1
_geom_bond_atom_site_label_2
_ccdc_geom_bond_type
C33   H12   S    
C45   H25   S    
C26   N1    A    
C35   C36   A    
C50   H40   S    
N8    H46   S    
C7    C8    A    
C45   C46   S    
C52   H47   S    
C7    C11   A    
C30   C35   A    
C3    N4    S    
C1    C5    S    
C1    O1    A    
C36   C37   A    
C3    H23   S    
N3    C47   S    
C7    H6    S    
C24   N5    S    
C30   C31   A    
C47   H28   S    
O4    Zn2   S    
C15   C16   A    
C6    C22   A    
C29   C33   A    
N7    H42   S    
C18   C19   A    
C42   C46   S    
C20   C24   A    
C51   H43   S    
C53   C54   S    
C34   O7    A    
C19   C20   A    
N7    C51   S    
N5    C49   S    
C18   H5    S    
C34   O8    A    
C9    C10   A    
C22   H4    S    
C2    C34   S    
C21   C22   A    
C12   O4    A    
O1    Zn1   S    
C50   H39   S    
O8    Zn2   S    
C44   C46   S    
C43   H18   S    
C4    C45   S    
C25   C29   A    
C3    C44   S    
C1    O2    A    
C14   C20   A    
C16   H3    S    
C41   H13   S    
C38   C41   A    
C12   C46   S    
O3    Zn1   S    
C39   C40   A    
C47   H27   S    
C44   N3    S    
C25   C26   A    
C47   H29   S    
C48   H33   S    
C15   H9    S    
C2    C4    S    
C5    C9    A    
C37   C38   A    
C11   C16   A    
O5    Zn1   S    
N4    C48   S    
C31   C32   A    
C51   H45   S    
C2    C43   S    
C6    C24   A    
N5    H34   S    
C48   H32   S    
C17   C18   A    
C25   H15   S    
N3    H26   S    
N6    C50   S    
C17   H10   S    
C53   H50   S    
C27   H17   S    
C54   H54   S    
O7    Zn1   S    
C49   H36   S    
C12   O3    A    
C39   H20   S    
C44   H22   S    
C9    H7    S    
C42   C43   S    
N2    Zn1   S    
O9    C53   S    
C54   H53   S    
C4    H2    S    
C28   C29   A    
C19   C21   A    
C45   H24   S    
C36   H14   S    
C10   C13   A    
C5    C8    A    
N8    C52   S    
C52   H49   S    
C13   C17   A    
C49   H37   S    
C21   H11   S    
C31   C38   A    
C40   N7    S    
C32   N8    S    
C32   C33   A    
C28   C30   A    
C2    C3    S    
C26   H16   S    
C37   C39   A    
C42   H8    S    
O6    Zn2   S    
O2    Zn2   S    
N4    H30   S    
C6    C23   S    
C48   H31   S    
C52   H48   S    
C42   H1    S    
C23   O5    A    
N6    H38   S    
C51   H44   S    
C53   H51   S    
N1    Zn2   S    
C10   C11   A    
C41   N2    A    
C43   H21   S    
C49   H35   S    
C27   C28   A    
C35   H19   S    
C14   C15   A    
C4    O9    S    
C23   O6    A    
C40   N2    A    
C13   C14   A    
C8    N6    S    
C50   H41   S    
C27   N1    A    
C54   H52   S    
