data_mof_unit_50389.cif
_audit_creation_date              2012-12-10T17:46:58-0500
_audit_creation_method            fapswitch 2.2
_symmetry_space_group_name_H-M    P1
_symmetry_Int_Tables_number       1
_space_group_crystal_system       triclinic
_cell_length_a                    9.941067
_cell_length_b                    10.6102
_cell_length_c                    13.599443
_cell_angle_alpha                 89.699748
_cell_angle_beta                  82.435844
_cell_angle_gamma                 90.772617
_cell_volume                      1421.77736267

loop_
_atom_site_label
_atom_site_type_symbol
_atom_type_description
_atom_site_fract_x
_atom_site_fract_y
_atom_site_fract_z
_atom_type_partial_charge
C1    C     C_R   0.500833 0.739260 0.497614 0.852151
C2    C     C_R   0.552885 0.935697 0.567658 -0.193796
C3    C     C_R   0.552062 0.064397 0.567939 -0.186187
C4    C     C_R   0.475080 0.499657 0.685707 0.876094
C5    C     C_R   0.499464 0.128326 0.492352 -0.048199
C6    C     C_R   0.879968 0.731125 0.515426 0.422511
C7    C     C_R   0.924833 0.821966 0.578814 -0.290894
C8    C     C_R   0.040453 0.799561 0.624311 -0.248041
C9    C     C_R   0.115638 0.691033 0.600243 -0.140751
C10   C     C_R   0.065358 0.598632 0.540599 0.146735
C11   C     C_R   0.928774 0.607928 0.522051 0.071482
C12   C     C_1   0.455414 0.497190 0.789899 -0.164301
C13   C     C_R   0.931943 0.396880 0.472609 -0.076005
C14   C     C_R   0.076054 0.399448 0.467489 -0.060082
C15   C     C_R   0.499610 0.260687 0.498258 0.855504
C16   C     C_R   0.524858 0.499854 0.314320 0.874625
C17   C     C_1   0.544133 0.498519 0.210208 -0.101563
C18   C     C_2   0.558172 0.496048 0.018164 -0.134883
C19   C     C_2   0.440594 0.492307 0.982062 -0.087862
C20   C     C_1   0.443483 0.494700 0.877986 0.018091
C21   C     C_1   0.555525 0.497239 0.122177 0.085968
C22   C     C_R   0.406891 0.868931 0.331640 -0.227039
C23   C     C_R   0.359937 0.934678 0.254165 -0.177792
C24   C     C_R   0.358384 0.066113 0.254551 0.519048
C25   C     C_R   0.405017 0.131428 0.332641 -0.297419
C26   C     C_R   0.450636 0.065923 0.412618 0.026032
C27   C     C_R   0.451734 0.934018 0.412140 0.118090
C28   C     C_R   0.501877 0.871599 0.491432 -0.012288
H1    H     H_    0.343824 0.488812 0.029798 0.192805
H2    H     H_    0.407051 0.233196 0.329140 0.181089
H3    H     H_    0.590463 0.114483 0.628011 0.150529
H4    H     H_    0.881672 0.313019 0.449843 0.166885
H5    H     H_    0.061268 0.892676 0.378536 0.355670
H6    H     H_    0.166513 0.112724 0.047298 0.387669
H7    H     H_    0.883540 0.915996 0.581297 0.184276
H8    H     H_    0.078600 0.871134 0.670313 0.181674
H9    H     H_    0.208395 0.678324 0.631683 0.194560
H10   H     H_    0.133272 0.318162 0.439715 0.163801
H11   H     H_    0.654907 0.499876 0.970410 0.162226
H12   H     H_    0.591744 0.885705 0.627507 0.138605
H13   H     H_    0.409458 0.767336 0.326838 0.179441
H14   H     H_    0.326315 0.882824 0.193306 0.208756
N1    N     N_R   0.857120 0.501200 0.500900 -0.117400
N2    N     N_R   0.142720 0.501280 0.500940 -0.111798
O1    O     O_R   0.385310 0.683220 0.500000 -0.647146
O2    O     O_2   0.789303 0.908543 0.397743 -0.312122
O3    O     O_3   0.028713 0.822374 0.339777 -0.509827
O4    O     O_2   0.236502 0.269875 0.193184 -0.315114
O5    O     O_2   0.422787 0.180369 0.080058 -0.304944
O6    O     O_3   0.190652 0.060701 0.102915 -0.529375
O7    O     O_R   0.614640 0.683250 0.500010 -0.585646
O8    O     O_R   0.368830 0.499960 0.640340 -0.624875
O9    O     O_R   0.598160 0.499980 0.640350 -0.613890
O10   O     O_R   0.385360 0.316750 0.499990 -0.629077
O11   O     O_R   0.614690 0.316780 0.500000 -0.618463
O12   O     O_R   0.401840 0.500020 0.359650 -0.600944
O13   O     O_R   0.631170 0.500040 0.359660 -0.554477
O14   O     O_2   0.808630 0.693725 0.332223 -0.234290
S1    S     S_3+6 0.870101 0.789681 0.394256 0.058887
S2    S     S_3+6 0.302444 0.149559 0.155702 0.012922
Zn1   Zn    Zn3+2 0.346870 0.499980 0.499990 0.959628
Zn2   Zn    Zn3+2 0.653130 0.500020 0.500010 1.010736

loop_
_geom_bond_atom_site_label_1
_geom_bond_atom_site_label_2
_ccdc_geom_bond_type
C1    C28   S    
C25   H2    S    
C23   C24   A    
C16   O12   A    
H6    O6    S    
C11   N1    A    
C6    C7    A    
O10   Zn1   S    
O11   Zn2   S    
C4    O9    A    
C4    C12   S    
C18   C21   S    
C9    C10   A    
C13   H4    S    
C19   C20   S    
C24   S2    S    
O6    S2    S    
C12   C20   T    
C9    H9    S    
C2    C3    A    
O14   S1    D    
O5    S2    D    
O13   Zn2   S    
C13   C14   A    
C3    H3    S    
C16   O13   A    
C1    O7    A    
C1    O1    A    
C26   C27   A    
C16   C17   S    
C23   H14   S    
C7    H7    S    
C4    O8    A    
O7    Zn2   S    
O1    Zn1   S    
O4    S2    D    
O8    Zn1   S    
C8    H8    S    
C22   C27   A    
H5    O3    S    
N2    Zn1   S    
C5    C15   S    
C22   H13   S    
C14   H10   S    
C10   C11   A    
C10   N2    A    
C5    C26   A    
C19   H1    S    
C15   O10   A    
C2    H12   S    
C13   N1    A    
C24   C25   A    
O2    S1    D    
C14   N2    A    
C7    C8    A    
O9    Zn2   S    
C6    C11   A    
C18   H11   S    
O12   Zn1   S    
C18   C19   D    
C2    C28   A    
C3    C5    A    
C25   C26   A    
C22   C23   A    
O3    S1    S    
C6    S1    S    
C17   C21   T    
N1    Zn2   S    
C8    C9    A    
C27   C28   A    
C15   O11   A    
