data_mof_unit_32011.cif
_audit_creation_date              2012-12-10T19:21:57-0500
_audit_creation_method            fapswitch 2.2
_symmetry_space_group_name_H-M    P1
_symmetry_Int_Tables_number       1
_space_group_crystal_system       triclinic
_cell_length_a                    8.873196
_cell_length_b                    17.778028
_cell_length_c                    16.539152
_cell_angle_alpha                 88.816478
_cell_angle_beta                  97.683527
_cell_angle_gamma                 95.493387
_cell_volume                      2573.6357798

loop_
_atom_site_label
_atom_site_type_symbol
_atom_type_description
_atom_site_fract_x
_atom_site_fract_y
_atom_site_fract_z
_atom_type_partial_charge
C1    C     C_R   0.513104 0.356052 0.501789 0.844547
C2    C     C_R   0.489746 0.644428 0.498383 0.835897
C3    C     C_1   0.499763 0.967295 0.490786 -0.025356
C4    C     C_1   0.511000 0.034971 0.492992 -0.023509
C5    C     C_R   0.559263 0.562494 0.834557 0.104398
C6    C     C_R   0.387231 0.448364 0.165907 0.038128
C7    C     C_R   0.581580 0.557424 0.750358 0.378894
C8    C     C_R   0.397689 0.448835 0.252897 0.373079
C9    C     C_R   0.415209 0.442684 0.738966 0.396826
C10   C     C_R   0.587500 0.553767 0.259115 0.428744
C11   C     C_R   0.421047 0.440592 0.825348 -0.306555
C12   C     C_R   0.586004 0.550104 0.173220 -0.320420
C13   C     C_R   0.489440 0.500649 0.873412 -0.034702
C14   C     C_R   0.487177 0.497500 0.126059 0.007432
C15   C     C_1   0.485589 0.498465 0.962489 0.074523
C16   C     C_1   0.485275 0.497604 0.036642 0.084312
C17   C     C_R   0.203753 0.497100 0.479355 0.840215
C18   C     C_R   0.795191 0.497047 0.520429 0.823754
C19   C     C_2   0.038390 0.493466 0.466911 0.018197
C20   C     C_2   0.958484 0.491044 0.531817 0.012049
C21   C     C_R   0.465008 0.847234 0.561564 -0.227961
C22   C     C_R   0.571482 0.159453 0.434758 -0.223046
C23   C     C_R   0.454869 0.768574 0.564248 0.142848
C24   C     C_R   0.582093 0.238080 0.438196 0.103464
C25   C     C_R   0.473334 0.727421 0.494142 -0.189540
C26   C     C_R   0.535327 0.273935 0.505194 -0.191062
C27   C     C_R   0.475360 0.767499 0.418530 0.191153
C28   C     C_R   0.509409 0.229380 0.575361 0.190556
C29   C     C_R   0.488321 0.847206 0.417280 0.215024
C30   C     C_R   0.498144 0.149959 0.570960 0.213864
C31   C     C_R   0.486164 0.886420 0.489702 -0.002379
C32   C     C_R   0.523417 0.115597 0.498913 0.003606
Cu1   Cu    Cu3+1 0.499990 0.499980 0.580420 0.941265
Cu2   Cu    Cu3+1 0.500010 0.500020 0.419580 0.975200
H1    H     H_    0.453776 0.878212 0.615902 0.181514
H2    H     H_    0.603748 0.132385 0.382346 0.180373
H3    H     H_    0.365422 0.393743 0.856120 0.189034
H4    H     H_    0.658966 0.589537 0.141752 0.184267
N1    N     N_R   0.499960 0.499970 0.701210 -0.261862
N2    N     N_R   0.500040 0.500030 0.298790 -0.214795
O1    O     O_R   0.499990 0.391240 0.567930 -0.569550
O2    O     O_R   0.500010 0.608760 0.432070 -0.554246
O3    O     O_R   0.500000 0.391270 0.432120 -0.533804
O4    O     O_R   0.500000 0.608730 0.567880 -0.571489
O5    O     O_R   0.274830 0.499990 0.552240 -0.579088
O6    O     O_R   0.725170 0.500010 0.447760 -0.563860
O7    O     O_R   0.274840 0.500020 0.416420 -0.582763
O8    O     O_R   0.725160 0.499980 0.583580 -0.615835
N3    N     N_2   0.962723 0.484037 0.385292 -0.397314
H5    H     H_    0.970881 0.431407 0.362168 0.275975
C33   C     C_3   0.991764 0.544425 0.327810 -0.675678
H6    H     H_    0.905034 0.536888 0.273166 0.245670
H7    H     H_    0.104130 0.542699 0.306184 0.230559
H8    H     H_    0.986552 0.600174 0.355771 0.222916
N4    N     N_2   0.028587 0.476134 0.612609 -0.436610
H9    H     H_    0.976132 0.429863 0.639888 0.248998
C34   C     C_3   0.065314 0.540622 0.665976 -0.571407
H10   H     H_    0.187163 0.543096 0.692392 0.258634
H11   H     H_    0.995622 0.534024 0.716992 0.209085
H12   H     H_    0.045819 0.594641 0.632835 0.217936
I1    I     I_    0.385194 0.720515 0.673629 -0.355814
I2    I     I_    0.697424 0.296203 0.346939 -0.410834
N5    N     N_2   0.452126 0.728042 0.343070 -0.373568
H13   H     H_    0.503053 0.755201 0.296797 0.287334
C35   C     C_3   0.294229 0.702053 0.316074 -0.625629
H14   H     H_    0.287666 0.665774 0.261609 0.224605
H15   H     H_    0.226857 0.751041 0.299677 0.214200
H16   H     H_    0.243878 0.668236 0.364703 0.221990
N6    N     N_2   0.502479 0.263916 0.651533 -0.379734
H17   H     H_    0.429754 0.235637 0.687990 0.283768
C36   C     C_3   0.648956 0.291707 0.695946 -0.594294
H18   H     H_    0.643815 0.350368 0.716026 0.243685
H19   H     H_    0.743475 0.291904 0.657913 0.202711
H20   H     H_    0.676071 0.256259 0.751078 0.201243
N7    N     N_2   0.496753 0.887116 0.342132 -0.438292
H21   H     H_    0.430744 0.932070 0.334101 0.263401
C37   C     C_3   0.650814 0.906945 0.324253 -0.692304
H22   H     H_    0.647047 0.932503 0.262286 0.240210
H23   H     H_    0.714234 0.855905 0.325824 0.226027
H24   H     H_    0.712301 0.948548 0.369244 0.232845
N8    N     N_2   0.461683 0.105333 0.639542 -0.444329
H25   H     H_    0.376896 0.062053 0.625075 0.257454
C38   C     C_3   0.592480 0.079982 0.690945 -0.656610
H26   H     H_    0.554828 0.052497 0.746670 0.235016
H27   H     H_    0.677546 0.128370 0.709739 0.237999
H28   H     H_    0.647383 0.038365 0.658210 0.228091
I3    I     I_    0.604884 0.665017 0.903803 -0.359086
I4    I     I_    0.212661 0.379095 0.092828 -0.409477
N9    N     N_2   0.684402 0.613272 0.716693 -0.388249
H29   H     H_    0.707149 0.602826 0.659526 0.305049
C39   C     C_3   0.823320 0.644085 0.766216 -0.654710
H30   H     H_    0.918301 0.653346 0.728825 0.207809
H31   H     H_    0.858527 0.605924 0.817960 0.233621
H32   H     H_    0.808025 0.701124 0.787645 0.282182
N10   N     N_2   0.288206 0.402871 0.292122 -0.381258
H33   H     H_    0.179743 0.419964 0.279746 0.247176
C40   C     C_3   0.289898 0.321492 0.288022 -0.556798
H34   H     H_    0.180472 0.295831 0.254885 0.225999
H35   H     H_    0.301007 0.297245 0.350556 0.226792
H36   H     H_    0.384719 0.305412 0.256457 0.251660
N11   N     N_2   0.323378 0.384037 0.691843 -0.380740
H37   H     H_    0.284573 0.397197 0.633000 0.314956
C41   C     C_3   0.211582 0.334235 0.728499 -0.757813
H38   H     H_    0.144171 0.296851 0.681063 0.225851
H39   H     H_    0.131770 0.367622 0.755785 0.238284
H40   H     H_    0.269288 0.297150 0.775216 0.242432
N12   N     N_2   0.671581 0.615852 0.303763 -0.388805
H41   H     H_    0.722824 0.605005 0.361463 0.299502
C42   C     C_3   0.745944 0.678705 0.262137 -0.773126
H42   H     H_    0.791613 0.723707 0.306813 0.228311
H43   H     H_    0.663125 0.702913 0.214724 0.250501
H44   H     H_    0.842548 0.660515 0.233582 0.230659

loop_
_geom_bond_atom_site_label_1
_geom_bond_atom_site_label_2
_ccdc_geom_bond_type
N4    H9    S    
N5    C35   S    
N11   H37   S    
C27   C29   A    
Cu1   O5    S    
N10   H33   S    
Cu2   O2    S    
C40   H34   S    
C37   H22   S    
C21   C31   A    
Cu1   N1    S    
C22   C32   A    
Cu2   N2    S    
C17   O5    A    
C42   H43   S    
C34   H11   S    
C39   H31   S    
C15   C16   T    
C7    N9    S    
C9    N1    A    
C6    I4    S    
C18   C20   S    
C10   N2    A    
C11   H3    S    
C40   H35   S    
C1    O3    A    
C19   C20   D    
C2    O4    A    
N3    C33   S    
N12   H41   S    
Cu2   O6    S    
N9    C39   S    
C5    C13   A    
N11   C41   S    
N12   C42   S    
C10   N12   S    
C8    N10   S    
C20   N4    S    
C18   O6    A    
N8    C38   S    
N8    H25   S    
C37   H23   S    
C21   C23   A    
N6    C36   S    
C33   H6    S    
C42   H44   S    
C39   H30   S    
C5    C7    A    
C34   H12   S    
C6    C8    A    
C35   H15   S    
C33   H7    S    
C41   H40   S    
N7    H21   S    
C6    C14   A    
N7    C37   S    
C19   N3    S    
C38   H26   S    
C35   H16   S    
C28   N6    S    
Cu1   Cu2   S    
C41   H39   S    
C3    C31   S    
C9    C11   A    
C4    C32   S    
C10   C12   A    
C21   H1    S    
C1    O1    A    
C38   H27   S    
C12   C14   A    
N3    H5    S    
C13   C15   S    
C1    C26   S    
C14   C16   S    
C3    C4    T    
C40   H36   S    
C36   H19   S    
C37   H24   S    
C24   I2    S    
Cu1   O4    S    
Cu2   O3    S    
C17   O7    A    
C24   C26   A    
C18   O8    A    
C36   H20   S    
N10   C40   S    
C29   N7    S    
C25   C27   A    
C22   H2    S    
C26   C28   A    
C33   H8    S    
Cu1   O1    S    
C30   N8    S    
N4    C34   S    
C36   H18   S    
C29   C31   A    
C42   H42   S    
C39   H32   S    
C30   C32   A    
C11   C13   A    
C34   H10   S    
C2    O2    A    
C28   C30   A    
C17   C19   S    
C2    C25   S    
C22   C24   A    
C23   C25   A    
C12   H4    S    
N6    H17   S    
N5    H13   S    
C5    I3    S    
C23   I1    S    
C38   H28   S    
C9    N11   S    
C35   H14   S    
C41   H38   S    
Cu1   O8    S    
C7    N1    A    
C27   N5    S    
Cu2   O7    S    
C8    N2    A    
N9    H29   S    
