data_mof_unit_14876.cif
_audit_creation_date              2013-03-05T16:26:37-0500
_audit_creation_method            fapswitch 2.2
_symmetry_space_group_name_H-M    P1
_symmetry_Int_Tables_number       1
_space_group_crystal_system       triclinic
_cell_length_a                    19.374326
_cell_length_b                    18.230868
_cell_length_c                    10.818664
_cell_angle_alpha                 89.71052
_cell_angle_beta                  92.627485
_cell_angle_gamma                 90.041913
_cell_volume                      3817.20222783

loop_
_atom_site_label
_atom_site_type_symbol
_atom_site_description
_atom_site_fract_x
_atom_site_fract_y
_atom_site_fract_z
_atom_type_partial_charge
O1    O     O_R   0.400190 0.561980 0.499980 -0.610202
O2    O     O_R   0.599810 0.438020 0.500020 -0.610857
O3    O     O_R   0.599810 0.561980 0.500020 -0.606851
O4    O     O_R   0.400190 0.438020 0.499980 -0.609858
C1    C     C_R   0.367525 0.499893 0.499513 0.780147
C2    C     C_R   0.632379 0.499983 0.499498 0.778148
O5    O     O_R   0.500000 0.561950 0.319660 -0.568789
O6    O     O_R   0.500000 0.438050 0.680340 -0.568328
O7    O     O_R   0.500000 0.561950 0.680340 -0.565978
O8    O     O_R   0.500000 0.438050 0.319660 -0.565238
C3    C     C_R   0.508631 0.500182 0.263073 0.818888
C4    C     C_R   0.491360 0.499815 0.736924 0.820254
Cu1   Cu    Cu3+1 0.500000 0.573360 0.500000 0.926668
Cu2   Cu    Cu3+1 0.500000 0.426640 0.500000 0.925272
H1    H     H_    0.539751 0.248477 0.102454 0.141767
H2    H     H_    0.460366 0.751527 0.897549 0.144699
H3    H     H_    0.470838 0.246619 0.904185 0.146709
H4    H     H_    0.529391 0.753348 0.095683 0.149512
C5    C     C_R   0.532406 0.635754 0.112855 -0.087226
C6    C     C_R   0.467702 0.364205 0.887084 -0.086921
C7    C     C_R   0.461962 0.633864 0.883718 -0.088600
C8    C     C_R   0.538045 0.366128 0.116324 -0.090277
C9    C     C_R   0.514846 0.701572 0.053365 -0.076631
C10   C     C_R   0.485311 0.298400 0.946558 -0.081026
C11   C     C_R   0.476876 0.700569 0.941363 -0.082022
C12   C     C_R   0.523213 0.299423 0.058634 -0.087368
C13   C     C_R   0.485253 0.566779 0.937577 0.066786
C14   C     C_R   0.514740 0.433202 0.062440 0.067656
C15   C     C_R   0.511845 0.567519 0.060882 0.062348
C16   C     C_R   0.488176 0.432456 0.939109 0.062457
C17   C     C_R   0.482317 0.499488 0.872365 -0.232456
C18   C     C_R   0.517674 0.500496 0.127638 -0.232888
H5    H     H_    0.563452 0.639022 0.198257 0.153793
H6    H     H_    0.436672 0.360905 0.801668 0.153489
H7    H     H_    0.431043 0.635424 0.797959 0.147807
H8    H     H_    0.568948 0.364577 0.202105 0.145747
C19   C     C_R   0.747051 0.559596 0.538624 -0.232701
C20   C     C_R   0.254882 0.562047 0.530215 -0.243901
C21   C     C_R   0.255809 0.434148 0.468856 -0.198946
C22   C     C_R   0.741132 0.438338 0.446953 -0.208199
H9    H     H_    0.722254 0.607259 0.576209 0.144630
H10   H     H_    0.281552 0.612647 0.553894 0.148985
H11   H     H_    0.282966 0.384969 0.443361 0.144662
H12   H     H_    0.711822 0.391713 0.411650 0.146441
C23   C     C_R   0.818965 0.557729 0.536398 -0.087122
C24   C     C_R   0.182942 0.559943 0.531872 -0.082563
C25   C     C_R   0.184088 0.432466 0.469108 -0.217560
C26   C     C_R   0.812734 0.437173 0.442677 -0.216687
H13   H     H_    0.849003 0.603715 0.572184 0.135025
H14   H     H_    0.154815 0.608840 0.555590 0.139108
H15   H     H_    0.156897 0.382559 0.442893 0.105950
H16   H     H_    0.837760 0.389949 0.404116 0.108772
C27   C     C_R   0.851848 0.496322 0.488999 0.254753
C28   C     C_R   0.147554 0.494959 0.502097 0.256833
C29   C     C_R   0.707802 0.499465 0.495210 -0.027199
C30   C     C_R   0.291815 0.498943 0.499394 -0.029564
C31   C     C_R   0.962537 0.523416 0.390956 0.324076
C32   C     C_R   0.036911 0.462241 0.596833 0.324342
C33   C     C_R   0.034909 0.523325 0.394771 0.324194
C34   C     C_R   0.964395 0.461968 0.592863 0.325643
C35   C     C_R   0.071918 0.493054 0.497833 -0.267535
C36   C     C_R   0.927391 0.492928 0.490039 -0.271486
C37   C     C_R   0.465756 0.722807 0.406038 0.394501
C38   C     C_R   0.535788 0.277183 0.592149 0.379205
C39   C     C_R   0.534134 0.722259 0.594133 0.398052
C40   C     C_R   0.464181 0.277786 0.407732 0.380632
C41   C     C_R   0.465934 0.800167 0.404270 0.289464
C42   C     C_R   0.537378 0.199654 0.591735 0.305519
C43   C     C_R   0.533859 0.799611 0.596139 0.287831
C44   C     C_R   0.462362 0.200250 0.408071 0.305959
C45   C     C_R   0.499926 0.839636 0.500203 -0.260256
C46   C     C_R   0.499831 0.160474 0.499906 -0.243369
N1    N     N_R   0.500000 0.683620 0.500000 -0.309419
N2    N     N_R   0.500000 0.316380 0.500000 -0.301967
C47   C     C_R   0.519210 0.961960 0.395505 -0.177550
C48   C     C_R   0.480772 0.038357 0.604780 -0.182614
C49   C     C_R   0.480536 0.961364 0.604706 -0.178451
C50   C     C_R   0.518815 0.038950 0.395176 -0.184330
H17   H     H_    0.535305 0.933482 0.314111 0.166792
H18   H     H_    0.465076 0.066977 0.686328 0.161331
H19   H     H_    0.464462 0.932423 0.686164 0.166676
H20   H     H_    0.534483 0.068029 0.313555 0.161447
C51   C     C_R   0.499777 0.078170 0.499929 0.212971
C52   C     C_R   0.499924 0.922060 0.500174 0.194669
O9    O     O_3   0.926949 0.561518 0.297274 -0.562650
C53   C     C_3   0.906294 0.512766 0.201321 0.067077
H21   H     H_    0.855522 0.488275 0.221436 0.151974
H22   H     H_    0.943977 0.467354 0.189116 0.094914
C54   C     C_3   0.898268 0.556067 0.080169 -0.322470
H23   H     H_    0.858046 0.598954 0.088882 0.225038
H24   H     H_    0.947900 0.583643 0.061288 0.233391
C55   C     C_3   0.877748 0.506326 0.971685 -0.891839
H25   H     H_    0.918206 0.464135 0.959640 0.272070
H26   H     H_    0.872038 0.539444 0.885394 0.281073
H27   H     H_    0.827707 0.478919 0.987781 0.240687
O10   O     O_3   0.072971 0.442024 0.705106 -0.570760
C56   C     C_3   0.088194 0.366188 0.703201 0.082261
H28   H     H_    0.139637 0.358099 0.664436 0.150561
H29   H     H_    0.049652 0.333438 0.646914 0.095506
C57   C     C_3   0.091424 0.336885 0.835965 -0.322613
H30   H     H_    0.133695 0.365070 0.889923 0.222267
H31   H     H_    0.041958 0.348665 0.880048 0.221441
C58   C     C_3   0.104636 0.254392 0.839854 -0.955194
H32   H     H_    0.061993 0.224795 0.789260 0.252975
H33   H     H_    0.107438 0.235119 0.937478 0.257102
H34   H     H_    0.154328 0.241498 0.797467 0.259275
O11   O     O_3   0.069339 0.560969 0.304680 -0.567797
C59   C     C_3   0.091731 0.511589 0.214278 0.066599
H35   H     H_    0.053185 0.511120 0.135157 0.156965
H36   H     H_    0.098495 0.454046 0.248643 0.107341
C60   C     C_3   0.160722 0.538505 0.167917 -0.307476
H37   H     H_    0.154744 0.595508 0.132073 0.228366
H38   H     H_    0.200070 0.538825 0.245934 0.231705
C61   C     C_3   0.185966 0.489656 0.065197 -0.926476
H39   H     H_    0.192677 0.432354 0.099038 0.251369
H40   H     H_    0.236503 0.510142 0.034925 0.263159
H41   H     H_    0.148391 0.490599 0.984507 0.273177
O12   O     O_3   0.930303 0.440955 0.697201 -0.578206
C62   C     C_3   0.905374 0.368208 0.684476 0.063458
H42   H     H_    0.941546 0.330422 0.735366 0.143042
H43   H     H_    0.900381 0.348945 0.586771 0.113325
C63   C     C_3   0.835114 0.362629 0.742910 -0.303063
H44   H     H_    0.842270 0.368635 0.844787 0.208983
H45   H     H_    0.800819 0.407593 0.707490 0.243477
C64   C     C_3   0.800136 0.289242 0.714746 -0.956616
H46   H     H_    0.788778 0.283836 0.613610 0.253842
H47   H     H_    0.750748 0.286291 0.762669 0.261728
H48   H     H_    0.833761 0.243152 0.747731 0.255508
O13   O     O_3   0.429845 0.689035 0.309772 -0.706615
H49   H     H_    0.407742 0.645055 0.342554 0.362273
O14   O     O_3   0.570893 0.311018 0.689300 -0.717861
H50   H     H_    0.592511 0.355520 0.657520 0.364617
O15   O     O_3   0.569941 0.687890 0.690429 -0.704707
H51   H     H_    0.592927 0.644812 0.657073 0.357248
O16   O     O_3   0.429535 0.312325 0.310291 -0.713885
H52   H     H_    0.406827 0.355846 0.342607 0.357701
O17   O     O_3   0.432660 0.836895 0.306512 -0.579692
C65   C     C_3   0.363763 0.850722 0.336748 0.097580
H53   H     H_    0.361760 0.881462 0.425401 0.125499
H54   H     H_    0.334853 0.798184 0.344914 0.158165
C66   C     C_3   0.328848 0.897167 0.234014 -0.319753
H55   H     H_    0.357214 0.949858 0.225611 0.223610
H56   H     H_    0.330693 0.867640 0.144571 0.229289
C67   C     C_3   0.253696 0.913175 0.260604 -0.943195
H57   H     H_    0.223729 0.861283 0.263769 0.261800
H58   H     H_    0.230412 0.948760 0.186283 0.259907
H59   H     H_    0.250545 0.941895 0.350411 0.262563
O18   O     O_3   0.574070 0.161812 0.684779 -0.586079
C68   C     C_3   0.645895 0.165257 0.665621 0.117413
H60   H     H_    0.673353 0.160560 0.757748 0.169433
H61   H     H_    0.662632 0.218259 0.624694 0.139787
C69   C     C_3   0.668309 0.101561 0.584788 -0.377976
H62   H     H_    0.649338 0.048915 0.622836 0.241074
H63   H     H_    0.645636 0.108801 0.489382 0.210525
C70   C     C_3   0.746783 0.098398 0.578738 -0.942634
H64   H     H_    0.766677 0.150263 0.539438 0.256381
H65   H     H_    0.761289 0.052369 0.518360 0.256941
H66   H     H_    0.771106 0.089410 0.672597 0.262763
O19   O     O_3   0.566772 0.835734 0.694337 -0.579388
C71   C     C_3   0.635918 0.849472 0.665314 0.098448
H67   H     H_    0.638346 0.882376 0.578422 0.126834
H68   H     H_    0.664281 0.796896 0.654427 0.154904
C72   C     C_3   0.671207 0.892912 0.770759 -0.318326
H69   H     H_    0.643724 0.945854 0.781477 0.222118
H70   H     H_    0.668440 0.861345 0.858597 0.230105
C73   C     C_3   0.746792 0.908215 0.746065 -0.944609
H71   H     H_    0.775861 0.855906 0.740787 0.259316
H72   H     H_    0.770362 0.941681 0.822403 0.260230
H73   H     H_    0.750884 0.938898 0.657809 0.262696
O20   O     O_3   0.425897 0.162966 0.314653 -0.585158
C74   C     C_3   0.353976 0.166337 0.332849 0.121167
H74   H     H_    0.326860 0.158672 0.241101 0.166442
H75   H     H_    0.336751 0.220461 0.367711 0.133860
C75   C     C_3   0.331645 0.104930 0.419760 -0.383352
H76   H     H_    0.350749 0.051319 0.386884 0.241514
H77   H     H_    0.354209 0.114813 0.514416 0.210675
C76   C     C_3   0.253186 0.101821 0.425894 -0.944988
H78   H     H_    0.233097 0.154845 0.459388 0.253196
H79   H     H_    0.238743 0.057719 0.490997 0.258945
H80   H     H_    0.229022 0.089811 0.333095 0.261028

loop_
_geom_bond_atom_site_label_1
_geom_bond_atom_site_label_2
_geom_bond_distance
_ccdc_geom_bond_type
O5    Cu1   1.963140 S    
C74   H74   1.110963 S    
C13   C15   1.407951 A    
C1    C30   1.466858 S    
C72   H69   1.111791 S    
C2    C29   1.464185 S    
O3    C2    1.295033 A    
O13   H49   0.981108 S    
C61   H39   1.110970 S    
C65   H53   1.115502 S    
C68   H60   1.110999 S    
C31   C36   1.407847 A    
C6    C16   1.417117 A    
O9    C53   1.413658 S    
O5    C3    1.299005 A    
C74   H75   1.114903 S    
C19   H9    1.083186 S    
O1    C1    1.296319 A    
Cu2   N2    2.010136 S    
C72   H70   1.111864 S    
C10   C12   1.388646 A    
C20   H10   1.083103 S    
C15   C18   1.418166 A    
C68   H61   1.115024 S    
O19   C71   1.411835 S    
C16   C17   1.418259 A    
C53   H22   1.116569 S    
C47   C52   1.407525 A    
C31   C33   1.400872 A    
C70   H65   1.110203 S    
O20   C74   1.417596 S    
C32   C34   1.403630 A    
C40   N2    1.384174 A    
C39   N1    1.384015 A    
C59   H35   1.109925 S    
C34   C36   1.411097 A    
C43   C45   1.404425 A    
C32   O10   1.384566 S    
C75   H76   1.111241 S    
C57   H30   1.110896 S    
O7    Cu1   1.961049 S    
O12   C62   1.416322 S    
C50   C51   1.406605 A    
C58   H33   1.110370 S    
C6    C10   1.393674 A    
C31   O9    1.383701 S    
C76   H79   1.110322 S    
C64   H48   1.110967 S    
O11   C59   1.415475 S    
C69   C70   1.525930 S    
C34   O12   1.385949 S    
C49   H19   1.082688 S    
C54   H24   1.111481 S    
O16   H52   0.981193 S    
O3    Cu1   1.944988 S    
C42   C46   1.402328 A    
C6    H6    1.080992 S    
C22   C29   1.403305 A    
C32   C35   1.408080 A    
C9    C11   1.388613 A    
C7    C13   1.417185 A    
C23   C27   1.399629 A    
C8    C14   1.417203 A    
Cu1   Cu2   2.674831 S    
C70   H66   1.111109 S    
C73   H72   1.110389 S    
O2    C2    1.293635 A    
C67   H59   1.110177 S    
O2    Cu2   1.944686 S    
C48   C51   1.406679 A    
C55   H26   1.110509 S    
C56   H29   1.116363 S    
C56   H28   1.109122 S    
C62   H43   1.115501 S    
C26   C27   1.399169 A    
C74   C75   1.533141 S    
C37   C41   1.410393 A    
C33   C35   1.408182 A    
H3    C10   1.082653 S    
C13   C17   1.418068 A    
H4    C9    1.082661 S    
C61   H41   1.110823 S    
C71   C72   1.527355 S    
C14   C18   1.418031 A    
C72   C73   1.525846 S    
O18   C68   1.417572 S    
C67   H58   1.110305 S    
O8    Cu2   1.961050 S    
C66   C67   1.525711 S    
C54   H23   1.111685 S    
C53   H21   1.110092 S    
O4    C1    1.293683 A    
H1    C12   1.082633 S    
C25   H15   1.083510 S    
C37   N1    1.383997 A    
C49   C52   1.407476 A    
C65   C66   1.527172 S    
C55   H27   1.110786 S    
C33   O11   1.384956 S    
C71   H68   1.114656 S    
C58   H34   1.110995 S    
C57   C58   1.525775 S    
C5    C9    1.393748 A    
O15   H51   0.981539 S    
C27   C36   1.464457 S    
C50   H20   1.082840 S    
C61   H40   1.110410 S    
C21   C30   1.404559 A    
C38   O14   1.374103 S    
C23   H13   1.083192 S    
O6    C4    1.298974 A    
C76   H80   1.110867 S    
O10   C56   1.414327 S    
C24   C28   1.399948 A    
C57   H31   1.111441 S    
C60   H38   1.111148 S    
C48   C49   1.403648 A    
C54   C55   1.524879 S    
C75   C76   1.525572 S    
C65   H54   1.114372 S    
C25   C28   1.398157 A    
C69   H63   1.110352 S    
C3    C18   1.483605 S    
C4    C17   1.483662 S    
C5    H5    1.080993 S    
C64   H46   1.110991 S    
C68   C69   1.532195 S    
O1    Cu1   1.944690 S    
C63   H45   1.111107 S    
O14   H50   0.980678 S    
C5    C15   1.417079 A    
C38   C42   1.413804 A    
C58   H32   1.110949 S    
C56   C57   1.528537 S    
C21   C25   1.389982 A    
C45   C52   1.502650 S    
C62   C63   1.530024 S    
H2    C11   1.082644 S    
C22   C26   1.390310 A    
C7    C11   1.393527 A    
O6    Cu2   1.963139 S    
C60   H37   1.111636 S    
O7    C4    1.299258 A    
C48   H18   1.082843 S    
Cu1   N1    2.010136 S    
C67   H57   1.110815 S    
C53   C54   1.528507 S    
C42   O18   1.386602 S    
C21   H11   1.083177 S    
C62   H42   1.109182 S    
C7    H7    1.081329 S    
C28   C35   1.464391 S    
C8    H8    1.081362 S    
O17   C65   1.411982 S    
C24   H14   1.083180 S    
C59   C60   1.528738 S    
C71   H67   1.115375 S    
C63   C64   1.525120 S    
C66   H56   1.111704 S    
C44   O20   1.386836 S    
C66   H55   1.111750 S    
C73   H71   1.110933 S    
C47   H17   1.082696 S    
C39   C43   1.410485 A    
C14   C16   1.408032 A    
C55   H25   1.110993 S    
C43   O19   1.383220 S    
C59   H36   1.117013 S    
C60   C61   1.525706 S    
C41   C45   1.404570 A    
C37   O13   1.373755 S    
O4    Cu2   1.944992 S    
C41   O17   1.383265 S    
C47   C50   1.403599 A    
C75   H77   1.110393 S    
C20   C24   1.395221 A    
C46   C51   1.500470 S    
O8    C3    1.299198 A    
C40   O16   1.373820 S    
C19   C29   1.404220 A    
C22   H12   1.083296 S    
C20   C30   1.404881 A    
C40   C44   1.413947 A    
C73   H73   1.110105 S    
C76   H78   1.110984 S    
C8    C12   1.393453 A    
C70   H64   1.110778 S    
C64   H47   1.110126 S    
C38   N2    1.383998 A    
C44   C46   1.402610 A    
C69   H62   1.111326 S    
C63   H44   1.110486 S    
C26   H16   1.083104 S    
C19   C23   1.395047 A    
C39   O15   1.373680 S    
