data_mof_unit_19594.cif
_audit_creation_date              2012-10-26T19:59:11-0400
_audit_creation_method            fapswitch 2.2
_symmetry_space_group_name_H-M    P1
_symmetry_Int_Tables_number       1
_space_group_crystal_system       triclinic
_cell_length_a                    7.436439
_cell_length_b                    8.69455
_cell_length_c                    15.832214
_cell_angle_alpha                 94.27747
_cell_angle_beta                  75.087064
_cell_angle_gamma                 103.133111
_cell_volume                      963.163329579

loop_
_atom_site_label
_atom_site_type_symbol
_atom_type_description
_atom_site_fract_x
_atom_site_fract_y
_atom_site_fract_z
_atom_type_partial_charge
C1    C     C_R   0.545063 0.800144 0.502606 0.550544
C2    C     C_R   0.615875 0.511029 0.333722 0.544624
C3    C     C_R   0.313936 0.466802 0.761006 -0.007253
C4    C     C_R   0.685961 0.524505 0.238357 -0.006704
C5    C     C_R   0.077334 0.343470 0.885929 -0.131554
C6    C     C_R   0.931534 0.622237 0.109983 -0.130867
C7    C     C_R   0.128940 0.384101 0.798170 -0.142860
C8    C     C_R   0.876024 0.592355 0.199227 -0.141808
C9    C     C_R   0.443552 0.514829 0.813113 -0.133379
C10   C     C_R   0.554779 0.479066 0.186749 -0.134716
C11   C     C_R   0.397707 0.470938 0.901101 0.027148
C12   C     C_R   0.454926 0.199856 0.497407 0.550559
C13   C     C_R   0.607354 0.505577 0.096292 0.027455
C14   C     C_R   0.210357 0.384411 0.937193 0.044568
C15   C     C_R   0.798324 0.582413 0.058792 0.046029
C16   C     C_R   0.532847 0.507841 0.953504 0.028057
C17   C     C_R   0.474561 0.463048 0.042930 0.027046
C18   C     C_R   0.286368 0.375523 0.075660 -0.142805
C19   C     C_R   0.725083 0.585228 0.919193 -0.141951
C20   C     C_R   0.157782 0.337245 0.023668 -0.131908
C21   C     C_R   0.854483 0.620780 0.970864 -0.132093
C22   C     C_2   0.570453 0.968017 0.503875 -0.156702
C23   C     C_2   0.429522 0.031984 0.496157 -0.156671
C24   C     C_R   0.384054 0.488059 0.666201 0.544248
Cu1   Cu    Cu3+1 0.322120 0.483240 0.490330 0.948446
Cu2   Cu    Cu3+1 0.677880 0.516760 0.509670 0.949313
H1    H     H_    0.015356 0.269880 0.051619 0.118351
H2    H     H_    0.783098 0.618195 0.851890 0.105955
H3    H     H_    0.003989 0.615129 0.568828 0.238227
H4    H     H_    0.996013 0.384874 0.431170 0.238044
H5    H     H_    0.706306 0.039331 0.511165 0.133770
H6    H     H_    0.293667 0.960671 0.488869 0.133756
H7    H     H_    0.000329 0.679375 0.941539 0.120040
H8    H     H_    0.410095 0.428517 0.219803 0.121005
H9    H     H_    0.580927 0.584381 0.782206 0.117676
H10   H     H_    0.979628 0.627917 0.238008 0.133293
H11   H     H_    0.026816 0.345961 0.758821 0.133703
H12   H     H_    0.934063 0.277426 0.913459 0.120028
H13   H     H_    0.078260 0.679008 0.081122 0.120186
H14   H     H_    0.233528 0.330792 0.141002 0.104680
N1    N     N_2   0.945180 0.542040 0.524240 -0.258077
N2    N     N_2   0.054820 0.457960 0.475760 -0.258313
O1    O     O_R   0.384450 0.714270 0.493720 -0.502764
O2    O     O_R   0.615550 0.285730 0.506280 -0.502779
O3    O     O_R   0.684880 0.742590 0.510050 -0.497264
O4    O     O_R   0.315120 0.257410 0.489950 -0.497372
O5    O     O_R   0.265540 0.477900 0.617090 -0.506028
O6    O     O_R   0.734460 0.522100 0.382910 -0.505692
O7    O     O_R   0.565970 0.506210 0.633420 -0.502818
O8    O     O_R   0.434030 0.493790 0.366580 -0.504370

loop_
_geom_bond_atom_site_label_1
_geom_bond_atom_site_label_2
_ccdc_geom_bond_type
Cu1   N2    S    
C2    C4    S    
C3    C9    A    
C20   H1    S    
Cu2   O6    S    
C5    C7    A    
N1    N2    D    
Cu1   O5    S    
C18   C20   A    
C13   C17   A    
C4    C8    A    
C2    O6    A    
C23   H6    S    
Cu1   O1    S    
C17   C18   A    
C7    H11   S    
Cu2   O2    S    
C1    C22   S    
C10   H8    S    
Cu1   Cu2   S    
C5    H12   S    
C19   H2    S    
C9    C11   A    
C12   C23   S    
C1    O3    A    
C5    C14   A    
C16   C19   A    
C12   O4    A    
C19   C21   A    
C3    C7    A    
C13   C15   A    
C11   C14   A    
C11   C16   A    
C21   H7    S    
C22   H5    S    
C4    C10   A    
C14   C20   A    
C15   C21   A    
C12   O2    A    
C8    H10   S    
Cu2   O7    S    
C24   O7    A    
C9    H9    S    
C18   H14   S    
C22   C23   D    
H4    N2    S    
C6    C8    A    
C2    O8    A    
Cu2   O3    S    
H3    N1    S    
C6    C15   A    
C6    H13   S    
C24   O5    A    
Cu1   O4    S    
C1    O1    A    
Cu1   O8    S    
Cu2   N1    S    
C3    C24   S    
C16   C17   A    
C10   C13   A    
