data_mof_unit_51798.cif
_audit_creation_date              2012-12-10T17:13:34-0500
_audit_creation_method            fapswitch 2.2
_symmetry_space_group_name_H-M    P1
_symmetry_Int_Tables_number       1
_space_group_crystal_system       triclinic
_cell_length_a                    26.536235
_cell_length_b                    10.741774
_cell_length_c                    9.933627
_cell_angle_alpha                 90.489759
_cell_angle_beta                  90.44186
_cell_angle_gamma                 91.432566
_cell_volume                      2830.46561912

loop_
_atom_site_label
_atom_site_type_symbol
_atom_type_description
_atom_site_fract_x
_atom_site_fract_y
_atom_site_fract_z
_atom_type_partial_charge
C1    C     C_R   0.501879 0.261826 0.499209 0.858616
C2    C     C_R   0.969361 0.281705 0.714994 0.025193
C3    C     C_R   0.965412 0.498158 0.798538 -0.128676
C4    C     C_R   0.404715 0.502419 0.499887 0.971924
C5    C     C_R   0.941096 0.385105 0.759538 0.008048
C6    C     C_R   0.942488 0.175779 0.659803 0.140541
C7    C     C_R   0.889783 0.175691 0.651098 -0.129492
C8    C     C_R   0.862777 0.279136 0.692413 -0.045186
C9    C     C_R   0.888216 0.380460 0.754977 -0.094789
C10   C     C_R   0.860250 0.478536 0.809798 -0.198096
C11   C     C_R   0.808141 0.475225 0.784215 0.661049
C12   C     C_R   0.265022 0.428903 0.448757 0.166906
C13   C     C_R   0.811401 0.290952 0.660681 0.594391
C14   C     C_R   0.727354 0.379470 0.482848 0.185007
C15   C     C_R   0.676876 0.398388 0.442925 0.035533
C16   C     C_R   0.499787 0.737537 0.500378 0.926897
C17   C     C_R   0.676128 0.583746 0.583844 0.326496
C18   C     C_R   0.726363 0.565273 0.618070 0.462130
C19   C     C_R   0.747293 0.446768 0.596144 -0.055900
C20   C     C_R   0.022836 0.295494 0.718183 0.050443
C21   C     C_R   0.044326 0.417367 0.719348 0.084920
C22   C     C_R   0.015008 0.520346 0.753579 0.048873
C23   C     C_R   0.245864 0.491441 0.562250 0.057265
C24   C     C_R   0.055870 0.195023 0.720333 -0.174004
C25   C     C_R   0.083237 0.659392 0.681081 -0.160041
C26   C     C_R   0.938482 0.585960 0.875577 0.417940
C27   C     C_R   0.885635 0.577450 0.879554 0.142803
C28   C     C_R   0.594972 0.497626 0.500610 0.977595
C29   C     C_R   0.034901 0.641511 0.732478 -0.174099
C30   C     C_2   0.508945 0.931157 0.389357 -0.148747
C31   C     C_2   0.496470 0.868646 0.499790 -0.291280
C32   C     C_2   0.500534 0.062347 0.386541 0.100838
C33   C     C_2   0.513709 0.131698 0.495762 0.255172
C34   C     C_R   0.095245 0.436326 0.684500 -0.063576
C35   C     C_2   0.534664 0.556984 0.926163 -0.286732
C36   C     C_2   0.530005 0.574066 0.078750 0.550624
C37   C     C_R   0.177751 0.356021 0.641114 0.537658
C38   C     C_R   0.162840 0.572047 0.607737 0.596261
C39   C     C_R   0.277610 0.571863 0.639020 0.458380
C40   C     C_R   0.328445 0.586087 0.606305 0.045880
C41   C     C_R   0.317080 0.437015 0.420814 0.079917
C42   C     C_3   0.258203 0.580783 0.861950 0.086271
C43   C     C_3   0.240850 0.668714 0.973052 -0.304581
C44   C     C_3   0.237421 0.603219 0.108170 -0.873486
C45   C     C_R   0.127063 0.334321 0.674393 -0.032969
C46   C     C_3   0.991198 0.636859 0.054338 0.103486
C47   C     C_3   0.958512 0.625748 0.180568 -0.352380
C48   C     C_3   0.989300 0.584772 0.302195 -0.897308
C49   C     C_3   0.648963 0.777730 0.530699 0.076386
C50   C     C_3   0.654704 0.906698 0.595457 -0.337271
C51   C     C_3   0.657720 0.008430 0.489758 -0.769874
C52   C     C_3   0.779125 0.726086 0.554062 0.088814
C53   C     C_3   0.835681 0.701481 0.554962 -0.362707
C54   C     C_3   0.862695 0.772140 0.442943 -0.862793
C55   C     C_3   0.535763 0.096651 0.722051 0.078896
C56   C     C_R   0.107529 0.214218 0.699831 -0.103546
C57   C     C_3   0.574390 0.180943 0.796621 -0.325087
C58   C     C_3   0.559320 0.202747 0.942575 -0.862529
C59   C     C_3   0.599633 0.716963 0.093528 0.026291
C60   C     C_3   0.642391 0.624013 0.106323 -0.404169
C61   C     C_3   0.692284 0.680373 0.057971 -0.767156
C62   C     C_R   0.113957 0.557165 0.658170 -0.058968
C63   C     C_R   0.349364 0.510945 0.504809 -0.276051
C64   C     C_R   0.649900 0.493653 0.506101 -0.352462
H1    H     H_    0.096691 0.753496 0.661508 0.200569
H2    H     H_    0.042525 0.102055 0.743395 0.183018
H3    H     H_    0.296812 0.549223 0.887550 0.162653
H4    H     H_    0.231867 0.498537 0.856495 0.144517
H5    H     H_    0.267867 0.749196 0.982016 0.257440
H6    H     H_    0.203148 0.704501 0.946213 0.237279
H7    H     H_    0.208972 0.525860 0.101782 0.278622
H8    H     H_    0.225651 0.670125 0.187010 0.284732
H9    H     H_    0.274600 0.566016 0.137173 0.284395
H10   H     H_    0.022534 0.704876 0.075574 0.181145
H11   H     H_    0.009199 0.546312 0.032413 0.132515
H12   H     H_    0.012274 0.722841 0.746581 0.212518
H13   H     H_    0.941828 0.717350 0.203354 0.259401
H14   H     H_    0.927373 0.556463 0.162168 0.234173
H15   H     H_    0.006206 0.492967 0.282032 0.273087
H16   H     H_    0.964448 0.575974 0.391239 0.269869
H17   H     H_    0.019780 0.654539 0.325698 0.276407
H18   H     H_    0.611315 0.768439 0.481312 0.146002
H19   H     H_    0.678184 0.769085 0.451035 0.108484
H20   H     H_    0.622124 0.922652 0.662389 0.241332
H21   H     H_    0.689645 0.911576 0.657935 0.249254
H22   H     H_    0.692187 0.998567 0.428183 0.263692
H23   H     H_    0.520935 0.885094 0.297604 0.201458
H24   H     H_    0.659428 0.100902 0.540658 0.292836
H25   H     H_    0.624047 0.003090 0.422665 0.280919
H26   H     H_    0.773834 0.827838 0.566105 0.189127
H27   H     H_    0.762958 0.699490 0.453255 0.100611
H28   H     H_    0.852269 0.731428 0.653277 0.258602
H29   H     H_    0.841777 0.600316 0.540786 0.216847
H30   H     H_    0.848108 0.740493 0.342926 0.275464
H31   H     H_    0.903683 0.754339 0.448376 0.275771
H32   H     H_    0.857227 0.873876 0.454296 0.282602
H33   H     H_    0.537251 0.002502 0.767172 0.154816
H34   H     H_    0.481518 0.913796 0.588605 0.165983
H35   H     H_    0.496479 0.127749 0.738012 0.157222
H36   H     H_    0.611859 0.136976 0.794534 0.221573
H37   H     H_    0.578226 0.272170 0.745703 0.256674
H38   H     H_    0.521787 0.245975 0.947097 0.264865
H39   H     H_    0.587368 0.266683 0.992243 0.276944
H40   H     H_    0.558073 0.113245 0.997787 0.275206
H41   H     H_    0.610934 0.801520 0.152722 0.170075
H42   H     H_    0.594183 0.751046 0.989446 0.142224
H43   H     H_    0.646652 0.597496 0.213625 0.247674
H44   H     H_    0.633401 0.538348 0.046573 0.236109
H45   H     H_    0.567169 0.594679 0.874101 0.195325
H46   H     H_    0.689893 0.702049 0.948959 0.304450
H47   H     H_    0.722642 0.612783 0.074256 0.307173
H48   H     H_    0.702084 0.766809 0.115627 0.242460
H49   H     H_    0.467462 0.474223 0.897932 0.176889
H50   H     H_    0.484537 0.424829 0.099724 0.135088
H51   H     H_    0.131693 0.134434 0.699694 0.202040
H52   H     H_    0.870200 0.098133 0.601516 0.200593
I1    I     I_    0.345990 0.334636 0.254318 -0.245113
I2    I     I_    0.848421 0.728223 0.976570 -0.264753
I3    I     I_    0.458835 0.115395 0.212657 -0.322015
I4    I     I_    0.214119 0.324009 0.320181 -0.260904
I5    I     I_    0.641592 0.284105 0.290333 -0.368694
I6    I     I_    0.776883 0.299198 0.338157 -0.271145
I7    I     I_    0.973895 0.025689 0.548382 -0.406493
I8    I     I_    0.371381 0.729182 0.710091 -0.272077
N1    N     N_R   0.194141 0.472448 0.602017 -0.333532
N2    N     N_R   0.789389 0.403883 0.679238 -0.323989
N3    N     N_2   0.500520 0.501330 0.852150 -0.196982
N4    N     N_2   0.500540 0.501360 0.147810 -0.194838
O1    O     O_R   0.499990 0.319060 0.613040 -0.630610
O2    O     O_R   0.571240 0.499960 0.613080 -0.598303
O3    O     O_R   0.571250 0.500000 0.386950 -0.579025
O4    O     O_2   0.210291 0.261604 0.646611 -0.520481
O5    O     O_3   0.257949 0.645865 0.739260 -0.579809
O6    O     O_3   0.962957 0.683087 0.944507 -0.630575
O7    O     O_3   0.652557 0.687794 0.633197 -0.613680
O8    O     O_3   0.755325 0.666043 0.664288 -0.575270
O9    O     O_3   0.549602 0.085695 0.585115 -0.663538
O10   O     O_3   0.554645 0.669915 0.151236 -0.609552
O11   O     O_2   0.784034 0.191402 0.616072 -0.545033
O12   O     O_2   0.178960 0.684933 0.564774 -0.504550
O13   O     O_2   0.776459 0.535670 0.865376 -0.495141
O14   O     O_R   0.500010 0.319100 0.386900 -0.586997
O15   O     O_R   0.428750 0.500000 0.613050 -0.594903
O16   O     O_R   0.428760 0.500040 0.386920 -0.577915
O17   O     O_R   0.499990 0.680900 0.613100 -0.595121
O18   O     O_R   0.500010 0.680940 0.386960 -0.570418
Zn1   Zn    Zn3+2 0.499990 0.499970 0.650990 0.974418
Zn2   Zn    Zn3+2 0.500010 0.500030 0.349010 1.034825

loop_
_geom_bond_atom_site_label_1
_geom_bond_atom_site_label_2
_ccdc_geom_bond_type
C10   C27   A    
C7    H52   S    
C8    C13   A    
C14   I6    S    
C22   C29   A    
C52   H26   S    
C35   C36   S    
O16   Zn2   S    
C4    O15   A    
C50   H20   S    
C7    C8    A    
C29   H12   S    
C36   N4    D    
C53   C54   S    
C16   C31   S    
O15   Zn1   S    
C12   C23   A    
C26   C27   A    
C59   H41   S    
C40   C63   A    
C42   O5    S    
C13   O11   S    
C48   H15   S    
C1    O1    A    
C17   C64   A    
C30   C31   D    
C34   C62   A    
C48   H17   S    
C44   H7    S    
C16   O18   A    
C18   C19   A    
C31   H34   S    
C1    O14   A    
C50   H21   S    
C12   I4    S    
C20   C24   A    
C45   C56   A    
C33   O9    S    
C8    C9    A    
C17   O7    S    
C15   C64   A    
C18   O8    S    
C58   H38   S    
C9    C10   A    
C3    C22   A    
O18   Zn2   S    
C60   H44   S    
C24   H2    S    
C23   N1    S    
C49   O7    S    
C59   C60   S    
C43   H5    S    
C21   C22   A    
C42   H4    S    
C2    C6    A    
C6    I7    S    
C61   H46   S    
C51   H22   S    
C46   H11   S    
O17   Zn1   S    
C47   H13   S    
C50   C51   S    
C37   N1    A    
C25   C29   A    
C40   I8    S    
C59   H42   S    
C54   H30   S    
C53   H29   S    
O14   Zn2   S    
C11   N2    A    
C25   H1    S    
C39   C40   A    
N4    Zn2   S    
C21   C34   A    
C59   O10   S    
C57   H36   S    
C2    C20   A    
C60   C61   S    
C49   H18   S    
C43   C44   S    
C5    C9    A    
C12   C41   A    
C26   O6    S    
C46   O6    S    
H50   N4    S    
C47   C48   S    
C4    C63   S    
C55   H33   S    
C53   H28   S    
C17   C18   A    
O3    Zn2   S    
C34   C45   A    
C35   N3    D    
C11   O13   S    
C54   H31   S    
C60   H43   S    
C13   N2    A    
C28   C64   S    
C43   H6    S    
C55   C57   S    
C42   H3    S    
C52   O8    S    
C2    C5    A    
C58   H40   S    
C42   C43   S    
C41   C63   A    
C32   I3    S    
C37   C45   A    
C61   H47   S    
C46   H10   S    
C38   N1    A    
C52   C53   S    
C39   O5    S    
C27   I2    S    
C46   C47   S    
C15   I5    S    
O2    Zn1   S    
C54   H32   S    
C14   C19   A    
C3    C26   A    
C3    C5    A    
C35   H45   S    
C51   H24   S    
C4    O16   A    
C6    C7    A    
H49   N3    S    
C24   C56   A    
C57   H37   S    
C19   N2    S    
C55   O9    S    
C37   O4    S    
C28   O3    A    
C32   C33   D    
C49   H19   S    
C51   H25   S    
C30   C32   S    
C48   H16   S    
C57   C58   S    
C23   C39   A    
C56   H51   S    
C44   H8    S    
C28   O2    A    
C25   C62   A    
C44   H9    S    
O1    Zn1   S    
C10   C11   A    
C1    C33   S    
C20   C21   A    
C49   C50   S    
C55   H35   S    
C38   O12   S    
C14   C15   A    
C16   O17   A    
C52   H27   S    
C58   H39   S    
C47   H14   S    
C41   I1    S    
C30   H23   S    
C61   H48   S    
C36   O10   S    
N3    Zn1   S    
C38   C62   A    
