data_mof_unit_16419.cif
_audit_creation_date              2012-12-11T16:36:22-0500
_audit_creation_method            fapswitch 2.2
_symmetry_space_group_name_H-M    P1
_symmetry_Int_Tables_number       1
_space_group_crystal_system       triclinic
_cell_length_a                    25.828196
_cell_length_b                    7.326545
_cell_length_c                    23.341803
_cell_angle_alpha                 90.164915
_cell_angle_beta                  104.548749
_cell_angle_gamma                 90.263914
_cell_volume                      4275.2860152

loop_
_atom_site_label
_atom_site_type_symbol
_atom_type_description
_atom_site_fract_x
_atom_site_fract_y
_atom_site_fract_z
_atom_type_partial_charge
O1    O     O_R   0.438720 0.630760 0.439780 -0.534529
O2    O     O_R   0.061280 0.869240 0.060220 -0.533464
O3    O     O_R   0.561280 0.130760 0.560220 -0.543731
O4    O     O_R   0.938720 0.369240 0.939780 -0.535382
O5    O     O_R   0.546380 0.956770 0.446270 -0.537110
O6    O     O_R   0.953620 0.543230 0.053730 -0.541628
O7    O     O_R   0.453620 0.456770 0.553730 -0.536905
O8    O     O_R   0.046380 0.043230 0.946270 -0.539145
C1    C     C_R   0.562155 0.790878 0.433856 0.712448
C2    C     C_R   0.937955 0.709202 0.066279 0.754128
C3    C     C_R   0.436947 0.291702 0.564875 0.748340
C4    C     C_R   0.061955 0.209279 0.933523 0.750903
O9    O     O_R   0.438210 0.960230 0.432810 -0.521529
O10   O     O_R   0.061790 0.539770 0.067190 -0.532736
O11   O     O_R   0.561790 0.460230 0.567190 -0.519769
O12   O     O_R   0.938210 0.039770 0.932810 -0.527176
O13   O     O_R   0.452340 0.134240 0.546660 -0.534602
O14   O     O_R   0.047660 0.365760 0.953340 -0.532643
O15   O     O_R   0.547660 0.634240 0.453340 -0.522254
O16   O     O_R   0.952340 0.865760 0.046660 -0.526939
C5    C     C_R   0.419651 0.792073 0.415164 0.695043
C6    C     C_R   0.080308 0.708866 0.083459 0.764221
C7    C     C_R   0.581323 0.292697 0.583115 0.672011
C8    C     C_R   0.919505 0.207700 0.916324 0.765939
O17   O     O_3   0.504760 0.798440 0.537370 -0.376097
O18   O     O_3   0.995240 0.701560 0.962630 -0.386079
O19   O     O_3   0.495240 0.298440 0.462630 -0.367202
O20   O     O_3   0.004760 0.201560 0.037370 -0.381209
V1    V     V_3+5 0.499120 0.071860 0.493070 1.511105
V2    V     V_3+5 0.000880 0.428140 0.006930 1.525248
V3    V     V_3+5 0.500880 0.571860 0.506930 1.530314
V4    V     V_3+5 0.999120 0.928140 0.993070 1.543202
C9    C     C_R   0.681820 0.106778 0.718867 0.032663
C10   C     C_R   0.778139 0.328885 0.832730 0.028003
C11   C     C_R   0.310335 0.603974 0.285202 0.051881
C12   C     C_R   0.222480 0.823356 0.165516 0.017772
C13   C     C_R   0.636366 0.129952 0.671287 -0.202057
C14   C     C_R   0.827493 0.322653 0.875407 -0.176916
C15   C     C_R   0.356573 0.621179 0.332038 -0.136637
C16   C     C_R   0.173679 0.812665 0.122133 -0.174104
H1    H     H_    0.604900 0.027792 0.663453 0.186613
H2    H     H_    0.832125 0.395783 0.916868 0.159399
H3    H     H_    0.382814 0.507955 0.343068 0.161801
H4    H     H_    0.170800 0.870256 0.078695 0.163407
C17   C     C_R   0.630074 0.282994 0.633866 -0.138605
C18   C     C_R   0.870169 0.216374 0.867061 -0.124189
C19   C     C_R   0.371148 0.785316 0.362875 -0.153960
C20   C     C_R   0.129047 0.721686 0.132699 -0.125277
C21   C     C_R   0.671217 0.417172 0.644874 0.023323
C22   C     C_R   0.863693 0.116819 0.813418 -0.012421
C23   C     C_R   0.339660 0.940819 0.341706 0.001629
C24   C     C_R   0.132417 0.644521 0.189041 -0.025891
C25   C     C_R   0.716364 0.395917 0.692649 -0.174174
C26   C     C_R   0.814545 0.125543 0.770332 -0.135710
C27   C     C_R   0.291036 0.922353 0.298616 -0.171668
C28   C     C_R   0.180897 0.658444 0.232848 -0.088219
H5    H     H_    0.747696 0.498931 0.700616 0.140636
H6    H     H_    0.809629 0.052984 0.728746 0.153240
H7    H     H_    0.266860 0.041883 0.283867 0.164115
H8    H     H_    0.183758 0.602189 0.276450 0.160070
C29   C     C_R   0.722258 0.243455 0.729968 0.026340
C30   C     C_R   0.771839 0.230677 0.779092 0.040879
C31   C     C_R   0.275607 0.754493 0.270446 0.021246
C32   C     C_R   0.225955 0.745050 0.221721 0.016467
C33   C     C_R   0.365343 0.129470 0.605047 -0.019579
C34   C     C_R   0.120696 0.391443 0.879479 0.015878
C35   C     C_R   0.625829 0.614095 0.384629 0.020600
C36   C     C_R   0.884691 0.892742 0.126109 0.027875
C37   C     C_R   0.333743 0.124520 0.645907 -0.263540
C38   C     C_R   0.159681 0.395682 0.847089 -0.255527
C39   C     C_R   0.663235 0.615285 0.350283 -0.248318
C40   C     C_R   0.848353 0.898217 0.161715 -0.257772
H9    H     H_    0.307690 0.008160 0.646261 0.176104
H10   H     H_    0.175872 0.526197 0.838090 0.178710
H11   H     H_    0.682785 0.489225 0.343445 0.181698
H12   H     H_    0.835253 0.028965 0.174427 0.175904
C41   C     C_R   0.331751 0.272957 0.683103 -0.026469
C42   C     C_R   0.176962 0.234913 0.825049 -0.023296
C43   C     C_R   0.675503 0.775790 0.324100 -0.027510
C44   C     C_R   0.828372 0.737592 0.180628 -0.024970
C45   C     C_R   0.363822 0.428208 0.681962 0.507771
C46   C     C_R   0.153426 0.068076 0.835176 0.476739
C47   C     C_R   0.649237 0.938132 0.331690 0.491461
C48   C     C_R   0.846573 0.568799 0.164555 0.483976
C49   C     C_R   0.397298 0.430777 0.642201 -0.222072
C50   C     C_R   0.116947 0.063602 0.870784 -0.193598
C51   C     C_R   0.612278 0.938012 0.366818 -0.252416
C52   C     C_R   0.880813 0.563485 0.126532 -0.236097
H13   H     H_    0.421923 0.549190 0.640412 0.155669
H14   H     H_    0.100603 0.934841 0.878538 0.176032
H15   H     H_    0.592658 0.063336 0.371976 0.190264
H16   H     H_    0.892458 0.433330 0.113523 0.183970
C53   C     C_R   0.399042 0.282765 0.603972 -0.165165
C54   C     C_R   0.100095 0.222614 0.894152 -0.170717
C55   C     C_R   0.600092 0.778915 0.394435 -0.177024
C56   C     C_R   0.900735 0.722981 0.106519 -0.175545
C57   C     C_R   0.251696 0.392822 0.712766 -0.074023
C58   C     C_R   0.259640 0.119108 0.797742 -0.075733
C59   C     C_R   0.760818 0.877030 0.300955 -0.070640
C60   C     C_R   0.742219 0.641291 0.203324 -0.072756
H17   H     H_    0.247681 0.498073 0.679457 0.140222
H18   H     H_    0.264079 0.014217 0.831171 0.157655
H19   H     H_    0.768769 0.967317 0.339027 0.142068
H20   H     H_    0.733898 0.551480 0.165140 0.150007
C61   C     C_R   0.213852 0.381255 0.746202 -0.176274
C62   C     C_R   0.297025 0.128764 0.763517 -0.175676
C63   C     C_R   0.798095 0.865359 0.266752 -0.183174
C64   C     C_R   0.705315 0.651226 0.237946 -0.179457
H21   H     H_    0.181227 0.477278 0.737650 0.119162
H22   H     H_    0.328936 0.029536 0.770401 0.133031
H23   H     H_    0.834475 0.945459 0.279398 0.116057
H24   H     H_    0.669418 0.568120 0.226182 0.118489
C65   C     C_R   0.217304 0.244612 0.789188 0.111445
C66   C     C_R   0.293521 0.266490 0.721036 0.126013
C67   C     C_R   0.789125 0.747793 0.217491 0.111223
C68   C     C_R   0.714242 0.769421 0.286918 0.120270
C69   C     C_2   0.684904 0.939159 0.755683 0.788778
O21   O     O_2   0.718372 0.925236 0.802877 -0.526867
O22   O     O_R   0.648621 0.796149 0.736276 -0.660247
H25   H     H_    0.654560 0.689518 0.764590 0.310662
C70   C     C_2   0.733445 0.432263 0.846710 0.785899
O23   O     O_2   0.743000 0.563403 0.880344 -0.530777
O24   O     O_R   0.680496 0.376043 0.823490 -0.663817
H26   H     H_    0.653970 0.453081 0.838250 0.296610
C71   C     C_2   0.302252 0.433371 0.249506 0.785064
O25   O     O_2   0.257426 0.370641 0.229326 -0.558994
O26   O     O_R   0.346561 0.345063 0.238333 -0.642629
H27   H     H_    0.336357 0.230618 0.213539 0.317060
C72   C     C_2   0.269125 0.911774 0.149992 0.771134
O27   O     O_2   0.261857 0.027762 0.111224 -0.541581
O28   O     O_R   0.321314 0.859869 0.178213 -0.660409
H28   H     H_    0.349313 0.928363 0.162997 0.306391
C73   C     C_2   0.670555 0.575261 0.605601 0.779335
O29   O     O_2   0.702401 0.582414 0.574774 -0.543391
O30   O     O_R   0.635241 0.719179 0.605514 -0.637600
H29   H     H_    0.638977 0.819684 0.577026 0.285310
C74   C     C_2   0.907636 0.009187 0.799380 0.751270
O31   O     O_2   0.954376 0.053143 0.819910 -0.576263
O32   O     O_R   0.895356 0.859591 0.760907 -0.656307
H30   H     H_    0.928472 0.797633 0.754454 0.308361
C75   C     C_2   0.361543 0.124778 0.355450 0.802483
O33   O     O_2   0.339614 0.234451 0.380972 -0.556423
O34   O     O_R   0.409356 0.167694 0.340463 -0.638491
H31   H     H_    0.429356 0.273964 0.363513 0.307481
C76   C     C_2   0.085845 0.555967 0.204527 0.768120
O35   O     O_2   0.093102 0.436785 0.242268 -0.538570
O36   O     O_R   0.033779 0.612014 0.177625 -0.676084
H32   H     H_    0.005785 0.543357 0.192813 0.287040
C77   C     C_2   0.357438 0.980411 0.560673 0.787955
O37   O     O_2   0.354800 0.821995 0.576101 -0.570180
O38   O     O_R   0.349612 0.021918 0.500729 -0.637788
H33   H     H_    0.341398 0.909466 0.474588 0.286938
C78   C     C_2   0.099112 0.566359 0.892772 0.780909
O39   O     O_2   0.123624 0.657855 0.934823 -0.566028
O40   O     O_R   0.048886 0.619976 0.858742 -0.664069
H34   H     H_    0.035215 0.735210 0.873703 0.304726
C79   C     C_2   0.614474 0.436121 0.407911 0.785011
O41   O     O_2   0.569918 0.368420 0.390752 -0.563238
O42   O     O_R   0.655033 0.343922 0.448191 -0.641459
H35   H     H_    0.642082 0.225663 0.462403 0.284933
C80   C     C_2   0.906336 0.067336 0.112054 0.784615
O43   O     O_2   0.885986 0.142397 0.065138 -0.563181
O44   O     O_R   0.952084 0.139438 0.151014 -0.661706
H36   H     H_    0.966543 0.251532 0.134903 0.293923
O45   O     O_3   0.358432 0.576183 0.717784 -0.552786
C81   C     C_3   0.406079 0.678399 0.737363 -0.239474
H37   H     H_    0.410797 0.776105 0.702698 0.160688
H38   H     H_    0.441868 0.589615 0.751650 0.128630
H39   H     H_    0.403093 0.760397 0.776412 0.165713
O46   O     O_3   0.165652 0.908184 0.810063 -0.564640
C82   C     C_3   0.124975 0.873618 0.758227 -0.259297
H40   H     H_    0.120313 0.989747 0.726655 0.146181
H41   H     H_    0.086239 0.842307 0.768867 0.164737
H42   H     H_    0.136145 0.752629 0.735591 0.159246
O47   O     O_3   0.661625 0.098641 0.306893 -0.558229
C83   C     C_3   0.618540 0.145293 0.258954 -0.246313
H43   H     H_    0.583104 0.188142 0.274480 0.160297
H44   H     H_    0.607771 0.031274 0.226369 0.142182
H45   H     H_    0.630833 0.262970 0.235602 0.162259
O48   O     O_3   0.831091 0.407349 0.185868 -0.561474
C84   C     C_3   0.867739 0.369592 0.240352 -0.260238
H46   H     H_    0.870541 0.483631 0.272671 0.146831
H47   H     H_    0.907973 0.338062 0.233813 0.166270
H48   H     H_    0.853484 0.248189 0.260092 0.162138

loop_
_geom_bond_atom_site_label_1
_geom_bond_atom_site_label_2
_ccdc_geom_bond_type
O17   V3    S    
C6    C20   S    
C82   H40   S    
C46   O46   S    
C9    C69   S    
C24   C76   S    
C7    C17   S    
C47   O47   S    
O19   V1    S    
O13   V1    S    
C37   C41   A    
O36   H32   S    
C10   C30   A    
C44   C48   A    
O4    V2    S    
O15   V3    S    
C39   C43   A    
C80   O43   D    
C22   C74   S    
C77   O37   D    
O24   H26   S    
C34   C38   A    
C36   C80   S    
O1    C5    A    
C74   O32   S    
O5    C1    A    
O45   C81   S    
C62   C66   A    
C61   C65   A    
C14   H2    S    
C20   C24   A    
C27   H7    S    
C77   O38   S    
O42   H35   S    
C26   H6    S    
C11   C15   A    
O4    C8    A    
C33   C37   A    
C38   C42   A    
O46   C82   S    
O34   H31   S    
O1    V3    S    
O2    V4    S    
C11   C71   S    
C12   C16   A    
C21   C73   S    
C50   C54   A    
C80   O44   S    
C23   C75   S    
C25   C29   A    
C1    O15   A    
C83   H45   S    
C52   H16   S    
C2    O16   A    
C43   C47   A    
C27   C31   A    
O2    C6    A    
O38   H33   S    
C28   C32   A    
C37   H9    S    
O14   V2    S    
C2    C56   S    
C78   O40   S    
C1    C55   S    
C23   C27   A    
O8    C4    A    
C34   C54   A    
C57   C61   A    
C3    C53   S    
C12   C32   A    
O11   C7    A    
O12   C8    A    
C43   C68   S    
C81   H38   S    
C4    C54   S    
C60   C67   A    
C49   C53   A    
O10   V2    S    
C76   O36   S    
O16   V4    S    
C76   O35   D    
O5    V1    S    
C84   H47   S    
C82   H42   S    
C60   C64   A    
O7    V3    S    
C51   H15   S    
O8    V4    S    
O30   H29   S    
C59   H19   S    
C50   H14   S    
C59   C68   A    
C49   H13   S    
O18   V4    S    
C58   C65   A    
C19   C23   A    
C26   C30   A    
C60   H20   S    
O3    C7    A    
C84   H46   S    
C9    C13   A    
C64   H24   S    
C79   O41   D    
C51   C55   A    
C52   C56   A    
C75   O34   S    
O7    C3    A    
C38   H10   S    
C58   H18   S    
C73   O29   D    
C82   H41   S    
C48   O48   S    
C42   C46   A    
O47   C83   S    
C44   C67   S    
C41   C45   A    
C36   C40   A    
C17   C21   A    
O9    C5    A    
C40   H12   S    
C35   C79   S    
C22   C26   A    
O22   H25   S    
C71   O26   S    
C63   C67   A    
C70   O23   D    
C9    C29   A    
C83   H43   S    
O6    V2    S    
C35   C55   A    
C10   C70   S    
C71   O25   D    
C42   C65   S    
C13   C17   A    
O26   H27   S    
O3    V1    S    
O48   C84   S    
C15   C19   A    
C72   O27   D    
C62   H22   S    
C84   H48   S    
O9    V1    S    
C16   C20   A    
C61   H21   S    
C3    O13   A    
C25   H5    S    
C10   C14   A    
C63   H23   S    
C48   C52   A    
O28   H28   S    
C47   C51   A    
O6    C2    A    
C34   C78   S    
C15   H3    S    
O32   H30   S    
O11   V3    S    
O12   V4    S    
C59   C63   A    
C74   O31   D    
C18   C22   A    
C69   O21   D    
C58   C62   A    
C8    C18   S    
O10   C6    A    
C69   O22   S    
C57   C66   A    
C40   C44   A    
C46   C50   A    
C75   O33   D    
C14   C18   A    
C39   H11   S    
C64   C68   A    
C81   H37   S    
C21   C25   A    
O20   V2    S    
C33   C53   A    
C35   C39   A    
C13   H1    S    
C29   C30   S    
C57   H17   S    
C70   O24   S    
O44   H36   S    
C31   C32   S    
C24   C28   A    
C16   H4    S    
C28   H8    S    
C81   H39   S    
C79   O42   S    
C4    O14   A    
O40   H34   S    
C73   O30   S    
C33   C77   S    
C45   O45   S    
C11   C31   A    
C72   O28   S    
C78   O39   D    
C12   C72   S    
C45   C49   A    
C41   C66   S    
C36   C56   A    
C83   H44   S    
C5    C19   S    
