data_mof_unit_51488.cif
_audit_creation_date              2012-12-10T17:17:22-0500
_audit_creation_method            fapswitch 2.2
_symmetry_space_group_name_H-M    P1
_symmetry_Int_Tables_number       1
_space_group_crystal_system       triclinic
_cell_length_a                    10.163988
_cell_length_b                    10.837026
_cell_length_c                    12.34915
_cell_angle_alpha                 90.616112
_cell_angle_beta                  110.077707
_cell_angle_gamma                 95.794245
_cell_volume                      1269.53390353

loop_
_atom_site_label
_atom_site_type_symbol
_atom_type_description
_atom_site_fract_x
_atom_site_fract_y
_atom_site_fract_z
_atom_type_partial_charge
C1    C     C_R   0.050022 0.732147 0.489723 0.968041
C2    C     C_R   0.204460 0.491608 0.839958 -0.217728
C3    C     C_2   0.072956 0.863235 0.474544 -0.351661
C4    C     C_R   0.133948 0.505083 0.714948 0.898024
C5    C     C_2   0.969292 0.931814 0.469169 -0.130232
C6    C     C_2   0.910442 0.134869 0.497772 -0.337408
C7    C     C_2   0.991874 0.063740 0.466033 -0.138691
C8    C     C_2   0.433079 0.510300 0.512320 -0.104489
C9    C     C_2   0.569906 0.480475 0.502345 -0.125048
C10   C     C_R   0.946557 0.267449 0.504574 0.934835
C11   C     C_R   0.862712 0.478327 0.286754 0.919502
C12   C     C_R   0.412958 0.438683 0.994715 0.069762
C13   C     C_R   0.753928 0.381086 0.970075 -0.164426
C14   C     C_R   0.780622 0.436605 0.167889 -0.114059
C15   C     C_R   0.161337 0.553234 0.922991 0.122929
C16   C     C_R   0.243693 0.554016 0.040631 0.170762
C17   C     C_R   0.368336 0.499622 0.074929 -0.231726
C18   C     C_R   0.326764 0.426975 0.877743 0.049717
C19   C     C_R   0.550144 0.403086 0.026137 0.079309
C20   C     C_R   0.607001 0.375034 0.940802 0.140676
C21   C     C_R   0.514634 0.341433 0.829694 -0.221969
C22   C     C_R   0.372446 0.357050 0.801664 -0.156548
C23   C     C_R   0.636460 0.404645 0.140262 0.063139
C24   C     C_R   0.841134 0.421007 0.082543 -0.169215
H1    H     H_    0.954092 0.435289 0.103314 0.194883
H2    H     H_    0.800343 0.362776 0.905407 0.161157
H3    H     H_    0.434273 0.512650 0.164857 0.193375
H4    H     H_    0.302110 0.319436 0.718238 0.179956
H5    H     H_    0.082018 0.102685 0.444182 0.191699
H6    H     H_    0.869148 0.891710 0.474300 0.194713
H7    H     H_    0.820572 0.095530 0.519649 0.161446
H8    H     H_    0.172894 0.903756 0.469501 0.161598
H9    H     H_    0.571305 0.394668 0.458178 0.192818
H10   H     H_    0.434063 0.587034 0.569869 0.172257
H11   H     H_    0.680406 0.634724 0.586470 0.184476
H12   H     H_    0.316966 0.373995 0.401518 0.185804
H13   H     H_    0.551825 0.304426 0.764949 0.151372
I1    I     I_    0.561561 0.283866 0.246751 -0.402420
I2    I     I_    0.982163 0.656863 0.877608 -0.325449
I3    I     I_    0.199894 0.649129 0.174166 -0.324552
N1    N     N_2   0.313640 0.446500 0.454900 -0.185312
N2    N     N_2   0.686360 0.553430 0.545150 -0.180221
O1    O     O_R   0.936910 0.692950 0.509080 -0.606307
O2    O     O_R   0.138320 0.658600 0.480130 -0.590298
O3    O     O_R   0.002900 0.525670 0.675280 -0.572717
O4    O     O_R   0.204310 0.491320 0.646330 -0.623140
O5    O     O_R   0.861680 0.341400 0.519870 -0.602108
O6    O     O_R   0.063090 0.307050 0.490920 -0.629477
O7    O     O_R   0.795690 0.508680 0.353670 -0.588658
O8    O     O_R   0.997100 0.474330 0.324720 -0.593465
Zn1   Zn    Zn3+2 0.865520 0.522940 0.519330 0.982745
Zn2   Zn    Zn3+2 0.134480 0.477060 0.480670 0.962328

loop_
_geom_bond_atom_site_label_1
_geom_bond_atom_site_label_2
_ccdc_geom_bond_type
C12   C17   A    
C6    C10   S    
O8    Zn2   S    
C6    C7    D    
C7    H5    S    
C2    C18   A    
C23   I1    S    
N1    Zn2   S    
C2    C4    S    
C19   C20   A    
N2    Zn1   S    
C3    C5    D    
O1    Zn1   S    
O2    Zn2   S    
C6    H7    S    
H12   N1    S    
C8    N1    D    
C11   O8    A    
C8    H10   S    
C21   C22   A    
C20   C21   A    
C9    H9    S    
C2    C15   A    
C15   I2    S    
C9    N2    D    
C16   I3    S    
C11   O7    A    
C12   C19   A    
C14   C23   A    
C4    O3    A    
C10   O6    A    
C3    H8    S    
C4    O4    A    
C11   C14   S    
C13   H2    S    
O3    Zn1   S    
C12   C18   A    
C15   C16   A    
C17   H3    S    
O4    Zn2   S    
O6    Zn2   S    
C21   H13   S    
C24   H1    S    
C5    H6    S    
C14   C24   A    
C10   O5    A    
C5    C7    S    
H11   N2    S    
C19   C23   A    
C16   C17   A    
C22   H4    S    
C1    O2    A    
C13   C20   A    
O7    Zn1   S    
C18   C22   A    
C1    O1    A    
O5    Zn1   S    
C13   C24   A    
C8    C9    S    
C1    C3    S    
