data_mof_unit_6899.cif
_audit_creation_date              2012-12-10T17:21:05-0500
_audit_creation_method            fapswitch 2.2
_symmetry_space_group_name_H-M    P1
_symmetry_Int_Tables_number       1
_space_group_crystal_system       triclinic
_cell_length_a                    10.161477
_cell_length_b                    10.679321
_cell_length_c                    10.615409
_cell_angle_alpha                 90.694688
_cell_angle_beta                  96.021383
_cell_angle_gamma                 81.644306
_cell_volume                      1133.43764689

loop_
_atom_site_label
_atom_site_type_symbol
_atom_type_description
_atom_site_fract_x
_atom_site_fract_y
_atom_site_fract_z
_atom_type_partial_charge
C1    C     C_R   0.443838 0.502098 0.266043 0.929000
C2    C     C_2   0.934141 0.490975 0.524922 -0.011524
C3    C     C_R   0.499121 0.257932 0.495921 0.826706
C4    C     C_R   0.555715 0.482158 0.733189 0.948206
C5    C     C_R   0.497357 0.741684 0.489159 0.845506
C6    C     C_3   0.624006 0.052874 0.422781 -0.161447
C7    C     C_3   0.619007 0.909348 0.416498 -0.199641
C8    C     C_3   0.497021 0.070852 0.624753 -0.412735
C9    C     C_3   0.369482 0.092909 0.409904 -0.478453
C10   C     C_3   0.499953 0.121182 0.489474 0.113680
C11   C     C_R   0.764784 0.079323 0.474855 0.177079
C12   C     C_3   0.495442 0.878681 0.482203 0.074754
C13   C     C_R   0.819618 0.051205 0.600650 -0.156352
C14   C     C_R   0.941203 0.089182 0.647867 -0.135430
C15   C     C_R   0.013065 0.150454 0.568917 -0.094065
C16   C     C_R   0.966076 0.169021 0.441312 -0.135785
C17   C     C_R   0.842437 0.135043 0.394668 -0.101412
C18   C     C_1   0.240240 0.922339 0.460239 0.212089
C19   C     C_1   0.375857 0.360492 0.873515 0.230085
C20   C     C_R   0.906628 0.538746 0.651825 0.238925
C21   C     C_R   0.942610 0.457674 0.756875 -0.111493
C22   C     C_R   0.949418 0.507104 0.879514 -0.185139
C23   C     C_3   0.507157 0.926446 0.621624 -0.440380
C24   C     C_R   0.921319 0.637607 0.897788 -0.138753
C25   C     C_R   0.881850 0.718480 0.794065 -0.178811
C26   C     C_R   0.875665 0.669359 0.671393 -0.159272
C27   C     C_R   0.629024 0.854685 0.282075 0.100670
C28   C     C_R   0.721302 0.745458 0.264338 -0.083796
C29   C     C_R   0.724711 0.687213 0.145990 -0.138397
C30   C     C_R   0.641770 0.740950 0.041561 -0.108512
C31   C     C_R   0.555191 0.852657 0.055350 -0.147262
C32   C     C_R   0.548612 0.909253 0.174179 -0.181500
C33   C     C_3   0.363218 0.948923 0.409075 -0.139452
C34   C     C_2   0.413286 0.478982 0.131930 -0.358701
C35   C     C_2   0.511218 0.418576 0.068472 -0.215213
C36   C     C_2   0.585523 0.451716 0.866993 -0.445099
C37   C     C_2   0.494129 0.408816 0.932279 0.038629
C38   C     C_2   0.073463 0.486909 0.490291 -0.184001
H1    H     H_    0.400932 0.110905 0.661343 0.191120
H2    H     H_    0.708467 0.863166 0.475864 0.142129
H3    H     H_    0.576059 0.102153 0.692763 0.157473
H4    H     H_    0.603158 0.882536 0.673516 0.159393
H5    H     H_    0.280011 0.145662 0.448907 0.188984
H6    H     H_    0.365624 0.128540 0.311488 0.138776
H7    H     H_    0.353214 0.914650 0.310323 0.120478
H8    H     H_    0.770435 0.999449 0.663040 0.111930
H9    H     H_    0.980510 0.069732 0.745525 0.123526
H10   H     H_    0.107471 0.179368 0.605542 0.129616
H11   H     H_    0.024354 0.212010 0.378806 0.098983
H12   H     H_    0.426504 0.897770 0.673490 0.187255
H13   H     H_    0.806295 0.154722 0.296264 0.095809
H14   H     H_    0.971194 0.357182 0.743643 0.132447
H15   H     H_    0.980115 0.444656 0.960113 0.130465
H16   H     H_    0.932336 0.676489 0.992118 0.138925
H17   H     H_    0.861460 0.819586 0.808617 0.131153
H18   H     H_    0.857408 0.733326 0.591765 0.119758
H19   H     H_    0.788887 0.702949 0.342831 0.133965
H20   H     H_    0.792052 0.600299 0.135491 0.111592
H21   H     H_    0.645389 0.697372 0.949392 0.138334
H22   H     H_    0.492420 0.895288 0.973827 0.130735
H23   H     H_    0.611420 0.389001 0.114814 0.173960
H24   H     H_    0.480306 0.995763 0.179911 0.121486
H25   H     H_    0.678426 0.474683 0.915562 0.152389
H26   H     H_    0.313622 0.510180 0.085439 0.154664
H27   H     H_    0.106600 0.425646 0.414034 0.152419
H28   H     H_    0.869152 0.419603 0.360770 0.141953
H29   H     H_    0.607209 0.091722 0.324930 0.117525
H30   H     H_    0.126950 0.610496 0.623359 0.191617
N1    N     N_2   0.157300 0.551950 0.551120 -0.183968
N2    N     N_2   0.842730 0.448000 0.448950 -0.214243
N3    N     N_1   0.145096 0.897663 0.499440 -0.204335
N4    N     N_1   0.281749 0.321882 0.826893 -0.251941
O1    O     O_R   0.568940 0.489540 0.307530 -0.610887
O2    O     O_R   0.348880 0.522880 0.340350 -0.615916
O3    O     O_R   0.610030 0.298130 0.483570 -0.610974
O4    O     O_R   0.389960 0.331470 0.516390 -0.620601
O5    O     O_R   0.651120 0.477120 0.659650 -0.594021
O6    O     O_R   0.431060 0.510460 0.692470 -0.589552
O7    O     O_R   0.610040 0.668530 0.483610 -0.631002
O8    O     O_R   0.389970 0.701870 0.516430 -0.604760
Zn1   Zn    Zn3+2 0.646940 0.477740 0.478080 0.932016
Zn2   Zn    Zn3+2 0.353060 0.522260 0.521920 0.948618

loop_
_geom_bond_atom_site_label_1
_geom_bond_atom_site_label_2
_ccdc_geom_bond_type
C4    C36   S    
C33   H7    S    
C17   H13   S    
C28   H19   S    
C12   C23   S    
C23   H4    S    
C1    O2    A    
C36   C37   D    
C35   C37   S    
C30   C31   A    
C24   H16   S    
C16   H11   S    
C8    C23   S    
C7    C27   S    
C34   C35   D    
N2    Zn1   S    
O6    Zn2   S    
N1    Zn2   S    
C19   C37   S    
H30   N1    S    
C11   C17   A    
C16   C17   A    
C7    H2    S    
C8    H1    S    
C5    O7    A    
C36   H25   S    
C3    O3    A    
C9    C10   S    
C38   N1    D    
C21   C22   A    
C9    C33   S    
C19   N4    T    
C15   H10   S    
O2    Zn2   S    
O1    Zn1   S    
C1    C34   S    
C22   H15   S    
C7    C12   S    
C9    H5    S    
C2    C20   S    
C8    H3    S    
C5    C12   S    
O8    Zn2   S    
O4    Zn2   S    
C6    C11   S    
O7    Zn1   S    
O3    Zn1   S    
C23   H12   S    
C25   C26   A    
C31   H22   S    
C4    O6    A    
C29   C30   A    
C2    C38   S    
C31   C32   A    
C38   H27   S    
O5    Zn1   S    
C30   H21   S    
C20   C21   A    
C34   H26   S    
C35   H23   S    
C24   C25   A    
C5    O8    A    
C3    O4    A    
C6    C7    S    
C6    H29   S    
C22   C24   A    
C18   N3    T    
C28   C29   A    
C9    H6    S    
C27   C32   A    
C14   C15   A    
C25   H17   S    
C26   H18   S    
C6    C10   S    
C14   H9    S    
C1    O1    A    
C32   H24   S    
C4    O5    A    
C3    C10   S    
C2    N2    D    
C11   C13   A    
H28   N2    S    
C20   C26   A    
C18   C33   S    
C29   H20   S    
C8    C10   S    
C27   C28   A    
C13   H8    S    
C12   C33   S    
C13   C14   A    
C21   H14   S    
C15   C16   A    
