data_mof_unit_35063.cif
_audit_creation_date              2013-03-05T16:31:37-0500
_audit_creation_method            fapswitch 2.2
_symmetry_space_group_name_H-M    P1
_symmetry_Int_Tables_number       1
_space_group_crystal_system       triclinic
_cell_length_a                    9.55417
_cell_length_b                    10.85683
_cell_length_c                    15.556546
_cell_angle_alpha                 89.866158
_cell_angle_beta                  74.19719
_cell_angle_gamma                 90.736494
_cell_volume                      1552.504095

loop_
_atom_site_label
_atom_site_type_symbol
_atom_site_description
_atom_site_fract_x
_atom_site_fract_y
_atom_site_fract_z
_atom_type_partial_charge
O1    O     O_R   0.118810 0.319640 0.500000 -0.578420
O2    O     O_R   0.881230 0.319680 0.499990 -0.586385
C1    C     C_R   0.998251 0.262575 0.502102 0.799771
O3    O     O_R   0.055580 0.499970 0.629840 -0.595951
O4    O     O_R   0.818000 0.500010 0.629830 -0.593667
C2    C     C_R   0.918077 0.501220 0.671860 0.788706
Cu1   Cu    Cu3+1 0.140670 0.499980 0.500000 0.955485
Cu2   Cu    Cu3+1 0.859330 0.500020 0.500000 0.949925
O5    O     O_R   0.118770 0.680320 0.500010 -0.576789
O6    O     O_R   0.881190 0.680360 0.500000 -0.590338
O7    O     O_R   0.182000 0.499990 0.370170 -0.580381
O8    O     O_R   0.944420 0.500030 0.370160 -0.583752
C3    C     C_R   0.000255 0.737777 0.500606 0.851508
C4    C     C_R   0.081898 0.498782 0.327998 0.836146
C5    C     C_R   0.872343 0.512416 0.769321 -0.043863
C6    C     C_R   0.126963 0.494584 0.229917 -0.041408
C7    C     C_R   0.918196 0.577636 0.907517 -0.211518
C8    C     C_R   0.968808 0.554635 0.816443 -0.202398
C9    C     C_R   0.726194 0.490496 0.814284 -0.240987
C10   C     C_R   0.670979 0.517430 0.905452 0.093844
C11   C     C_R   0.770637 0.559397 0.952273 0.162323
C12   C     C_R   0.520183 0.504660 0.951068 0.069735
C13   C     C_R   0.473651 0.524684 0.044926 0.066677
C14   C     C_R   0.576992 0.567024 0.088666 -0.194124
C15   C     C_R   0.722109 0.584474 0.043009 -0.229515
C16   C     C_R   0.413895 0.475992 0.905740 -0.213634
C17   C     C_R   0.267796 0.463294 0.951210 -0.233805
C18   C     C_R   0.221810 0.476700 0.043481 0.166331
C19   C     C_R   0.324434 0.504926 0.091578 0.093828
C20   C     C_R   0.073839 0.461107 0.088411 -0.202916
C21   C     C_R   0.026261 0.472136 0.180952 -0.189640
C22   C     C_R   0.274474 0.509090 0.185186 -0.205212
H1    H     H_    0.796961 0.618180 0.079212 0.152735
H2    H     H_    0.349188 0.519258 0.225218 0.140005
H3    H     H_    0.911630 0.459533 0.214235 0.153048
H4    H     H_    0.190348 0.441573 0.913708 0.146938
H5    H     H_    0.993962 0.612196 0.942691 0.145551
H6    H     H_    0.082207 0.572836 0.782606 0.152062
H7    H     H_    0.657993 0.452020 0.776137 0.137018
H8    H     H_    0.548846 0.591991 0.157958 0.144512
H9    H     H_    0.438723 0.465974 0.834379 0.133523
H10   H     H_    0.995012 0.439117 0.052024 0.144297
C23   C     C_R   0.119194 0.066298 0.510217 0.034726
C24   C     C_R   0.993402 0.129825 0.510684 -0.057035
C25   C     C_R   0.862865 0.062687 0.521673 -0.198404
H11   H     H_    0.760989 0.108990 0.527470 0.160687
C26   C     C_R   0.864632 0.933963 0.520398 -0.195781
H12   H     H_    0.763340 0.884365 0.526275 0.156284
C27   C     C_R   0.997187 0.871232 0.506880 -0.038262
C28   C     C_R   0.122309 0.940058 0.505730 0.012058
C29   C     C_3   0.276167 0.943161 0.446511 0.170883
C30   C     C_3   0.271410 0.082834 0.453438 -0.456361
H13   H     H_    0.355472 0.902539 0.478664 0.071915
H14   H     H_    0.344298 0.121059 0.491939 0.168828
H15   H     H_    0.277225 0.131764 0.389563 0.223702
C31   C     C_R   0.608099 0.529183 0.424230 0.240607
N1    N     N_R   0.648210 0.500930 0.499430 -0.182433
C32   C     C_R   0.541625 0.458266 0.571788 -0.076414
H16   H     H_    0.569768 0.425466 0.630450 0.133772
C33   C     C_R   0.392972 0.458568 0.571871 -0.085335
H17   H     H_    0.311142 0.426569 0.630568 0.138230
N2    N     N_R   0.352300 0.500890 0.499430 -0.185816
C34   C     C_R   0.460671 0.529065 0.424200 0.223497
C35   C     C_3   0.480102 0.648732 0.375427 -0.416073
C36   C     C_3   0.639176 0.647782 0.374177 -0.481750
H18   H     H_    0.462281 0.641676 0.308277 0.204789
H19   H     H_    0.418395 0.721583 0.417888 0.221176
H20   H     H_    0.713543 0.635979 0.306100 0.197008
H21   H     H_    0.670017 0.723415 0.413787 0.219425
N3    N     N_R   0.294430 0.903084 0.354066 0.138061
O9    O     O_R   0.189541 0.849397 0.329041 -0.371710
O10   O     O_R   0.419543 0.920548 0.295630 -0.359537

loop_
_geom_bond_atom_site_label_1
_geom_bond_atom_site_label_2
_geom_bond_distance
_ccdc_geom_bond_type
C5    C8    1.398418 A    
C9    C10   1.404871 A    
Cu1   Cu2   2.687975 S    
C26   C27   1.410590 A    
C25   H11   1.083147 S    
C6    C21   1.399749 A    
Cu1   O7    1.949555 S    
C16   C17   1.387296 A    
C13   C19   1.425854 A    
C18   C19   1.417043 A    
C19   C22   1.404540 A    
C20   C21   1.392576 A    
O7    C4    1.298735 A    
C23   C30   1.490077 S    
C32   C33   1.419959 A    
C31   C36   1.487264 S    
C31   N1    1.361997 A    
C33   N2    1.368495 A    
O5    C3    1.297618 A    
C22   H2    1.072377 S    
C2    C5    1.464861 S    
C13   C14   1.415926 A    
N3    O9    1.301561 A    
C29   N3    1.468389 S    
C30   H15   1.113272 S    
O3    Cu1   1.961220 S    
C30   H14   1.112113 S    
C7    C8    1.391085 A    
C25   C26   1.397978 A    
C1    C24   1.446081 S    
C29   C30   1.520868 S    
C35   H19   1.100819 S    
C14   C15   1.385254 A    
O3    C2    1.298513 A    
C32   H16   1.080042 S    
C7    C11   1.403245 A    
C33   H17   1.080940 S    
O1    C1    1.293322 A    
C35   H18   1.105896 S    
C5    C9    1.397981 A    
C23   C24   1.391669 A    
Cu1   N2    2.019450 S    
N2    C34   1.365818 A    
Cu2   N1    2.019661 S    
C26   H12   1.083081 S    
Cu2   O8    1.961220 S    
C36   H20   1.111740 S    
C28   C29   1.507213 S    
C31   C34   1.408659 A    
C7    H5    1.083472 S    
C9    H7    1.075180 S    
C3    C27   1.452545 S    
C10   C12   1.426905 A    
C4    C6    1.469195 S    
C24   C25   1.405660 A    
Cu1   O5    1.971738 S    
C11   C15   1.389294 A    
O1    Cu1   1.966357 S    
O2    Cu2   1.971736 S    
O8    C4    1.298814 A    
O6    C3    1.292424 A    
O4    Cu2   1.949552 S    
C23   C28   1.372791 A    
C17   H4    1.083879 S    
C6    C22   1.398186 A    
C35   C36   1.514803 S    
C18   C20   1.403914 A    
O2    C1    1.293527 A    
C8    H6    1.083217 S    
N1    C32   1.371035 A    
O4    C2    1.296971 A    
C36   H21   1.111681 S    
C14   H8    1.073831 S    
C21   H3    1.083161 S    
C34   C35   1.486799 S    
C10   C11   1.418742 A    
Cu2   O6    1.966357 S    
C27   C28   1.397529 A    
C12   C16   1.417117 A    
C17   C18   1.390597 A    
C12   C13   1.423814 A    
C20   H10   1.082959 S    
N3    O10   1.301049 A    
C29   H13   1.110302 S    
C16   H9    1.076241 S    
C15   H1    1.084494 S    
