data_mof_unit_62589.cif
_audit_creation_date              2013-03-05T16:09:35-0500
_audit_creation_method            fapswitch 2.2
_symmetry_space_group_name_H-M    P1
_symmetry_Int_Tables_number       1
_space_group_crystal_system       triclinic
_cell_length_a                    12.766539
_cell_length_b                    13.901723
_cell_length_c                    15.921069
_cell_angle_alpha                 90.177104
_cell_angle_beta                  92.832689
_cell_angle_gamma                 98.010434
_cell_volume                      2794.49023061

loop_
_atom_site_label
_atom_site_type_symbol
_atom_site_description
_atom_site_fract_x
_atom_site_fract_y
_atom_site_fract_z
_atom_type_partial_charge
O1    O     O_R   0.399110 0.356330 0.494870 -0.565403
O2    O     O_R   0.575900 0.366540 0.503830 -0.566604
C1    C     C_R   0.483529 0.315836 0.499125 0.805168
O3    O     O_R   0.411570 0.494900 0.374960 -0.565733
O4    O     O_R   0.588350 0.505100 0.383910 -0.556485
C2    C     C_R   0.500572 0.500047 0.340032 0.813215
Cu1   Cu    Cu3+1 0.395330 0.493960 0.494700 1.070132
Cu2   Cu    Cu3+1 0.604670 0.506040 0.505300 1.047020
O5    O     O_R   0.424100 0.633460 0.496170 -0.558807
O6    O     O_R   0.600890 0.643670 0.505130 -0.566578
O7    O     O_R   0.411650 0.494900 0.616090 -0.533473
O8    O     O_R   0.588430 0.505100 0.625040 -0.577408
C3    C     C_R   0.516471 0.684163 0.500877 0.820219
C4    C     C_R   0.499412 0.500052 0.659963 0.808844
C5    C     C_3   0.394994 0.446754 0.046342 -0.512958
C6    C     C_3   0.594119 0.454343 0.052535 0.220886
C7    C     C_3   0.587829 0.451460 0.954126 0.211781
H1    H     H_    0.387700 0.370040 0.927704 0.103948
H2    H     H_    0.389499 0.370065 0.067681 0.159380
H3    H     H_    0.580419 0.377663 0.075553 0.075557
H4    H     H_    0.560103 0.373500 0.939043 0.105409
C8    C     C_1   0.498023 0.501613 0.749237 -0.073971
C9    C     C_3   0.500685 0.504468 0.083320 -0.033340
C10   C     C_3   0.390674 0.447231 0.948018 0.133635
C11   C     C_3   0.495523 0.506545 0.916510 -0.128932
C12   C     C_3   0.507750 0.614108 0.952589 0.097163
C13   C     C_3   0.513149 0.611615 0.051451 0.130602
C14   C     C_1   0.496744 0.503665 0.824481 0.113477
C15   C     C_1   0.501749 0.502435 0.175439 0.080794
C16   C     C_1   0.501796 0.501116 0.250734 -0.111714
H5    H     H_    0.594447 0.645997 0.072316 0.144533
H6    H     H_    0.326174 0.473768 0.073210 0.279260
H7    H     H_    0.584158 0.652992 0.934244 0.067117
C17   C     C_1   0.525933 0.787537 0.501373 -0.110140
C18   C     C_2   0.543497 0.978461 0.502283 -0.139685
C19   C     C_2   0.456500 0.021533 0.497687 -0.131266
C20   C     C_1   0.465563 0.125380 0.498165 0.038344
C21   C     C_1   0.534434 0.874616 0.501815 0.050493
C22   C     C_1   0.474065 0.212459 0.498618 -0.125123
H8    H     H_    0.378165 0.979117 0.493557 0.178658
H9    H     H_    0.621833 0.020877 0.506415 0.173700
N1    N     N_1   0.238030 0.484880 0.486720 -0.136107
C23   C     C_2   0.028640 0.475969 0.473435 0.108374
C24   C     C_2   0.971433 0.524733 0.526861 0.097147
C25   C     C_1   0.854302 0.518577 0.518107 0.307710
C26   C     C_1   0.145724 0.481661 0.481993 0.311045
N2    N     N_1   0.761970 0.515120 0.513270 -0.140269
N3    N     N_R   0.293545 0.478649 0.910309 0.208264
O9    O     O_R   0.231009 0.523013 0.954099 -0.246013
O10   O     O_R   0.262977 0.452248 0.833461 -0.290182
N4    N     N_R   0.023405 0.584080 0.595648 0.125767
O11   O     O_R   0.974835 0.649633 0.629579 -0.312242
O12   O     O_R   0.112601 0.566244 0.631215 -0.296648
N5    N     N_R   0.976293 0.417008 0.404635 0.119512
O13   O     O_R   0.022605 0.348646 0.372727 -0.324932
O14   O     O_R   0.890228 0.438650 0.366473 -0.359465
O15   O     O_3   0.692258 0.504408 0.085484 -0.582039
C27   C     C_3   0.763039 0.438612 0.108862 -0.148007
H10   H     H_    0.773874 0.389194 0.055844 0.185365
H11   H     H_    0.735220 0.395940 0.164451 0.166537
H12   H     H_    0.841396 0.480552 0.126784 0.210583
O16   O     O_3   0.687601 0.464079 0.915778 -0.555850
C28   C     C_3   0.736218 0.560836 0.908638 -0.136378
H13   H     H_    0.736621 0.603974 0.967243 0.182649
H14   H     H_    0.700793 0.596166 0.853919 0.143739
H15   H     H_    0.820476 0.559518 0.895385 0.208745
N6    N     N_R   0.439444 0.668946 0.090450 0.174593
O17   O     O_R   0.337466 0.648845 0.076747 -0.256051
O18   O     O_R   0.476741 0.741588 0.140028 -0.315365
N7    N     N_R   0.430168 0.674879 0.917650 0.204740
O19   O     O_R   0.375345 0.651109 0.847825 -0.260409
O20   O     O_R   0.439658 0.765402 0.941715 -0.266528

loop_
_geom_bond_atom_site_label_1
_geom_bond_atom_site_label_2
_geom_bond_distance
_ccdc_geom_bond_type
O4    Cu2   1.933402 S    
C5    H2    1.113852 S    
C23   C24   1.382852 D    
C28   H14   1.109210 S    
N7    O19   1.300498 A    
C9    C13   1.564628 S    
C7    O16   1.428708 S    
C7    H4    1.113825 S    
C23   N5    1.444893 S    
C18   C19   1.332298 D    
C6    H3    1.121613 S    
Cu2   O8    1.927677 S    
C7    C11   1.586929 S    
C4    C8    1.422467 S    
C27   H12   1.109161 S    
C5    C9    1.558134 S    
O2    C1    1.285449 A    
C12   C13   1.572793 S    
C28   H15   1.108992 S    
C1    C22   1.425279 S    
C3    C17   1.425245 S    
C20   C22   1.200220 T    
C11   C12   1.584627 S    
C8    C14   1.199191 T    
C10   C11   1.576263 S    
C11   C14   1.466531 S    
Cu1   O7    1.933400 S    
O15   C27   1.411003 S    
C15   C16   1.198936 T    
C18   H9    1.086776 S    
O3    Cu1   1.927679 S    
H1    C10   1.114819 S    
C9    C15   1.466424 S    
C24   N4    1.445793 S    
N3    O10   1.301562 A    
N3    O9    1.301300 A    
C2    C16   1.422690 S    
O8    C4    1.282996 A    
C6    C9    1.560751 S    
C6    O15   1.420942 S    
C25   N2    1.171719 T    
O4    C2    1.284181 A    
C12   N7    1.478450 S    
C23   C26   1.485258 S    
N5    O14   1.301618 A    
Cu2   N2    1.992203 S    
C13   N6    1.473036 S    
N4    O12   1.301794 A    
C13   H5    1.114763 S    
N6    O17   1.300304 A    
C10   N3    1.472354 S    
C5    H6    1.106367 S    
C18   C21   1.432058 S    
N4    O11   1.301665 A    
C24   C25   1.485432 S    
O3    C2    1.282747 A    
Cu1   Cu2   2.651292 S    
N1    C26   1.171691 T    
Cu1   N1    1.992206 S    
O7    C4    1.283872 A    
Cu1   O5    1.922666 S    
O5    C3    1.285439 A    
N5    O13   1.301575 A    
C19   C20   1.432073 S    
C19   H8    1.086777 S    
N7    O20   1.301939 A    
C12   H7    1.100560 S    
N6    O18   1.301338 A    
C27   H10   1.112680 S    
O1    Cu1   1.920620 S    
C27   H11   1.112168 S    
C5    C10   1.563732 S    
Cu2   O6    1.920619 S    
O2    Cu2   1.922669 S    
O16   C28   1.408070 S    
C28   H13   1.107000 S    
C6    C7    1.564971 S    
O1    C1    1.282617 A    
O6    C3    1.282614 A    
C17   C21   1.200206 T    
