data_mof_unit_27734.cif
_audit_creation_date              2013-03-05T15:51:42-0500
_audit_creation_method            fapswitch 2.2
_symmetry_space_group_name_H-M    P1
_symmetry_Int_Tables_number       1
_space_group_crystal_system       triclinic
_cell_length_a                    30.636333
_cell_length_b                    22.722433
_cell_length_c                    18.195074
_cell_angle_alpha                 89.927836
_cell_angle_beta                  123.670651
_cell_angle_gamma                 89.584284
_cell_volume                      10540.7841152

loop_
_atom_site_label
_atom_site_type_symbol
_atom_site_description
_atom_site_fract_x
_atom_site_fract_y
_atom_site_fract_z
_atom_type_partial_charge
C1    C     C_R   0.543257 0.586255 0.738002 -0.020879
C2    C     C_R   0.453686 0.421233 0.255094 -0.065115
C3    C     C_R   0.461827 0.600932 0.278757 -0.111265
C4    C     C_R   0.535674 0.397651 0.717005 -0.079019
C5    C     C_R   0.036289 0.100748 0.719492 -0.078001
C6    C     C_R   0.956099 0.915190 0.260068 -0.095621
C7    C     C_R   0.953115 0.076273 0.253583 -0.036724
C8    C     C_R   0.046040 0.921909 0.744762 -0.021685
H1    H     H_    0.520604 0.583203 0.766412 0.176885
H2    H     H_    0.477059 0.426375 0.228160 0.173139
H3    H     H_    0.486609 0.607418 0.255646 0.177737
H4    H     H_    0.505642 0.385588 0.727076 0.159388
H5    H     H_    0.006467 0.113253 0.730119 0.164568
H6    H     H_    0.980288 0.916231 0.234287 0.175516
H7    H     H_    0.976923 0.069429 0.227547 0.166838
H8    H     H_    0.023171 0.930954 0.771908 0.172802
N1    N     N_R   0.532910 0.558440 0.665240 -0.064144
N2    N     N_R   0.467090 0.441560 0.334760 -0.067210
N3    N     N_R   0.467090 0.558440 0.334760 -0.053846
N4    N     N_R   0.532910 0.441560 0.665240 -0.047901
N5    N     N_R   0.032910 0.058440 0.665240 -0.048988
N6    N     N_R   0.967090 0.941560 0.334760 -0.054089
N7    N     N_R   0.967090 0.058440 0.334760 -0.067839
N8    N     N_R   0.032910 0.941560 0.665240 -0.060001
C9    C     C_R   0.631590 0.603026 0.572120 0.295852
C10   C     C_R   0.358948 0.411482 0.427077 0.327833
C11   C     C_R   0.364436 0.599185 0.426404 0.251179
C12   C     C_R   0.630986 0.395752 0.573410 0.296053
C13   C     C_R   0.127726 0.106619 0.572608 0.298705
C14   C     C_R   0.859043 0.911269 0.428547 0.309150
C15   C     C_R   0.858105 0.087755 0.427282 0.330971
C16   C     C_R   0.139903 0.908258 0.569915 0.315032
N9    N     N_R   0.597030 0.558910 0.545540 -0.105572
N10   N     N_R   0.402970 0.441090 0.454460 -0.121066
N11   N     N_R   0.402970 0.558910 0.454460 -0.110858
N12   N     N_R   0.597030 0.441090 0.545540 -0.104777
N13   N     N_R   0.097030 0.058910 0.545540 -0.107424
N14   N     N_R   0.902970 0.941090 0.454460 -0.119336
N15   N     N_R   0.902970 0.058910 0.454460 -0.122612
N16   N     N_R   0.097030 0.941090 0.545540 -0.113236
C17   C     C_R   0.583578 0.601248 0.425283 0.287802
C18   C     C_R   0.405904 0.414789 0.573213 0.272945
C19   C     C_R   0.416699 0.603768 0.572193 0.320236
C20   C     C_R   0.579257 0.392856 0.426930 0.312596
C21   C     C_R   0.075624 0.109703 0.426673 0.327606
C22   C     C_R   0.909696 0.908792 0.574738 0.315765
C23   C     C_R   0.905253 0.084076 0.573146 0.276257
C24   C     C_R   0.089583 0.909754 0.423250 0.292497
N17   N     N_R   0.566200 0.559270 0.454460 -0.106956
N18   N     N_R   0.433800 0.440730 0.545540 -0.116007
N19   N     N_R   0.433800 0.559270 0.545540 -0.114169
N20   N     N_R   0.566200 0.440730 0.454460 -0.108717
N21   N     N_R   0.066200 0.059270 0.454460 -0.110028
N22   N     N_R   0.933800 0.940730 0.545540 -0.121876
N23   N     N_R   0.933800 0.059270 0.545540 -0.117915
N24   N     N_R   0.066200 0.940730 0.454460 -0.112255
C25   C     C_R   0.390273 0.603628 0.281549 -0.114094
C26   C     C_R   0.611012 0.399804 0.725578 -0.098357
C27   C     C_R   0.614938 0.590031 0.735920 -0.115118
C28   C     C_R   0.381826 0.421769 0.256445 -0.043401
C29   C     C_R   0.881339 0.076467 0.254825 -0.026933
C30   C     C_R   0.117616 0.917624 0.742328 -0.086482
C31   C     C_R   0.111833 0.097225 0.728758 -0.100198
C32   C     C_R   0.883879 0.914013 0.261469 -0.108539
H9    H     H_    0.351642 0.613654 0.264289 0.156349
H10   H     H_    0.652237 0.395370 0.754718 0.188007
H11   H     H_    0.655880 0.592576 0.761214 0.182722
H12   H     H_    0.341460 0.432181 0.230705 0.167361
H13   H     H_    0.841345 0.065528 0.230031 0.158635
H14   H     H_    0.158027 0.919479 0.764664 0.170090
H15   H     H_    0.153353 0.099428 0.759049 0.182756
H16   H     H_    0.842868 0.915981 0.235925 0.171890
N25   N     N_R   0.421050 0.559750 0.334770 -0.049570
N26   N     N_R   0.578950 0.440250 0.665230 -0.055524
N27   N     N_R   0.578950 0.559750 0.665230 -0.059447
N28   N     N_R   0.421050 0.440250 0.334770 -0.063743
N29   N     N_R   0.921050 0.059750 0.334770 -0.063045
N30   N     N_R   0.078950 0.940250 0.665230 -0.057691
N31   N     N_R   0.078950 0.059750 0.665230 -0.056845
N32   N     N_R   0.921050 0.940250 0.334770 -0.052589
C33   C     C_R   0.592280 0.610527 0.778930 -0.019005
C34   C     C_R   0.400885 0.406858 0.205650 -0.015268
C35   C     C_R   0.416072 0.632551 0.249374 0.005123
C36   C     C_R   0.583597 0.369547 0.753878 -0.011941
C37   C     C_R   0.084789 0.126733 0.758690 -0.011753
C38   C     C_R   0.904619 0.896614 0.213975 0.000687
C39   C     C_R   0.899893 0.089415 0.202668 -0.020874
C40   C     C_R   0.098485 0.905268 0.794193 -0.015200
C41   C     C_R   0.621815 0.632186 0.497556 -0.277552
C42   C     C_R   0.359034 0.395134 0.500029 -0.264837
C43   C     C_R   0.374748 0.631199 0.498975 -0.248279
C44   C     C_R   0.618608 0.362565 0.500816 -0.286080
C45   C     C_R   0.113138 0.140848 0.499661 -0.291027
C46   C     C_R   0.861993 0.890810 0.502933 -0.268889
C47   C     C_R   0.857441 0.102773 0.500002 -0.266632
C48   C     C_R   0.136297 0.887985 0.494506 -0.270452
Ni1   Ni    Ni4+2 0.483090 0.500000 0.604440 0.284899
Ni2   Ni    Ni4+2 0.516910 0.500000 0.395560 0.285722
Ni3   Ni    Ni4+2 0.983090 1.000000 0.604440 0.278396
Ni4   Ni    Ni4+2 0.016910 1.000000 0.395560 0.280242
Ni5   Ni    Ni4+2 0.586780 0.500000 0.604440 0.293992
Ni6   Ni    Ni4+2 0.413220 0.500000 0.395560 0.272146
Ni7   Ni    Ni4+2 0.086780 1.000000 0.604440 0.283363
Ni8   Ni    Ni4+2 0.913220 1.000000 0.395560 0.261442
C49   C     C_R   0.318017 0.783521 0.436626 -0.201088
C50   C     C_R   0.725717 0.257596 0.553016 -0.209295
C51   C     C_R   0.670880 0.785976 0.536090 -0.201782
C52   C     C_R   0.240662 0.306513 0.426170 -0.161170
C53   C     C_R   0.734570 0.185304 0.427276 -0.160167
C54   C     C_R   0.268572 0.878371 0.528391 -0.181625
C55   C     C_R   0.223401 0.232482 0.539134 -0.204419
C56   C     C_R   0.728488 0.872780 0.461276 -0.188477
H17   H     H_    0.306843 0.815514 0.384788 0.125594
H18   H     H_    0.767822 0.258614 0.584038 0.150384
H19   H     H_    0.672047 0.824610 0.571931 0.126517
H20   H     H_    0.221579 0.268824 0.383950 0.147564
H21   H     H_    0.713016 0.222240 0.383849 0.152726
H22   H     H_    0.307070 0.897617 0.569900 0.140631
H23   H     H_    0.264789 0.226701 0.565741 0.143721
H24   H     H_    0.688608 0.887877 0.414728 0.138670
C57   C     C_R   0.342140 0.731028 0.438268 -0.097918
C58   C     C_R   0.699715 0.309108 0.546271 -0.036847
C59   C     C_R   0.644378 0.736172 0.534488 -0.094631
C60   C     C_R   0.285237 0.327988 0.435260 -0.095220
C61   C     C_R   0.779305 0.165815 0.434012 -0.078931
C62   C     C_R   0.227320 0.898879 0.533119 -0.067058
C63   C     C_R   0.195100 0.184761 0.535865 -0.041332
C64   C     C_R   0.769221 0.896355 0.458358 -0.068184
H25   H     H_    0.352150 0.724019 0.390396 0.108190
H26   H     H_    0.722011 0.349051 0.574116 0.158069
H27   H     H_    0.623194 0.737071 0.566340 0.119999
H28   H     H_    0.299348 0.307369 0.398541 0.162750
H29   H     H_    0.790812 0.187108 0.394143 0.168962
H30   H     H_    0.233268 0.936632 0.573832 0.159674
H31   H     H_    0.214897 0.142703 0.561213 0.147778
H32   H     H_    0.761076 0.932735 0.413917 0.167203
C65   C     C_R   0.350844 0.686654 0.498856 0.222702
C66   C     C_R   0.645272 0.309184 0.502645 0.215190
C67   C     C_R   0.647488 0.684445 0.495515 0.230361
C68   C     C_R   0.312847 0.373473 0.494501 0.201968
C69   C     C_R   0.810400 0.121805 0.495105 0.197787
C70   C     C_R   0.179514 0.868728 0.488558 0.197283
C71   C     C_R   0.141513 0.191130 0.499221 0.221307
C72   C     C_R   0.819372 0.870475 0.509227 0.203737
C73   C     C_R   0.339355 0.696717 0.562123 -0.054510
C74   C     C_R   0.616758 0.257367 0.465513 -0.084229
C75   C     C_R   0.674174 0.683172 0.453677 -0.038222
C76   C     C_R   0.294066 0.399297 0.542022 -0.029715
C77   C     C_R   0.794710 0.095269 0.546585 -0.056122
C78   C     C_R   0.171646 0.821522 0.433686 -0.051514
C79   C     C_R   0.116035 0.245498 0.465417 -0.078057
C80   C     C_R   0.830051 0.826380 0.570757 -0.068386
H33   H     H_    0.344759 0.662667 0.608135 0.169598
H34   H     H_    0.574565 0.257113 0.433086 0.139533
H35   H     H_    0.677305 0.643097 0.424645 0.156595
H36   H     H_    0.313557 0.436561 0.584678 0.158835
H37   H     H_    0.816690 0.058880 0.590610 0.169057
H38   H     H_    0.135217 0.797385 0.400192 0.153334
H39   H     H_    0.074544 0.250506 0.438121 0.148843
H40   H     H_    0.868446 0.805929 0.610347 0.165355
C81   C     C_R   0.317947 0.750003 0.563424 -0.170607
C82   C     C_R   0.642659 0.206301 0.467180 -0.182635
C83   C     C_R   0.698494 0.733353 0.451790 -0.178853
C84   C     C_R   0.251079 0.374830 0.537411 -0.197199
C85   C     C_R   0.751929 0.118337 0.544933 -0.204770
C86   C     C_R   0.211528 0.803488 0.424628 -0.179898
C87   C     C_R   0.144172 0.293091 0.464713 -0.180663
C88   C     C_R   0.790361 0.805634 0.577723 -0.184283
H41   H     H_    0.743590 0.102990 0.592270 0.132899
H42   H     H_    0.205937 0.764470 0.386156 0.147925
H43   H     H_    0.124196 0.334157 0.433479 0.143193
H44   H     H_    0.798312 0.768423 0.620974 0.147657
H45   H     H_    0.305907 0.755635 0.608931 0.154027
H46   H     H_    0.620385 0.167689 0.431773 0.136702
H47   H     H_    0.721152 0.731450 0.422546 0.148693
H48   H     H_    0.239897 0.390271 0.581104 0.133255
C89   C     C_R   0.304542 0.792027 0.497707 0.109446
C90   C     C_R   0.697082 0.207023 0.509755 0.089354
C91   C     C_R   0.698702 0.783803 0.496163 0.110826
C92   C     C_R   0.225797 0.327027 0.481641 0.110976
C93   C     C_R   0.723285 0.164958 0.487436 0.106134
C94   C     C_R   0.260840 0.829701 0.475732 0.087643
C95   C     C_R   0.197655 0.285856 0.500350 0.092479
C96   C     C_R   0.739038 0.825734 0.518425 0.096492
C97   C     C_R   0.400023 0.689254 0.200627 0.127730
C98   C     C_R   0.600564 0.315014 0.807145 0.127448
C99   C     C_R   0.613301 0.656507 0.845884 0.132874
C100  C     C_R   0.367387 0.388883 0.112091 0.125036
C101  C     C_R   0.866375 0.104733 0.107442 0.121362
C102  C     C_R   0.130325 0.888363 0.888953 0.123035
C103  C     C_R   0.102807 0.178715 0.816110 0.125782
C104  C     C_R   0.872179 0.873620 0.123940 0.127115
C105  C     C_R   0.411312 0.766058 0.120074 -0.180046
C106  C     C_R   0.592500 0.244871 0.899117 -0.178929
C107  C     C_R   0.615297 0.710361 0.962020 -0.177837
C108  C     C_R   0.352507 0.364631 0.970008 -0.168656
C109  C     C_R   0.854338 0.131829 0.968045 -0.167075
C110  C     C_R   0.136955 0.852731 0.020692 -0.165369
C111  C     C_R   0.097410 0.244122 0.915633 -0.176416
C112  C     C_R   0.847823 0.861338 0.973463 -0.177938
C113  C     C_R   0.427315 0.712876 0.166247 -0.146118
C114  C     C_R   0.575913 0.296185 0.848654 -0.147991
C115  C     C_R   0.595657 0.664559 0.901508 -0.108417
C116  C     C_R   0.385136 0.386624 0.055778 -0.139183
C117  C     C_R   0.886220 0.109763 0.054353 -0.140965
C118  C     C_R   0.106927 0.875616 0.935002 -0.145316
C119  C     C_R   0.079722 0.195005 0.861374 -0.149226
C120  C     C_R   0.883416 0.881253 0.059675 -0.148427
C121  C     C_R   0.358113 0.721411 0.191798 -0.231622
C122  C     C_R   0.640606 0.280402 0.813715 -0.230397
C123  C     C_R   0.648469 0.696133 0.847909 -0.226169
C124  C     C_R   0.316305 0.371132 0.080140 -0.232122
C125  C     C_R   0.813611 0.118681 0.070886 -0.224571
C126  C     C_R   0.184707 0.881568 0.932515 -0.216076
C127  C     C_R   0.142283 0.213572 0.822799 -0.231486
C128  C     C_R   0.825762 0.846838 0.101251 -0.237141
C129  C     C_R   0.340635 0.774651 0.144301 0.068085
C130  C     C_R   0.658591 0.228717 0.865260 0.064781
C131  C     C_R   0.668802 0.742493 0.907873 0.066758
C132  C     C_R   0.282180 0.351786 0.993595 0.064738
C133  C     C_R   0.780624 0.139376 0.984128 0.061578
C134  C     C_R   0.215674 0.858237 0.018304 0.062750
C135  C     C_R   0.161110 0.263229 0.877514 0.064962
C136  C     C_R   0.787455 0.832926 0.014434 0.073475
C137  C     C_R   0.367019 0.796381 0.105859 0.134550
C138  C     C_R   0.634770 0.211703 0.910416 0.138665
C139  C     C_R   0.653079 0.748549 0.967914 0.134764
C140  C     C_R   0.301516 0.345050 0.939248 0.149382
C141  C     C_R   0.802130 0.149407 0.933662 0.148587
C142  C     C_R   0.190836 0.841054 0.061328 0.150289
C143  C     C_R   0.139031 0.277615 0.926523 0.139986
C144  C     C_R   0.799847 0.835889 0.950338 0.136029
C145  C     C_R   0.294248 0.803210 0.126361 0.063762
C146  C     C_R   0.702846 0.196861 0.879753 0.054728
C147  C     C_R   0.708288 0.779052 0.915223 0.052719
C148  C     C_R   0.231058 0.333108 0.964202 0.051705
C149  C     C_R   0.728484 0.157038 0.951398 0.054971
C150  C     C_R   0.269444 0.844736 0.056848 0.054212
C151  C     C_R   0.204436 0.295553 0.890756 0.053642
C152  C     C_R   0.738754 0.811526 0.992932 0.048713
C153  C     C_R   0.723526 0.204662 0.827622 -0.227547
C154  C     C_R   0.270423 0.789829 0.172223 -0.248308
C155  C     C_R   0.206406 0.350162 0.007377 -0.214638
C156  C     C_R   0.719952 0.782502 0.850028 -0.214640
C157  C     C_R   0.298360 0.869386 0.025455 -0.226427
C158  C     C_R   0.702038 0.137340 0.990100 -0.223219
C159  C     C_R   0.720290 0.821082 0.047981 -0.230736
C160  C     C_R   0.223074 0.290597 0.835159 -0.225863
C161  C     C_R   0.771829 0.179436 0.852390 -0.006611
C162  C     C_R   0.219718 0.809864 0.141595 -0.000892
C163  C     C_R   0.160054 0.323868 0.987649 0.004192
C164  C     C_R   0.764528 0.812255 0.866032 0.005425
C165  C     C_R   0.347467 0.846621 0.051192 0.012117
C166  C     C_R   0.654804 0.163209 0.968528 0.011543
C167  C     C_R   0.676833 0.791121 0.034575 0.009214
C168  C     C_R   0.270273 0.316681 0.857452 -0.008148
H49   H     H_    0.658978 0.295778 0.781299 0.164042
H50   H     H_    0.337455 0.703079 0.218384 0.123949
H51   H     H_    0.304529 0.367481 0.125771 0.158900
H52   H     H_    0.661139 0.688918 0.803990 0.145131
H53   H     H_    0.202334 0.889475 0.896453 0.134772
H54   H     H_    0.799433 0.119195 0.113293 0.155437
H55   H     H_    0.820249 0.835256 0.153191 0.143612
H56   H     H_    0.159464 0.199901 0.787585 0.168921
H57   H     H_    0.544545 0.321681 0.844124 0.147164
H58   H     H_    0.460571 0.690105 0.173384 0.158199
H59   H     H_    0.424447 0.400129 0.078398 0.147525
H60   H     H_    0.567463 0.635012 0.899462 0.145506
H61   H     H_    0.065104 0.880778 0.903916 0.157128
H62   H     H_    0.926737 0.099004 0.080198 0.147152
H63   H     H_    0.919215 0.902373 0.075719 0.141480
H64   H     H_    0.048814 0.169095 0.856776 0.147221
H65   H     H_    0.432607 0.781965 0.092547 0.148451
H66   H     H_    0.573319 0.232700 0.932024 0.149387
H67   H     H_    0.602058 0.714391 0.005989 0.152054
H68   H     H_    0.367965 0.361229 0.929161 0.160577
H69   H     H_    0.871487 0.137671 0.930122 0.160826
H70   H     H_    0.117169 0.841174 0.052812 0.160507
H71   H     H_    0.079523 0.254349 0.951417 0.150666
H72   H     H_    0.857936 0.866055 0.925428 0.153274
H73   H     H_    0.702293 0.229117 0.766256 0.169870
H74   H     H_    0.290602 0.764231 0.232536 0.139306
H75   H     H_    0.222413 0.384960 0.055754 0.157852
H76   H     H_    0.694168 0.763631 0.785436 0.149418
H77   H     H_    0.283438 0.907052 0.981521 0.147366
H78   H     H_    0.717469 0.100988 0.036545 0.147928
H79   H     H_    0.739076 0.852601 0.101153 0.164855
H80   H     H_    0.200920 0.268002 0.772770 0.176146
N33   N     N_R   0.680128 0.605849 0.656694 0.224914
O1    O     O_R   0.704028 0.557547 0.698384 -0.339075
O2    O     O_R   0.704047 0.655705 0.687268 -0.442862
N34   N     N_R   0.313156 0.413232 0.339047 0.232030
O3    O     O_R   0.304605 0.368910 0.287653 -0.468114
O4    O     O_R   0.273135 0.444736 0.323010 -0.331734
N35   N     N_R   0.313621 0.594209 0.345650 0.235359
O5    O     O_R   0.302849 0.548648 0.295382 -0.371941
O6    O     O_R   0.276229 0.631516 0.326243 -0.409074
N36   N     N_R   0.679666 0.392345 0.657847 0.214950
O7    O     O_R   0.699447 0.341642 0.695647 -0.473916
O8    O     O_R   0.703609 0.440173 0.699144 -0.340697
N37   N     N_R   0.176164 0.112521 0.656686 0.213054
O9    O     O_R   0.205403 0.066624 0.696932 -0.359187
O10   O     O_R   0.193233 0.164310 0.690647 -0.474619
N38   N     N_R   0.812894 0.911956 0.340956 0.215378
O11   O     O_R   0.783234 0.865766 0.310030 -0.440029
O12   O     O_R   0.798462 0.959805 0.293731 -0.410426
N39   N     N_R   0.813668 0.090632 0.337996 0.230309
O13   O     O_R   0.770714 0.064537 0.317628 -0.361664
O14   O     O_R   0.809834 0.135356 0.289989 -0.451455
N40   N     N_R   0.186210 0.904905 0.657193 0.215815
O15   O     O_R   0.213776 0.856452 0.684503 -0.406418
O16   O     O_R   0.205497 0.952228 0.703927 -0.383775
N41   N     N_R   0.577321 0.600243 0.341275 0.216934
O17   O     O_R   0.568927 0.550694 0.300040 -0.352525
O18   O     O_R   0.575306 0.649063 0.301988 -0.439003
N42   N     N_R   0.416550 0.421388 0.659923 0.221549
O19   O     O_R   0.403312 0.380338 0.693692 -0.422856
O20   O     O_R   0.444689 0.465056 0.709185 -0.374822
N43   N     N_R   0.434399 0.616550 0.661150 0.207368
O21   O     O_R   0.422510 0.581275 0.703676 -0.363507
O22   O     O_R   0.451762 0.668855 0.692405 -0.434190
N44   N     N_R   0.567408 0.385477 0.339704 0.227078
O23   O     O_R   0.559516 0.333288 0.305548 -0.416882
O24   O     O_R   0.573106 0.429535 0.300223 -0.345035
N45   N     N_R   0.060165 0.121935 0.338353 0.226437
O25   O     O_R   0.077072 0.088261 0.301396 -0.343830
O26   O     O_R   0.039719 0.172948 0.302948 -0.419039
N46   N     N_R   0.923043 0.909032 0.663451 0.237225
O27   O     O_R   0.950431 0.864993 0.714623 -0.445882
O28   O     O_R   0.892980 0.937980 0.680720 -0.356587
N47   N     N_R   0.917251 0.078281 0.660913 0.225748
O29   O     O_R   0.948013 0.036088 0.712335 -0.393080
O30   O     O_R   0.903079 0.119332 0.693548 -0.416747
N48   N     N_R   0.079106 0.919733 0.337144 0.229254
O31   O     O_R   0.078498 0.876169 0.290356 -0.426025
O32   O     O_R   0.064005 0.971559 0.300981 -0.379726
N49   N     N_3   0.791284 0.187740 0.797376 -0.205125
H81   H     H_    0.793363 0.232975 0.789221 0.161485
H82   H     H_    0.763994 0.170177 0.735276 0.120855
N50   N     N_3   0.196414 0.794713 0.188957 -0.205969
H83   H     H_    0.197786 0.748923 0.195939 0.157998
H84   H     H_    0.219186 0.812855 0.252026 0.122088
N51   N     N_3   0.136002 0.341695 0.033276 -0.199275
H85   H     H_    0.100575 0.362773 0.987166 0.119669
H86   H     H_    0.158985 0.372786 0.081783 0.159505
N52   N     N_3   0.775274 0.815718 0.798583 -0.206570
H87   H     H_    0.806288 0.786655 0.816362 0.139977
H88   H     H_    0.743199 0.800964 0.738241 0.131460
N53   N     N_3   0.375862 0.871997 0.017312 -0.200240
H89   H     H_    0.409456 0.891451 0.070402 0.108826
H90   H     H_    0.354038 0.905825 0.972239 0.144970
N54   N     N_3   0.628891 0.142719 0.009669 -0.199199
H91   H     H_    0.593900 0.123053 0.960564 0.108406
H92   H     H_    0.651149 0.109891 0.056460 0.149405
N55   N     N_3   0.658981 0.801059 0.091927 -0.200540
H93   H     H_    0.622090 0.821377 0.054192 0.112751
H94   H     H_    0.683440 0.830585 0.141992 0.170486
N56   N     N_3   0.287593 0.311221 0.798956 -0.206195
H95   H     H_    0.290594 0.266410 0.789248 0.158742
H96   H     H_    0.258706 0.329622 0.737971 0.124523

loop_
_geom_bond_atom_site_label_1
_geom_bond_atom_site_label_2
_geom_bond_distance
_ccdc_geom_bond_type
N19   Ni1   1.847963 S    
N44   O24   1.299423 A    
C108  C140  1.411651 A    
C110  C118  1.395780 A    
C54   H22   1.083198 S    
N49   H81   1.045750 S    
C56   C96   1.395702 A    
C29   H13   1.076271 S    
N37   O9    1.297472 A    
N10   Ni6   1.847854 S    
C10   N34   1.429193 S    
C166  N54   1.439032 S    
C107  C115  1.390979 A    
C89   C94   1.440189 S    
C105  C113  1.392332 A    
C98   C114  1.400063 A    
C111  C143  1.406649 A    
C126  C134  1.402206 A    
C140  C168  1.406582 A    
C109  C117  1.400578 A    
C102  C118  1.402893 A    
N4    Ni1   1.846988 S    
C15   N39   1.429309 S    
C25   C35   1.385287 A    
C3    N3    1.345218 A    
C144  C164  1.407942 A    
C108  C116  1.401393 A    
C75   H35   1.083313 S    
C5    H5    1.070081 S    
C20   C44   1.386709 A    
C7    H7    1.078086 S    
C23   N47   1.431948 S    
C8    H8    1.076550 S    
C31   C37   1.387742 A    
C52   C60   1.374707 A    
C17   N17   1.339616 A    
C85   H41   1.083173 S    
N40   O16   1.297255 A    
C156  H76   1.079746 S    
N6    Ni4   1.864829 S    
C157  H77   1.080702 S    
N3    N25   1.410696 A    
C153  C161  1.403260 A    
N50   H83   1.045750 S    
C129  C145  1.420922 A    
C56   H24   1.083278 S    
C87   H43   1.083034 S    
C124  C132  1.396009 A    
C11   N11   1.344126 A    
C157  C165  1.398965 A    
C28   N28   1.327123 A    
C133  C149  1.415132 A    
C151  C160  1.414874 A    
C146  C149  1.409416 A    
C128  C136  1.386903 A    
C20   N44   1.428797 S    
N55   H93   1.045503 S    
C4    C36   1.380788 A    
N54   H91   1.045496 S    
N5    N31   1.411131 A    
C63   C71   1.394022 A    
N7    N29   1.410696 A    
C64   C72   1.404209 A    
N26   Ni5   1.849151 S    
C49   C89   1.396804 A    
C99   C123  1.393929 A    
C3    C35   1.385784 A    
C97   C121  1.402014 A    
C10   C42   1.376509 A    
N36   O7    1.301265 A    
C81   C89   1.398989 A    
C14   N38   1.428361 S    
C24   C48   1.380006 A    
C51   C91   1.393831 A    
C9    C41   1.383346 A    
C127  H56   1.075261 S    
C128  H55   1.080682 S    
C11   N35   1.435912 S    
C42   C68   1.451541 S    
C37   C103  1.471210 S    
C124  H51   1.076454 S    
C38   C104  1.465867 S    
C107  C139  1.407628 A    
C28   H12   1.076050 S    
C121  C129  1.404239 A    
N34   O4    1.300376 A    
C105  C137  1.407060 A    
C14   C46   1.385019 A    
C135  C151  1.421042 A    
C167  N55   1.438992 S    
C100  C124  1.396676 A    
C52   H20   1.084553 S    
C73   C81   1.379304 A    
C79   C87   1.392280 A    
C150  C157  1.411462 A    
C16   N40   1.428403 S    
C3    H3    1.063235 S    
C4    N4    1.340793 A    
C5    N5    1.341579 A    
C62   H30   1.082613 S    
N46   O28   1.300873 A    
C137  C165  1.406385 A    
C18   N42   1.431339 S    
N27   Ni5   1.848641 S    
C112  C144  1.413839 A    
C18   C42   1.387483 A    
N9    N17   1.379404 A    
C154  H74   1.079675 S    
C141  C161  1.407188 A    
C6    N6    1.347925 A    
C17   C41   1.379085 A    
N43   O22   1.301664 A    
N53   H89   1.045490 S    
C147  C152  1.401476 A    
C126  H53   1.071638 S    
C86   C94   1.399482 A    
N11   Ni6   1.846506 S    
C143  C163  1.405288 A    
C121  H50   1.072781 S    
N15   Ni8   1.846506 S    
N35   O6    1.300839 A    
C122  H49   1.075729 S    
C14   N14   1.342771 A    
C49   H17   1.082542 S    
C115  H60   1.082138 S    
N5    Ni3   1.864827 S    
N41   O18   1.301339 A    
C78   C86   1.379899 A    
C59   C67   1.403127 A    
C60   H28   1.082056 S    
C55   H23   1.084505 S    
C25   N25   1.338770 A    
N45   O26   1.300434 A    
C29   C39   1.382085 A    
C27   H11   1.072144 S    
C61   C69   1.397262 A    
C152  C159  1.413292 A    
C11   C43   1.384091 A    
N12   N20   1.379510 A    
N13   N21   1.379404 A    
C20   N20   1.345919 A    
N38   O12   1.298194 A    
N7    Ni4   1.846986 S    
C17   N41   1.431409 S    
N31   Ni7   1.848641 S    
C12   N36   1.431045 S    
N28   Ni6   1.848642 S    
N15   N23   1.379510 A    
C155  C163  1.396416 A    
C76   C84   1.392384 A    
C131  C147  1.416609 A    
C106  C138  1.406213 A    
C77   C85   1.392729 A    
N48   O31   1.299902 A    
C112  H72   1.082535 S    
C100  C116  1.402025 A    
C34   C100  1.479384 S    
N12   Ni5   1.846510 S    
C8    C40   1.386145 A    
C79   H39   1.083087 S    
C163  N51   1.439126 S    
C6    H6    1.074935 S    
N47   O30   1.300990 A    
N52   H88   1.045400 S    
C22   C46   1.379325 A    
C25   H9    1.065351 S    
C50   C58   1.377443 A    
C55   C95   1.399200 A    
N33   O1    1.298644 A    
C19   N43   1.424234 S    
C103  C119  1.399415 A    
N56   H96   1.045869 S    
C136  C152  1.406886 A    
C54   C94   1.397110 A    
C101  C125  1.398463 A    
C18   N18   1.347251 A    
N55   H94   1.045656 S    
C54   C62   1.390659 A    
C86   H42   1.084546 S    
N51   H86   1.045722 S    
C107  H67   1.082762 S    
N22   Ni3   1.865816 S    
C158  H78   1.081439 S    
C4    H4    1.070362 S    
C13   N13   1.343394 A    
C26   N26   1.342966 A    
C91   C96   1.435960 S    
C24   N48   1.431590 S    
C117  H62   1.081546 S    
C30   N30   1.334967 A    
N46   O27   1.300579 A    
C108  H68   1.082817 S    
C109  C141  1.410571 A    
C123  C131  1.395327 A    
C1    N1    1.338786 A    
C6    C38   1.383057 A    
C148  C151  1.408441 A    
C72   C80   1.396625 A    
C75   C83   1.377341 A    
N16   Ni7   1.846510 S    
C83   C91   1.400957 A    
C66   C74   1.402981 A    
C7    N7    1.350505 A    
C21   N21   1.348109 A    
C71   C79   1.401964 A    
C8    N8    1.343561 A    
C130  C138  1.423117 A    
C82   C90   1.395923 A    
C21   N45   1.427246 S    
C145  C154  1.414036 A    
C134  C142  1.417178 A    
C112  C120  1.402408 A    
N23   Ni3   1.847963 S    
N1    N27   1.411131 A    
N1    Ni1   1.864827 S    
C50   C90   1.400330 A    
C129  C137  1.420645 A    
C36   C98   1.474431 S    
C51   C59   1.388511 A    
C44   C66   1.447421 S    
C53   H21   1.084674 S    
C40   C102  1.483175 S    
C74   C82   1.391692 A    
N32   Ni8   1.848642 S    
N9    Ni5   1.847854 S    
C148  C155  1.411401 A    
C65   C73   1.396445 A    
N50   H84   1.044587 S    
C64   H32   1.082146 S    
C1    C33   1.373783 A    
C106  C114  1.390015 A    
C99   C115  1.398422 A    
C132  C140  1.414484 A    
N42   O20   1.299605 A    
C97   C113  1.401483 A    
C168  N56   1.433655 S    
N49   H82   1.045682 S    
C125  C133  1.398801 A    
C111  H71   1.082777 S    
C101  C117  1.402764 A    
N16   N24   1.379510 A    
N54   H92   1.045709 S    
C84   C92   1.397463 A    
N44   O23   1.300125 A    
C83   H47   1.084445 S    
C123  H52   1.076796 S    
C32   N32   1.326183 A    
N36   O8    1.298544 A    
C32   C38   1.383059 A    
C80   C88   1.376922 A    
C135  C143  1.423328 A    
N37   O10   1.300973 A    
N21   Ni4   1.865815 S    
C106  H66   1.082777 S    
N39   O13   1.300672 A    
C154  C162  1.400024 A    
C1    H1    1.073363 S    
C58   C66   1.394265 A    
N35   O5    1.299952 A    
N13   Ni7   1.847854 S    
C158  C166  1.396749 A    
C62   C70   1.403925 A    
C104  C128  1.387528 A    
N47   O29   1.299871 A    
C81   H45   1.084562 S    
C110  H70   1.082918 S    
C22   N22   1.340168 A    
C110  C142  1.407746 A    
C33   C99   1.460617 S    
N4    N26   1.410699 A    
C31   H15   1.071399 S    
N8    N30   1.410699 A    
N25   Ni6   1.849149 S    
C47   C69   1.456145 S    
C98   C122  1.400288 A    
C2    C34   1.388342 A    
C113  H58   1.080777 S    
C103  C127  1.398465 A    
C116  H59   1.081702 S    
N40   O15   1.300801 A    
N2    N28   1.411128 A    
C78   H38   1.083195 S    
C59   H27   1.083697 S    
C105  H65   1.082783 S    
C60   C68   1.396442 A    
C27   C33   1.381931 A    
C57   H25   1.083484 S    
C165  N53   1.438852 S    
C22   N46   1.428589 S    
C70   C78   1.394655 A    
C13   C45   1.378747 A    
C19   N19   1.344339 A    
N41   O17   1.299611 A    
C30   C40   1.388496 A    
C15   C47   1.377843 A    
C149  C158  1.410579 A    
C84   H48   1.083260 S    
N45   O25   1.299083 A    
C164  N52   1.438335 S    
C147  C156  1.418163 A    
C56   C64   1.389316 A    
C90   C93   1.440233 S    
N6    N32   1.411128 A    
N43   O21   1.299624 A    
C88   H44   1.084588 S    
C7    C39   1.386845 A    
C12   N12   1.341202 A    
C118  H61   1.081428 S    
C133  C141  1.414813 A    
N42   O19   1.300913 A    
N29   Ni8   1.849151 S    
C76   H36   1.082136 S    
C131  C139  1.423839 A    
C77   H37   1.082100 S    
C13   N37   1.430596 S    
C159  C167  1.396059 A    
N51   H85   1.045487 S    
C80   H40   1.081726 S    
C2    N2    1.351847 A    
N8    Ni3   1.846988 S    
C145  C150  1.410080 A    
C68   C76   1.403927 A    
C69   C77   1.405006 A    
C31   N31   1.341568 A    
C67   C75   1.392305 A    
C50   H18   1.084530 S    
N20   Ni2   1.847966 S    
N34   O3    1.300721 A    
C136  C144  1.414185 A    
N48   O32   1.298606 A    
C57   C65   1.403700 A    
C52   C92   1.396840 A    
N14   Ni8   1.847854 S    
C155  H75   1.081317 S    
N17   Ni2   1.865815 S    
C43   C65   1.452232 S    
C28   C34   1.380670 A    
C26   H10   1.068611 S    
C87   C95   1.396409 A    
C41   C67   1.440798 S    
N14   N22   1.379404 A    
C161  N49   1.433684 S    
C45   C71   1.443323 S    
C92   C95   1.439010 S    
C39   C101  1.482602 S    
C73   H33   1.081554 S    
C16   N16   1.348139 A    
N53   H90   1.045651 S    
C104  C120  1.400937 A    
C30   H14   1.068941 S    
N3    Ni2   1.846986 S    
C10   N10   1.337417 A    
N10   N18   1.379404 A    
C130  C146  1.421474 A    
C159  H79   1.081892 S    
C5    C37   1.379785 A    
C29   N29   1.330373 A    
C160  H80   1.079384 S    
C139  C167  1.403910 A    
C88   C96   1.397206 A    
C134  C150  1.417996 A    
C19   C43   1.379434 A    
C9    N33   1.430957 S    
N39   O14   1.300703 A    
C74   H34   1.083289 S    
C26   C36   1.389326 A    
C119  H64   1.081925 S    
C120  H63   1.082273 S    
C111  C119  1.390051 A    
C49   C57   1.390120 A    
C12   C44   1.381435 A    
C102  C126  1.399850 A    
C51   H19   1.083159 S    
C53   C61   1.376308 A    
N38   O11   1.300868 A    
C16   C48   1.393268 A    
C21   C45   1.380984 A    
C55   C63   1.373930 A    
N24   Ni4   1.847966 S    
C2    H2    1.075532 S    
C27   N27   1.335724 A    
C23   N23   1.347440 A    
C61   H29   1.081542 S    
C24   N24   1.332611 A    
N18   Ni1   1.865816 S    
C156  C164  1.407031 A    
N30   Ni7   1.849152 S    
C132  C148  1.414414 A    
C153  H73   1.080014 S    
C127  C135  1.404447 A    
C160  C168  1.403364 A    
C82   H46   1.083091 S    
C122  C130  1.406155 A    
C125  H54   1.075050 S    
C85   C93   1.397318 A    
C109  H69   1.082846 S    
N11   N19   1.379510 A    
N52   H87   1.045519 S    
C53   C93   1.397182 A    
C46   C72   1.451206 S    
N33   O2    1.300542 A    
C15   N15   1.340083 A    
C162  N50   1.433845 S    
C32   H16   1.071566 S    
N56   H95   1.045713 S    
C63   H31   1.083577 S    
C114  H57   1.081641 S    
C146  C153  1.414235 A    
C48   C70   1.451492 S    
C138  C166  1.405904 A    
C9    N9    1.344864 A    
C23   C47   1.387526 A    
C35   C97   1.480828 S    
N2    Ni2   1.864829 S    
C142  C162  1.404831 A    
C58   H26   1.083262 S    
