data_mof_unit_58050.cif
_audit_creation_date              2013-03-05T16:02:49-0500
_audit_creation_method            fapswitch 2.2
_symmetry_space_group_name_H-M    P1
_symmetry_Int_Tables_number       1
_space_group_crystal_system       triclinic
_cell_length_a                    23.423082
_cell_length_b                    11.714669
_cell_length_c                    10.469526
_cell_angle_alpha                 90.253222
_cell_angle_beta                  89.823452
_cell_angle_gamma                 89.769034
_cell_volume                      2872.70628659

loop_
_atom_site_label
_atom_site_type_symbol
_atom_site_description
_atom_site_fract_x
_atom_site_fract_y
_atom_site_fract_z
_atom_type_partial_charge
O1    O     O_R   0.500000 0.337200 0.605810 -0.571007
O2    O     O_R   0.500000 0.662800 0.394190 -0.570765
O3    O     O_R   0.500000 0.662800 0.605810 -0.567608
O4    O     O_R   0.500000 0.337200 0.394190 -0.566061
C1    C     C_R   0.500064 0.283333 0.499783 0.815659
C2    C     C_R   0.499990 0.716659 0.500215 0.810559
O5    O     O_R   0.417880 0.500000 0.605840 -0.571181
O6    O     O_R   0.582120 0.500000 0.394160 -0.572161
O7    O     O_R   0.582120 0.500000 0.605840 -0.571687
O8    O     O_R   0.417880 0.500000 0.394160 -0.570467
C3    C     C_R   0.390695 0.502073 0.500156 0.865354
C4    C     C_R   0.609269 0.500485 0.499797 0.876939
Cu1   Cu    Cu3+1 0.500000 0.500000 0.625300 0.979718
Cu2   Cu    Cu3+1 0.500000 0.500000 0.374700 0.977901
C5    C     C_R   0.879130 0.572874 0.613525 0.591076
C6    C     C_R   0.121176 0.532715 0.396280 0.644428
C7    C     C_R   0.879878 0.541939 0.388654 0.589541
C8    C     C_R   0.119785 0.601312 0.610752 0.512349
N1    N     N_R   0.851429 0.552498 0.501594 -0.412465
N2    N     N_R   0.148565 0.561234 0.506449 -0.412866
C9    C     C_R   0.940194 0.539219 0.385910 -0.075222
C10   C     C_R   0.059587 0.610581 0.609219 -0.048138
C11   C     C_R   0.939097 0.590015 0.614693 -0.066376
C12   C     C_R   0.061143 0.543501 0.386964 -0.080877
C13   C     C_R   0.969752 0.569415 0.499206 -0.092224
C14   C     C_R   0.030111 0.573653 0.498710 -0.091293
C15   C     C_R   0.971462 0.508442 0.274045 0.164109
C16   C     C_R   0.028137 0.653080 0.715279 0.171541
C17   C     C_R   0.969159 0.628842 0.725094 0.143358
C18   C     C_R   0.031380 0.521931 0.271343 0.165377
O9    O     O_2   0.847920 0.577598 0.721728 -0.561109
O10   O     O_2   0.152204 0.489150 0.298754 -0.534889
O11   O     O_2   0.849322 0.536180 0.279886 -0.547170
O12   O     O_2   0.149595 0.626550 0.717175 -0.597350
C19   C     C_R   0.244405 0.634512 0.462080 0.420666
C20   C     C_R   0.766715 0.432113 0.526873 0.429934
C21   C     C_R   0.233523 0.446590 0.559051 0.416306
C22   C     C_R   0.755282 0.634426 0.477937 0.432315
C23   C     C_R   0.303862 0.617497 0.453244 -0.004219
C24   C     C_R   0.706919 0.419228 0.531904 -0.002373
C25   C     C_R   0.293001 0.428867 0.552180 0.003149
C26   C     C_R   0.695720 0.619889 0.468936 -0.010188
C27   C     C_R   0.328266 0.515365 0.500929 -0.158930
C28   C     C_R   0.671603 0.512784 0.499387 -0.160346
C29   C     C_R   0.209528 0.548273 0.512055 0.124371
C30   C     C_R   0.790435 0.539842 0.502663 0.120426
C31   C     C_1   0.500089 0.161967 0.499469 -0.180008
C32   C     C_1   0.500037 0.838013 0.500510 -0.185704
C33   C     C_1   0.500095 0.059714 0.499719 0.003771
C34   C     C_1   0.500075 0.940255 0.500239 0.004626
N3    N     N_1   0.500000 0.500000 0.186410 -0.141097
N4    N     N_1   0.500000 0.500000 0.813590 -0.139664
C35   C     C_1   0.499998 0.500007 0.072066 0.091904
C36   C     C_1   0.499998 0.500004 0.927934 0.092837
C37   C     C_3   0.942446 0.449297 0.162489 -0.773427
H1    H     H_    0.972674 0.399860 0.101891 0.215325
H2    H     H_    0.911784 0.384780 0.197863 0.242995
H3    H     H_    0.920185 0.513029 0.102410 0.262834
C38   C     C_3   0.055488 0.734184 0.810500 -0.773452
H4    H     H_    0.024093 0.797171 0.848188 0.211946
H5    H     H_    0.074487 0.685756 0.890866 0.252581
H6    H     H_    0.088379 0.787675 0.763491 0.245404
C39   C     C_3   0.939582 0.643570 0.853514 -0.763128
H7    H     H_    0.968927 0.663017 0.933243 0.208748
H8    H     H_    0.907457 0.713361 0.848677 0.251633
H9    H     H_    0.919379 0.561936 0.881409 0.262315
C40   C     C_3   0.062133 0.523674 0.143313 -0.771028
H10   H     H_    0.033040 0.545221 0.063595 0.208368
H11   H     H_    0.094719 0.592242 0.141819 0.255188
H12   H     H_    0.082168 0.439389 0.123402 0.254731
O13   O     O_3   0.219261 0.730723 0.410044 -0.591492
C41   C     C_3   0.217109 0.817816 0.503798 0.036089
H13   H     H_    0.259410 0.830486 0.550379 0.147037
H14   H     H_    0.185020 0.796693 0.578241 0.181169
C42   C     C_3   0.199446 0.929625 0.440264 -0.323156
H15   H     H_    0.230941 0.951382 0.364617 0.226789
H16   H     H_    0.156915 0.919018 0.394958 0.230082
C43   C     C_3   0.196404 0.027324 0.536933 -0.914055
H17   H     H_    0.164389 0.008197 0.612298 0.251998
H18   H     H_    0.183595 0.107285 0.487936 0.286145
H19   H     H_    0.238778 0.040626 0.581870 0.252102
O14   O     O_3   0.803007 0.341339 0.551448 -0.592496
C44   C     C_3   0.812203 0.278219 0.437481 0.034813
H20   H     H_    0.809920 0.331495 0.349430 0.166052
H21   H     H_    0.779438 0.210162 0.429955 0.157551
C45   C     C_3   0.871455 0.223155 0.441997 -0.329032
H22   H     H_    0.904462 0.291048 0.442510 0.220197
H23   H     H_    0.876046 0.172900 0.531100 0.233178
C46   C     C_3   0.881555 0.144493 0.327461 -0.911834
H24   H     H_    0.849909 0.074185 0.326999 0.258290
H25   H     H_    0.925062 0.106907 0.333001 0.261807
H26   H     H_    0.877844 0.192822 0.236899 0.258906
O15   O     O_3   0.198133 0.358494 0.597171 -0.600268
C47   C     C_3   0.189474 0.363670 0.730929 0.095364
H27   H     H_    0.149951 0.413022 0.751139 0.191490
H28   H     H_    0.225631 0.403834 0.783826 0.144890
C48   C     C_3   0.181089 0.242853 0.781755 -0.376460
H29   H     H_    0.144755 0.202098 0.731261 0.234758
H30   H     H_    0.220241 0.191493 0.763117 0.226429
C49   C     C_3   0.168764 0.243738 0.925012 -0.878128
H31   H     H_    0.204941 0.282488 0.977868 0.268744
H32   H     H_    0.162909 0.154831 0.958811 0.257525
H33   H     H_    0.129139 0.292974 0.945694 0.256648
O16   O     O_3   0.779880 0.740023 0.456979 -0.586301
C50   C     C_3   0.777447 0.803915 0.571932 0.055717
H34   H     H_    0.809177 0.770337 0.640983 0.181685
H35   H     H_    0.734227 0.801108 0.616947 0.151278
C51   C     C_3   0.791710 0.928493 0.544189 -0.350717
H36   H     H_    0.836015 0.934026 0.506504 0.231993
H37   H     H_    0.761956 0.962133 0.470752 0.222868
C52   C     C_3   0.786562 0.001619 0.664812 -0.908436
H38   H     H_    0.742511 0.997289 0.704061 0.259627
H39   H     H_    0.796006 0.091925 0.642082 0.271656
H40   H     H_    0.817283 0.971774 0.738191 0.262649
C53   C     C_3   0.341267 0.708085 0.393345 -0.762887
H41   H     H_    0.316911 0.783372 0.359652 0.249973
H42   H     H_    0.373009 0.738492 0.464122 0.197466
H43   H     H_    0.363824 0.672296 0.308791 0.248046
C54   C     C_3   0.680676 0.306618 0.570024 -0.802655
H44   H     H_    0.656102 0.270921 0.488696 0.208040
H45   H     H_    0.712945 0.242624 0.599612 0.256373
H46   H     H_    0.651507 0.319708 0.652595 0.241149
C55   C     C_3   0.316969 0.315016 0.594722 -0.766580
H47   H     H_    0.293555 0.244584 0.546949 0.247674
H48   H     H_    0.362729 0.303306 0.570778 0.208956
H49   H     H_    0.312083 0.306467 0.699667 0.222615
C56   C     C_3   0.657812 0.718714 0.429925 -0.778585
H50   H     H_    0.682256 0.796299 0.404695 0.254710
H51   H     H_    0.632587 0.694833 0.344408 0.243896
H52   H     H_    0.628318 0.740973 0.509485 0.202849

loop_
_geom_bond_atom_site_label_1
_geom_bond_atom_site_label_2
_geom_bond_distance
_ccdc_geom_bond_type
C37   H1    1.109010 S    
C39   H8    1.110342 S    
O15   C47   1.415371 S    
C52   H38   1.110877 S    
O3    C2    1.275319 A    
C17   C39   1.519414 S    
C48   H29   1.111542 S    
N1    C30   1.436967 S    
C55   H47   1.110588 S    
C31   C33   1.197863 T    
C35   C36   1.508991 S    
C5    N1    1.361861 A    
C50   H35   1.116023 S    
C2    C32   1.421613 S    
O1    C1    1.274442 A    
C11   C17   1.428847 A    
C16   C17   1.414965 A    
C12   C14   1.418048 A    
C22   C26   1.409543 A    
C15   C37   1.519077 S    
C16   C38   1.519032 S    
C53   H41   1.108005 S    
C51   H36   1.111343 S    
O7    Cu1   1.933639 S    
C22   O16   1.384821 S    
C52   H39   1.108376 S    
Cu2   N3    1.971307 S    
C20   O14   1.384228 S    
C53   H42   1.109923 S    
C20   C30   1.404712 A    
C46   H25   1.110283 S    
N2    C29   1.436784 S    
O3    Cu1   1.918930 S    
O6    C4    1.277455 A    
C47   H28   1.117661 S    
C32   C34   1.197757 T    
C9    C15   1.423688 A    
C39   H9    1.108626 S    
C19   O13   1.384201 S    
C38   H4    1.110025 S    
C6    C12   1.415038 A    
C10   C16   1.417955 A    
Cu1   Cu2   2.623663 S    
C15   C18   1.413164 A    
C21   C25   1.409280 A    
C25   C27   1.416265 A    
O2    C2    1.274387 A    
C26   C28   1.415328 A    
C41   C42   1.527818 S    
C42   C43   1.525758 S    
O16   C50   1.415329 S    
C48   H30   1.111076 S    
N4    C36   1.197132 T    
O5    C3    1.278577 A    
C54   H45   1.108242 S    
C50   C51   1.527370 S    
C38   H5    1.110112 S    
C45   H23   1.110567 S    
C40   H10   1.108439 S    
C20   C24   1.410171 A    
C41   H14   1.110490 S    
O8    Cu2   1.933641 S    
C43   H17   1.111024 S    
C41   H13   1.115859 S    
C55   H49   1.109333 S    
C23   C27   1.417390 A    
C47   C48   1.527456 S    
C13   C14   1.414860 A    
C49   H33   1.111023 S    
C7    C9    1.413214 A    
C40   H11   1.110399 S    
C19   C23   1.408767 A    
C42   H15   1.111806 S    
C56   H51   1.109655 S    
Cu1   N4    1.971308 S    
C1    C31   1.421760 S    
C44   H20   1.116828 S    
O5    Cu1   1.934890 S    
C6    N2    1.362513 A    
C53   H43   1.109339 S    
C24   C54   1.512302 S    
C49   H32   1.110355 S    
C43   H18   1.110646 S    
C21   O15   1.385642 S    
C7    O11   1.348442 S    
C46   H26   1.109915 S    
C3    C27   1.469918 S    
C42   H16   1.111880 S    
C26   C56   1.514466 S    
C44   H21   1.111560 S    
C33   C34   1.399464 S    
C23   C53   1.515601 S    
C37   H2    1.108776 S    
O1    Cu1   1.917136 S    
C21   C29   1.406550 A    
C56   H50   1.108622 S    
C19   C29   1.403724 A    
C48   C49   1.526469 S    
C54   H46   1.109955 S    
C9    C13   1.419418 A    
C38   H6    1.110274 S    
O6    Cu2   1.934888 S    
C45   H22   1.111441 S    
C18   C40   1.520010 S    
O4    C1    1.275351 A    
C45   C46   1.526364 S    
C54   H44   1.110399 S    
C5    O9    1.347150 S    
C6    O10   1.348705 S    
C50   H34   1.110490 S    
C51   C52   1.527053 S    
C40   H12   1.110151 S    
C25   C55   1.514310 S    
C8    C10   1.413912 A    
C56   H52   1.110022 S    
O13   C41   1.413273 S    
C4    C28   1.467726 S    
C43   H19   1.110961 S    
C8    O12   1.349063 S    
C5    C11   1.419792 A    
C49   H31   1.110902 S    
C7    N1    1.360389 A    
C51   H37   1.111709 S    
C52   H40   1.110850 S    
C8    N2    1.362248 A    
C11   C13   1.423504 A    
O4    Cu2   1.918930 S    
C47   H27   1.108795 S    
O2    Cu2   1.917136 S    
O7    C4    1.277779 A    
C12   C18   1.420941 A    
C22   C30   1.403276 A    
C55   H48   1.107847 S    
O8    C3    1.277824 A    
C39   H7    1.106453 S    
C24   C28   1.413879 A    
C44   C45   1.529034 S    
O14   C44   1.416393 S    
C10   C14   1.416090 A    
C37   H3    1.108131 S    
N3    C35   1.197124 T    
C46   H24   1.110296 S    
