data_mof_unit_51007.cif
_audit_creation_date              2012-12-10T18:25:14-0500
_audit_creation_method            fapswitch 2.2
_symmetry_space_group_name_H-M    P1
_symmetry_Int_Tables_number       1
_space_group_crystal_system       triclinic
_cell_length_a                    19.295684
_cell_length_b                    15.868567
_cell_length_c                    14.61774
_cell_angle_alpha                 89.566011
_cell_angle_beta                  90.355846
_cell_angle_gamma                 90.077753
_cell_volume                      4475.65821137

loop_
_atom_site_label
_atom_site_type_symbol
_atom_type_description
_atom_site_fract_x
_atom_site_fract_y
_atom_site_fract_z
_atom_type_partial_charge
C1    C     C_R   0.499960 0.339497 0.500284 0.816711
C2    C     C_R   0.500254 0.660409 0.499694 0.785151
C3    C     C_3   0.545581 0.970637 0.561518 0.319479
C4    C     C_3   0.455003 0.028670 0.437264 0.320468
C5    C     C_3   0.565253 0.026738 0.478910 -0.225824
C6    C     C_3   0.435349 0.972583 0.519882 -0.229113
C7    C     C_1   0.500246 0.250022 0.500862 -0.122337
C8    C     C_1   0.500160 0.749692 0.498909 -0.149828
C9    C     C_3   0.482240 0.026350 0.582464 0.322123
C10   C     C_3   0.518349 0.972952 0.416369 0.316550
C11   C     C_3   0.501574 0.083141 0.499947 -0.103342
C12   C     C_3   0.498998 0.916314 0.498850 -0.099239
C13   C     C_1   0.500717 0.174628 0.500771 0.169150
C14   C     C_1   0.499802 0.824981 0.498512 0.155940
C15   C     C_3   0.505101 0.580088 0.968356 0.252588
C16   C     C_3   0.494477 0.421005 0.031381 0.253912
C17   C     C_3   0.445741 0.546310 0.029051 0.265387
C18   C     C_3   0.553899 0.454839 0.970820 0.262445
C19   C     C_3   0.559462 0.535169 0.029559 0.255527
C20   C     C_3   0.440152 0.466016 0.970192 0.256868
C21   C     C_3   0.500113 0.501298 0.091968 -0.229252
C22   C     C_3   0.499600 0.499774 0.907914 -0.225402
C23   C     C_R   0.367196 0.501700 0.499689 0.844281
C24   C     C_R   0.632942 0.501731 0.500383 0.836406
C25   C     C_1   0.500074 0.500708 0.194291 0.337230
C26   C     C_1   0.499810 0.499805 0.805675 0.330588
C27   C     C_R   0.254329 0.462859 0.566001 -0.320429
C28   C     C_R   0.745470 0.471111 0.428352 -0.327209
C29   C     C_R   0.182120 0.462734 0.565031 0.458301
C30   C     C_R   0.817732 0.467135 0.429945 0.454104
C31   C     C_R   0.146067 0.503625 0.493551 -0.180497
C32   C     C_R   0.854519 0.500403 0.504731 -0.172032
C33   C     C_R   0.182625 0.548392 0.424769 -0.161504
C34   C     C_R   0.818830 0.535150 0.579990 -0.162928
C35   C     C_R   0.255703 0.552601 0.430127 0.374087
C36   C     C_R   0.745739 0.540312 0.576581 0.382236
C37   C     C_R   0.291315 0.506303 0.498697 -0.211280
C38   C     C_R   0.709129 0.505115 0.501754 -0.205786
C39   C     C_R   0.930379 0.501145 0.501193 0.550637
C40   C     C_R   0.070183 0.502735 0.495316 0.527715
Cu1   Cu    Cu3+1 0.500010 0.500000 0.590220 1.010489
Cu2   Cu    Cu3+1 0.499990 0.500000 0.409780 1.017468
H1    H     H_    0.281501 0.427810 0.619057 0.191307
H2    H     H_    0.717623 0.446656 0.369682 0.183085
N1    N     N_R   0.035074 0.428702 0.492633 -0.164140
N2    N     N_R   0.965510 0.575149 0.504302 -0.218224
N3    N     N_R   0.966181 0.427948 0.495095 -0.204503
N4    N     N_R   0.034377 0.575943 0.501243 -0.238706
N5    N     N_1   0.499980 0.500000 0.274190 -0.159992
N6    N     N_1   0.500020 0.500000 0.725810 -0.163145
O1    O     O_R   0.500010 0.379080 0.576170 -0.566832
O2    O     O_R   0.499990 0.620920 0.423830 -0.574283
O3    O     O_R   0.500000 0.379080 0.423800 -0.566360
O4    O     O_R   0.500000 0.620920 0.576200 -0.576457
O5    O     O_R   0.400150 0.499990 0.576210 -0.587468
O6    O     O_R   0.599850 0.500010 0.423790 -0.583279
O7    O     O_R   0.400140 0.499990 0.423840 -0.529842
O8    O     O_R   0.599860 0.500010 0.576160 -0.531386
O9    O     O_3   0.379405 0.430045 0.932635 -0.590031
C41   C     C_3   0.332166 0.409412 0.002839 0.081341
H3    H     H_    0.309809 0.467023 0.033197 0.189298
H4    H     H_    0.356714 0.371478 0.058462 0.180987
C42   C     C_3   0.272928 0.358237 0.962350 -0.802063
H5    H     H_    0.293190 0.299110 0.932450 0.252254
H6    H     H_    0.235075 0.342008 0.016636 0.213567
H7    H     H_    0.246123 0.395375 0.908013 0.252031
O10   O     O_3   0.620471 0.571666 0.065792 -0.588079
C43   C     C_3   0.666948 0.591806 0.994435 0.084211
H8    H     H_    0.641253 0.625899 0.936781 0.176115
H9    H     H_    0.691329 0.534044 0.967260 0.193209
C44   C     C_3   0.724292 0.647883 0.031788 -0.780965
H10   H     H_    0.752543 0.614670 0.087789 0.263278
H11   H     H_    0.761372 0.663702 0.976425 0.219045
H12   H     H_    0.701981 0.707162 0.058659 0.244640
O11   O     O_3   0.146493 0.418560 0.631789 -0.550877
C45   C     C_3   0.142935 0.468833 0.710895 0.058084
H13   H     H_    0.117765 0.530586 0.695422 0.147174
H14   H     H_    0.195596 0.479926 0.740124 0.142115
C46   C     C_3   0.099728 0.423464 0.782670 -0.729439
H15   H     H_    0.124046 0.362144 0.800908 0.250314
H16   H     H_    0.096360 0.462583 0.845155 0.192164
H17   H     H_    0.046583 0.412092 0.755787 0.273710
O12   O     O_3   0.853304 0.437251 0.354885 -0.561528
C47   C     C_3   0.844447 0.349043 0.349487 0.070462
H18   H     H_    0.790482 0.333054 0.328650 0.137442
H19   H     H_    0.856788 0.317486 0.416066 0.155248
C48   C     C_3   0.893378 0.314546 0.277781 -0.721478
H20   H     H_    0.947894 0.328907 0.297018 0.268300
H21   H     H_    0.886993 0.245165 0.272857 0.196606
H22   H     H_    0.881693 0.343525 0.210025 0.245034
C49   C     C_2   0.145376 0.587229 0.345251 0.915723
O13   O     O_2   0.166737 0.652435 0.310309 -0.578082
O14   O     O_R   0.086285 0.548272 0.309107 -0.751454
H23   H     H_    0.065757 0.580496 0.255286 0.339525
C50   C     C_2   0.857184 0.562229 0.663832 0.912674
O15   O     O_2   0.836511 0.621645 0.708843 -0.579845
O16   O     O_R   0.916597 0.518655 0.692321 -0.770933
H24   H     H_    0.938002 0.542899 0.749933 0.330238
O17   O     O_3   0.292372 0.597042 0.364326 -0.540604
C51   C     C_3   0.311532 0.676195 0.400549 0.136366
H25   H     H_    0.346751 0.668830 0.460623 0.116382
H26   H     H_    0.265083 0.712668 0.421728 0.158370
C52   C     C_3   0.349536 0.726856 0.327652 -0.690662
H27   H     H_    0.314898 0.738033 0.267849 0.249303
H28   H     H_    0.365929 0.788574 0.355916 0.192804
H29   H     H_    0.396203 0.692068 0.304952 0.258752
O18   O     O_3   0.710148 0.573639 0.649972 -0.544307
C53   C     C_3   0.690352 0.657302 0.628429 0.133460
H30   H     H_    0.656363 0.659970 0.566683 0.111077
H31   H     H_    0.736647 0.697721 0.616169 0.167982
C54   C     C_3   0.650130 0.693472 0.708271 -0.703151
H32   H     H_    0.632889 0.758514 0.691368 0.223204
H33   H     H_    0.603797 0.653992 0.722495 0.260486
H34   H     H_    0.683500 0.695168 0.770422 0.241839
C55   C     C_2   0.637001 0.056264 0.456295 0.823422
O19   O     O_2   0.682308 0.004515 0.441331 -0.567727
O20   O     O_R   0.651772 0.142401 0.452342 -0.786603
H35   H     H_    0.701919 0.154229 0.436355 0.326455
C56   C     C_2   0.363622 0.942654 0.542063 0.822453
O21   O     O_2   0.318183 0.994126 0.557403 -0.557314
O22   O     O_R   0.348982 0.856450 0.544879 -0.803995
H36   H     H_    0.298735 0.844309 0.559998 0.326142
O23   O     O_3   0.590383 0.932170 0.626134 -0.578604
C57   C     C_3   0.629365 0.993802 0.672902 0.100083
H37   H     H_    0.598505 0.050789 0.689734 0.171855
H38   H     H_    0.674583 0.013076 0.631040 0.179266
C58   C     C_3   0.656264 0.956121 0.762227 -0.806853
H39   H     H_    0.689475 0.900648 0.748185 0.258754
H40   H     H_    0.687350 0.003800 0.799685 0.209940
H41   H     H_    0.612122 0.936090 0.805691 0.241327
O24   O     O_3   0.410032 0.066282 0.372256 -0.560753
C59   C     C_3   0.371348 0.003894 0.326112 0.099253
H42   H     H_    0.325523 0.985832 0.367448 0.177315
H43   H     H_    0.402028 0.946253 0.311356 0.160001
C60   C     C_3   0.345748 0.039778 0.235288 -0.782298
H44   H     H_    0.390518 0.058111 0.192078 0.239165
H45   H     H_    0.314581 0.991628 0.198652 0.202818
H46   H     H_    0.312971 0.096082 0.247143 0.265120
O25   O     O_3   0.534973 0.937328 0.331020 -0.565569
C61   C     C_3   0.553124 0.001108 0.267666 0.115297
H47   H     H_    0.608190 0.019346 0.277757 0.173736
H48   H     H_    0.520176 0.058375 0.273094 0.170197
C62   C     C_3   0.544850 0.967064 0.171238 -0.823640
H49   H     H_    0.490129 0.948306 0.158913 0.244956
H50   H     H_    0.559450 0.016333 0.120535 0.204540
H51   H     H_    0.578785 0.911319 0.162036 0.260161
O26   O     O_3   0.465653 0.061603 0.668005 -0.563207
C63   C     C_3   0.447256 0.997548 0.730930 0.115403
H52   H     H_    0.479792 0.939977 0.724899 0.167758
H53   H     H_    0.392044 0.979941 0.720915 0.175575
C64   C     C_3   0.456000 0.030803 0.827620 -0.819618
H54   H     H_    0.422803 0.087134 0.837265 0.260790
H55   H     H_    0.440746 0.981513 0.877945 0.204061
H56   H     H_    0.510971 0.048373 0.840080 0.245256
O27   O     O_3   0.390346 0.592849 0.066065 -0.578691
C65   C     C_3   0.351168 0.631285 0.995255 0.062464
H57   H     H_    0.337086 0.586247 0.940236 0.172745
H58   H     H_    0.380044 0.684600 0.964184 0.182779
C66   C     C_3   0.284558 0.665983 0.035205 -0.766730
H59   H     H_    0.296849 0.713396 0.088427 0.255058
H60   H     H_    0.253200 0.696519 0.980335 0.199797
H61   H     H_    0.253798 0.614137 0.066415 0.260211
O28   O     O_3   0.609627 0.408349 0.934569 -0.578587
C67   C     C_3   0.648384 0.370270 0.006072 0.073559
H62   H     H_    0.619568 0.316612 0.036534 0.181581
H63   H     H_    0.661561 0.415367 0.061421 0.176265
C68   C     C_3   0.715715 0.336318 0.967483 -0.786726
H64   H     H_    0.746566 0.388546 0.937208 0.255758
H65   H     H_    0.746555 0.305886 0.022942 0.202560
H66   H     H_    0.704411 0.288976 0.913814 0.257005
O29   O     O_3   0.509816 0.661158 0.928209 -0.591340
C69   C     C_3   0.518810 0.722945 0.996343 0.094990
H67   H     H_    0.571649 0.719670 0.026307 0.184678
H68   H     H_    0.480531 0.716333 0.052526 0.176117
C70   C     C_3   0.509846 0.809674 0.952853 -0.840552
H69   H     H_    0.456912 0.815887 0.923330 0.246260
H70   H     H_    0.517496 0.859202 0.005154 0.210422
H71   H     H_    0.548478 0.818899 0.897652 0.258545
O30   O     O_3   0.489571 0.339692 0.070932 -0.585067
C71   C     C_3   0.481120 0.278290 0.002213 0.096803
H72   H     H_    0.519597 0.285501 0.946359 0.177958
H73   H     H_    0.428395 0.281456 0.971815 0.183459
C72   C     C_3   0.490316 0.191266 0.044954 -0.832334
H74   H     H_    0.451332 0.181151 0.099541 0.261515
H75   H     H_    0.483371 0.142141 0.992039 0.208717
H76   H     H_    0.543072 0.185248 0.075082 0.244936

loop_
_geom_bond_atom_site_label_1
_geom_bond_atom_site_label_2
_ccdc_geom_bond_type
C60   H46   S    
O29   C69   S    
C42   H6    S    
O14   H23   S    
C62   H51   S    
C50   O15   D    
Cu1   Cu2   S    
C6    C56   S    
O26   C63   S    
C47   C48   S    
C48   H20   S    
C6    C9    S    
O16   H24   S    
O23   C57   S    
C68   H65   S    
C53   H30   S    
C15   C19   S    
C16   C21   S    
C41   C42   S    
C41   H4    S    
C67   H62   S    
C35   C37   A    
C45   H14   S    
Cu1   O8    S    
C5    C11   S    
C26   N6    T    
Cu2   O3    S    
C6    C12   S    
C33   C35   A    
C32   C39   S    
C27   C29   A    
C62   H49   S    
C17   C20   S    
C31   C40   S    
C46   H17   S    
C23   O7    A    
C18   C19   S    
C64   H56   S    
C30   O12   S    
C1    O3    A    
Cu1   O5    S    
C3    C12   S    
C52   H27   S    
Cu2   O6    S    
C47   H18   S    
C52   H28   S    
C15   C22   S    
C66   H59   S    
C71   H73   S    
C59   H42   S    
C55   O20   S    
C24   C38   S    
O18   C53   S    
C61   C62   S    
C19   O10   S    
C4    O24   S    
C71   C72   S    
C43   H9    S    
N1    N3    A    
C42   H7    S    
O9    C41   S    
C60   H45   S    
C5    C55   S    
C36   O18   S    
C35   O17   S    
C10   C12   S    
Cu2   O7    S    
C51   H26   S    
C3    O23   S    
C68   H66   S    
C56   O22   S    
C61   H47   S    
C40   N1    A    
N2    N4    A    
O10   C43   S    
C59   C60   S    
C60   H44   S    
C63   C64   S    
C34   C50   S    
C16   O30   S    
C70   H70   S    
C2    O4    A    
C72   H76   S    
C68   H64   S    
C44   H11   S    
C70   H71   S    
C43   H8    S    
C23   C37   S    
C39   N3    A    
C28   H2    S    
C51   C52   S    
C17   C21   S    
C46   H15   S    
C41   H3    S    
C20   O9    S    
C32   C34   A    
C52   H29   S    
O11   C45   S    
C58   H40   S    
C72   H74   S    
C3    C9    S    
C49   O14   S    
C72   H75   S    
C9    C11   S    
C18   O28   S    
O17   C51   S    
C28   C38   A    
C16   C20   S    
C31   C33   A    
C66   H61   S    
C15   O29   S    
C54   H33   S    
C16   C18   S    
C50   O16   S    
C45   H13   S    
C4    C11   S    
C1    O1    A    
O22   H36   S    
C2    O2    A    
C39   N2    A    
C63   H53   S    
C4    C6    S    
C12   C14   S    
C57   C58   S    
O12   C47   S    
C10   O25   S    
C20   C22   S    
C4    C10   S    
C58   H39   S    
C17   O27   S    
Cu1   N6    S    
C49   O13   D    
C69   H67   S    
C57   H38   S    
C62   H50   S    
C21   C25   S    
C40   N4    A    
C65   H57   S    
C8    C14   T    
C54   H32   S    
C19   C21   S    
C18   C22   S    
C65   C66   S    
C2    C8    S    
C47   H19   S    
C42   H5    S    
C3    C5    S    
C44   H12   S    
O25   C61   S    
C69   C70   S    
C28   C30   A    
C23   O5    A    
C29   O11   S    
C24   O6    A    
C46   H16   S    
C53   C54   S    
C67   H63   S    
C66   H60   S    
C58   H41   S    
C5    C10   S    
C29   C31   A    
C70   H69   S    
O20   H35   S    
C36   C38   A    
C30   C32   A    
C11   C13   S    
C55   O19   D    
C53   H31   S    
C27   C37   A    
C43   C44   S    
C59   H43   S    
C65   H58   S    
C51   H25   S    
C69   H68   S    
C9    O26   S    
C54   H34   S    
C34   C36   A    
C63   H52   S    
C64   H55   S    
C25   N5    T    
Cu1   O4    S    
O28   C67   S    
Cu2   N5    S    
O30   C71   S    
C27   H1    S    
C7    C13   T    
C45   C46   S    
C44   H10   S    
C24   O8    A    
C56   O21   D    
C22   C26   S    
C48   H22   S    
O27   C65   S    
C48   H21   S    
C1    C7    S    
C67   C68   S    
C61   H48   S    
C15   C17   S    
C64   H54   S    
Cu1   O1    S    
C71   H72   S    
O24   C59   S    
Cu2   O2    S    
C57   H37   S    
C33   C49   S    
