data_mof_unit_65726.cif
_audit_creation_date              2012-12-10T19:02:11-0500
_audit_creation_method            fapswitch 2.2
_symmetry_space_group_name_H-M    P1
_symmetry_Int_Tables_number       1
_space_group_crystal_system       triclinic
_cell_length_a                    13.360489
_cell_length_b                    14.26085
_cell_length_c                    16.697056
_cell_angle_alpha                 89.992261
_cell_angle_beta                  85.518265
_cell_angle_gamma                 89.972483
_cell_volume                      3171.5943703

loop_
_atom_site_label
_atom_site_type_symbol
_atom_type_description
_atom_site_fract_x
_atom_site_fract_y
_atom_site_fract_z
_atom_type_partial_charge
C1    C     C_R   0.499980 0.673478 0.499990 0.927455
C2    C     C_1   0.169404 0.499984 0.499979 0.117576
C3    C     C_1   0.950474 0.499984 0.500009 -0.027992
C4    C     C_1   0.049527 0.499979 0.499992 -0.029655
C5    C     C_R   0.487101 0.502764 0.656157 0.942782
C6    C     C_R   0.512923 0.497041 0.343971 0.922407
C7    C     C_R   0.479809 0.482909 0.741836 -0.146469
C8    C     C_R   0.522329 0.462549 0.261636 -0.140869
C9    C     C_R   0.559298 0.504957 0.789008 0.370609
C10   C     C_R   0.453118 0.397022 0.234470 0.370855
C11   C     C_R   0.557764 0.470886 0.866933 -0.179252
C12   C     C_R   0.500018 0.326531 0.499955 0.945951
C13   C     C_R   0.468927 0.359941 0.157628 -0.185748
C14   C     C_R   0.478037 0.414307 0.898388 0.124258
C15   C     C_R   0.551853 0.388250 0.107022 0.122129
C16   C     C_R   0.396558 0.397049 0.852981 -0.154320
C17   C     C_R   0.623442 0.448557 0.135625 -0.143260
C18   C     C_R   0.397460 0.430957 0.774951 -0.249294
C19   C     C_R   0.608786 0.485500 0.212632 -0.252151
C20   C     C_2   0.472952 0.382959 0.981960 -0.196094
C21   C     C_2   0.555976 0.370204 0.020764 -0.205225
C22   C     C_1   0.499948 0.774123 0.499952 -0.204098
C23   C     C_1   0.500035 0.225901 0.499848 -0.192217
C24   C     C_1   0.499944 0.858684 0.499900 0.008892
C25   C     C_1   0.500012 0.141345 0.499794 0.013461
C26   C     C_1   0.499957 0.957739 0.499832 0.024561
C27   C     C_1   0.499979 0.042294 0.499793 0.025321
C28   C     C_1   0.830596 0.499994 0.500022 0.114512
Cl1   Cl    Cl    0.661004 0.576561 0.753798 -0.606991
Cl2   Cl    Cl    0.347535 0.355977 0.294403 -0.607297
H1    H     H_    0.664133 0.533270 0.233588 0.166623
H2    H     H_    0.335559 0.413452 0.739478 0.174559
H3    H     H_    0.629325 0.369102 0.987731 0.158094
H4    H     H_    0.399349 0.384466 0.014590 0.161042
H5    H     H_    0.332997 0.356252 0.877573 0.149140
H6    H     H_    0.687817 0.471050 0.096883 0.146649
H7    H     H_    0.414812 0.311024 0.136524 0.169519
H8    H     H_    0.618037 0.490785 0.903167 0.164322
N1    N     N_1   0.738130 0.500000 0.500020 -0.051483
N2    N     N_1   0.261870 0.500000 0.499980 -0.047410
O1    O     O_R   0.423530 0.626280 0.499990 -0.603096
O2    O     O_R   0.576470 0.373720 0.500010 -0.604443
O3    O     O_R   0.576470 0.626280 0.500010 -0.587306
O4    O     O_R   0.423530 0.373720 0.499990 -0.571823
O5    O     O_R   0.414510 0.500000 0.615790 -0.629649
O6    O     O_R   0.585490 0.500000 0.384210 -0.620153
O7    O     O_R   0.567420 0.500000 0.615810 -0.556721
O8    O     O_R   0.432580 0.500000 0.384190 -0.553612
Zn1   Zn    Zn3+2 0.397910 0.500000 0.499990 1.014566
Zn2   Zn    Zn3+2 0.602090 0.500000 0.500010 1.011346

loop_
_geom_bond_atom_site_label_1
_geom_bond_atom_site_label_2
_ccdc_geom_bond_type
O4    Zn1   S    
C11   H8    S    
C2    C4    S    
C5    C7    S    
O3    Zn2   S    
C15   C17   A    
C17   H6    S    
C9    Cl1   S    
C25   C27   S    
C9    C11   A    
O6    Zn2   S    
C13   H7    S    
O5    Zn1   S    
C7    C18   A    
C20   H4    S    
C23   C25   T    
C19   H1    S    
C1    C22   S    
C12   O4    A    
C5    O7    A    
C12   C23   S    
C26   C27   T    
C6    O8    A    
O2    Zn2   S    
C6    C8    S    
O1    Zn1   S    
C3    C28   S    
C17   C19   A    
C24   C26   S    
O7    Zn2   S    
C22   C24   T    
C13   C15   A    
C16   H5    S    
C11   C14   A    
C14   C16   A    
C8    C19   A    
C18   H2    S    
N2    Zn1   S    
C2    N2    T    
C15   C21   S    
N1    Zn2   S    
C21   H3    S    
C20   C21   D    
C14   C20   S    
C16   C18   A    
C1    O1    A    
C7    C9    A    
C10   Cl2   S    
O8    Zn1   S    
C12   O2    A    
C6    O6    A    
C28   N1    T    
C5    O5    A    
C1    O3    A    
C8    C10   A    
C3    C4    T    
C10   C13   A    
