data_mof_unit_28604.cif
_audit_creation_date              2012-10-26T18:27:28-0400
_audit_creation_method            fapswitch 2.2
_symmetry_space_group_name_H-M    P1
_symmetry_Int_Tables_number       1
_space_group_crystal_system       triclinic
_cell_length_a                    10.782565
_cell_length_b                    10.982968
_cell_length_c                    9.829374
_cell_angle_alpha                 110.721178
_cell_angle_beta                  98.614644
_cell_angle_gamma                 90.769009
_cell_volume                      1073.67836983

loop_
_atom_site_label
_atom_site_type_symbol
_atom_type_description
_atom_site_fract_x
_atom_site_fract_y
_atom_site_fract_z
_atom_type_partial_charge
C1    C     C_R   0.494042 0.254043 0.441217 0.548572
C2    C     C_2   0.553389 0.932105 0.487415 0.210004
C3    C     C_2   0.507106 0.513423 0.081068 0.086143
C4    C     C_R   0.262925 0.506142 0.502247 0.530636
C5    C     C_2   0.491310 0.487198 0.917325 0.009168
C6    C     C_R   0.513097 0.746011 0.558511 0.570927
C7    C     C_R   0.737568 0.506932 0.500892 0.538675
C8    C     C_R   0.162831 0.719817 0.727494 -0.156789
C9    C     C_R   0.114442 0.815450 0.838599 -0.122769
C10   C     C_R   0.985296 0.813305 0.841533 0.273916
C11   C     C_R   0.904439 0.719682 0.726974 -0.082110
C12   C     C_R   0.083047 0.617629 0.617689 0.009338
C13   C     C_R   0.951750 0.618223 0.616561 -0.023336
C14   C     C_3   0.270574 0.312282 0.066336 0.069312
C15   C     C_3   0.193671 0.212189 0.927470 -0.307565
C16   C     C_3   0.059428 0.189690 0.949826 -0.467550
C17   C     C_3   0.962670 0.890938 0.085354 0.003443
C18   C     C_3   0.863950 0.794414 0.096430 -0.274511
C19   C     C_3   0.887749 0.778907 0.246367 -0.470392
C20   C     C_R   0.129740 0.517086 0.505492 0.011942
C21   C     C_R   0.047843 0.424736 0.390687 -0.160587
C22   C     C_R   0.919972 0.425850 0.388980 -0.153459
C23   C     C_R   0.871591 0.518880 0.502555 0.002168
C24   C     C_2   0.502248 0.115075 0.409306 -0.146919
C25   C     C_2   0.545497 0.071787 0.517317 -0.164168
C26   C     C_2   0.524628 0.885696 0.588843 -0.057156
Cu1   Cu    Cu3+1 0.521920 0.521810 0.644910 0.913313
Cu2   Cu    Cu3+1 0.478080 0.478190 0.355090 0.989851
H1    H     H_    0.083349 0.348889 0.303664 0.106239
H2    H     H_    0.568284 0.138663 0.631178 0.142620
H3    H     H_    0.505825 0.951744 0.694711 0.053665
H4    H     H_    0.222619 0.405372 0.093264 0.144577
H5    H     H_    0.273733 0.274248 0.157284 0.174757
H6    H     H_    0.190925 0.247459 0.834134 0.167473
H7    H     H_    0.239127 0.118118 0.898784 0.168686
H8    H     H_    0.060075 0.153517 0.042086 0.168464
H9    H     H_    0.006362 0.115781 0.847690 0.188948
H10   H     H_    0.011044 0.281877 0.974851 0.145989
H11   H     H_    0.959060 0.986900 0.174175 0.146392
H12   H     H_    0.475027 0.048170 0.296155 0.116223
H13   H     H_    0.059219 0.859225 0.106540 0.122384
H14   H     H_    0.768894 0.829999 0.079773 0.167028
H15   H     H_    0.866311 0.697362 0.008922 0.161441
H16   H     H_    0.981704 0.741596 0.264580 0.153148
H17   H     H_    0.815045 0.708164 0.250324 0.172573
H18   H     H_    0.882887 0.874012 0.336061 0.158503
H19   H     H_    0.623167 0.902464 0.307807 0.315008
H20   H     H_    0.422225 0.411381 0.842247 0.189156
H21   H     H_    0.568731 0.596574 0.155438 0.133513
H22   H     H_    0.619227 0.626926 0.935707 0.196693
H23   H     H_    0.262743 0.728890 0.728028 0.151297
H24   H     H_    0.177359 0.892339 0.921894 0.110000
H25   H     H_    0.804811 0.728774 0.726531 0.156846
H26   H     H_    0.858653 0.350617 0.301061 0.134862
N1    N     N_2   0.445130 0.445430 0.137370 -0.060317
N2    N     N_2   0.554930 0.554500 0.862630 -0.374518
O1    O     O_R   0.511700 0.332330 0.577400 -0.492150
O2    O     O_3   0.935204 0.909394 0.948721 -0.587421
O3    O     O_3   0.587207 0.849257 0.357395 -0.706683
O4    O     O_R   0.474680 0.295500 0.332650 -0.481431
O5    O     O_R   0.338160 0.518420 0.622400 -0.505489
O6    O     O_R   0.301140 0.481590 0.377650 -0.534301
O7    O     O_R   0.525320 0.704500 0.667350 -0.521673
O8    O     O_R   0.488300 0.667670 0.422600 -0.448578
O9    O     O_R   0.698860 0.518410 0.622350 -0.503869
O10   O     O_R   0.661840 0.481580 0.377600 -0.501828
O11   O     O_3   0.393197 0.328849 0.039870 -0.508322

loop_
_geom_bond_atom_site_label_1
_geom_bond_atom_site_label_2
_ccdc_geom_bond_type
C6    O7    A    
Cu2   O10   S    
C14   O11   S    
C19   H17   S    
Cu1   O9    S    
C1    O1    A    
C7    O9    A    
Cu1   O5    S    
C9    C10   A    
C16   H9    S    
C5    N2    D    
N1    O11   S    
C11   H25   S    
C17   O2    S    
C8    C12   A    
C4    O6    A    
C12   C20   A    
C14   H5    S    
C18   H14   S    
C17   C18   S    
C3    H21   S    
C19   H18   S    
C26   H3    S    
C2    C26   D    
C21   C22   A    
C20   C21   A    
C7    O10   A    
C12   C13   A    
C11   C13   A    
C8    H23   S    
C6    C26   S    
C9    H24   S    
Cu1   O7    S    
C7    C23   S    
Cu2   O8    S    
C15   H7    S    
C10   O2    S    
Cu2   N1    S    
C2    C25   S    
H22   N2    S    
Cu2   O4    S    
Cu1   O1    S    
C14   C15   S    
C5    H20   S    
C17   H13   S    
C10   C11   A    
H19   O3    S    
C15   C16   S    
C4    C20   S    
C19   H16   S    
C25   H2    S    
C14   H4    S    
C24   C25   D    
C13   C23   A    
C1    C24   S    
C22   H26   S    
C18   C19   S    
C17   H11   S    
C1    O4    A    
C6    O8    A    
Cu1   Cu2   S    
Cu1   N2    S    
C15   H6    S    
C24   H12   S    
C3    N1    D    
C18   H15   S    
C2    O3    S    
C21   H1    S    
C4    O5    A    
C22   C23   A    
C16   H8    S    
C16   H10   S    
C8    C9    A    
C3    C5    S    
Cu2   O6    S    
