data_mof_unit_32469.cif
_audit_creation_date              2012-12-10T18:43:46-0500
_audit_creation_method            fapswitch 2.2
_symmetry_space_group_name_H-M    P1
_symmetry_Int_Tables_number       1
_space_group_crystal_system       triclinic
_cell_length_a                    10.824548
_cell_length_b                    10.629995
_cell_length_c                    9.956901
_cell_angle_alpha                 88.585436
_cell_angle_beta                  103.262773
_cell_angle_gamma                 92.541236
_cell_volume                      1113.91128295

loop_
_atom_site_label
_atom_site_type_symbol
_atom_type_description
_atom_site_fract_x
_atom_site_fract_y
_atom_site_fract_z
_atom_type_partial_charge
C1    C     C_R   0.502867 0.260721 0.502035 0.924359
C2    C     C_2   0.876259 0.510155 0.590109 -0.265012
C3    C     C_2   0.065890 0.521381 0.507520 -0.063695
C4    C     C_2   0.934231 0.487558 0.490391 -0.055949
C5    C     C_R   0.406004 0.066618 0.409635 -0.217921
C6    C     C_R   0.591522 0.933034 0.591669 -0.162042
C7    C     C_R   0.400373 0.937172 0.403436 -0.126692
C8    C     C_R   0.598000 0.062646 0.597352 -0.046571
C9    C     C_R   0.495587 0.871766 0.494787 -0.060508
C10   C     C_R   0.503704 0.128120 0.504280 -0.063617
C11   C     C_2   0.291263 0.874612 0.305930 0.938333
C12   C     C_R   0.495401 0.739152 0.497392 0.864645
C13   C     C_2   0.706069 0.124422 0.696959 0.929798
C14   C     C_R   0.259944 0.500991 0.442292 0.923277
C15   C     C_R   0.740187 0.500698 0.557598 0.984156
C16   C     C_R   0.587280 0.574162 0.087252 0.485671
C17   C     C_R   0.412521 0.426063 0.912654 0.479601
C18   C     C_R   0.585982 0.571840 0.944823 -0.184855
C19   C     C_R   0.414083 0.428063 0.055189 -0.176517
C20   C     C_2   0.123981 0.494712 0.409164 -0.281529
H1    H     H_    0.883149 0.446147 0.393565 0.205884
H2    H     H_    0.180673 0.165192 0.876085 0.395558
H3    H     H_    0.160143 0.966740 0.376997 0.313472
H4    H     H_    0.835726 0.111656 0.877827 0.361155
H5    H     H_    0.117139 0.563895 0.603659 0.205928
H6    H     H_    0.927654 0.544675 0.690203 0.175111
H7    H     H_    0.072470 0.458700 0.309775 0.178421
H8    H     H_    0.655011 0.627555 0.903181 0.215896
H9    H     H_    0.344917 0.372621 0.096849 0.213026
H10   H     H_    0.333957 0.120229 0.340584 0.160236
H11   H     H_    0.663284 0.878897 0.660386 0.185710
H12   H     H_    0.809677 0.842502 0.122059 0.407587
N1    N     N_R   0.499970 0.499970 0.857200 -0.181872
N2    N     N_R   0.500030 0.500030 0.142800 -0.176262
O1    O     O_R   0.499990 0.316750 0.614620 -0.552719
O2    O     O_2   0.834930 0.603889 0.195578 -0.340848
O3    O     O_3   0.725550 0.802364 0.081066 -0.533342
O4    O     O_2   0.165564 0.403346 0.797906 -0.338299
O5    O     O_2   0.297155 0.282070 0.683790 -0.273478
O6    O     O_3   0.265403 0.203021 0.919015 -0.559735
O7    O     O_2   0.309798 0.798089 0.224083 -0.521079
O8    O     O_R   0.166363 0.905590 0.302582 -0.749066
O9    O     O_2   0.748643 0.228327 0.671372 -0.640432
O10   O     O_R   0.762322 0.061044 0.818978 -0.765629
O11   O     O_R   0.500010 0.683250 0.385380 -0.525447
O12   O     O_R   0.499990 0.316780 0.385290 -0.631503
O13   O     O_R   0.500010 0.683220 0.614710 -0.634750
O14   O     O_R   0.317810 0.500000 0.571850 -0.566343
O15   O     O_R   0.682190 0.500000 0.428150 -0.576705
O16   O     O_R   0.317810 0.500030 0.342520 -0.609013
O17   O     O_R   0.682190 0.499970 0.657480 -0.606398
O18   O     O_2   0.703542 0.716847 0.317529 -0.267026
S1    S     S_3+6 0.714307 0.673118 0.179396 0.054310
S2    S     S_3+6 0.283857 0.329639 0.819504 0.041627
Zn1   Zn    Zn3+2 0.500000 0.499980 0.653120 1.049263
Zn2   Zn    Zn3+2 0.500000 0.500020 0.346880 1.061834

loop_
_geom_bond_atom_site_label_1
_geom_bond_atom_site_label_2
_ccdc_geom_bond_type
N1    Zn1   S    
O14   Zn1   S    
C2    C4    D    
N2    Zn2   S    
C8    C13   S    
C4    H1    S    
C20   H7    S    
C15   O17   A    
O15   Zn2   S    
C5    C7    A    
O6    S2    S    
O4    S2    D    
C3    H5    S    
H2    O6    S    
C6    C9    A    
C6    H11   S    
O3    S1    S    
C3    C20   D    
C2    H6    S    
H12   O3    S    
C13   O10   S    
C7    C11   S    
C2    C15   S    
C14   O16   A    
H3    O8    S    
C17   N1    A    
C12   O13   A    
O13   Zn1   S    
C17   C19   A    
C11   O7    D    
O17   Zn1   S    
C15   O15   A    
H4    O10   S    
C9    C12   S    
C1    O12   A    
O5    S2    D    
C18   N1    A    
C5    C10   A    
C3    C4    S    
C19   H9    S    
C14   C20   S    
C13   O9    D    
C18   H8    S    
O18   S1    D    
C1    O1    A    
C11   O8    S    
C16   C18   A    
C5    H10   S    
O12   Zn2   S    
C7    C9    A    
C14   O14   A    
C16   S1    S    
C6    C8    A    
O2    S1    D    
C16   N2    A    
O1    Zn1   S    
C17   S2    S    
C8    C10   A    
O16   Zn2   S    
C1    C10   S    
O11   Zn2   S    
C12   O11   A    
C19   N2    A    
