data_mof_unit_42978.cif
_audit_creation_date              2012-12-11T17:41:23-0500
_audit_creation_method            fapswitch 2.2
_symmetry_space_group_name_H-M    P1
_symmetry_Int_Tables_number       1
_space_group_crystal_system       triclinic
_cell_length_a                    15.496104
_cell_length_b                    14.949495
_cell_length_c                    15.197652
_cell_angle_alpha                 109.694952
_cell_angle_beta                  121.387775
_cell_angle_gamma                 59.01424
_cell_volume                      2565.13311292

loop_
_atom_site_label
_atom_site_type_symbol
_atom_type_description
_atom_site_fract_x
_atom_site_fract_y
_atom_site_fract_z
_atom_type_partial_charge
C1    C     C_R   0.798518 0.945799 0.776761 -0.129915
C2    C     C_R   0.261647 0.407817 0.105026 -0.286966
C3    C     C_R   0.645630 0.752588 0.903101 0.527242
C4    C     C_R   0.350145 0.312031 0.098374 0.515371
C5    C     C_R   0.677023 0.831136 0.976395 -0.230956
C6    C     C_R   0.330023 0.222366 0.045762 -0.207510
C7    C     C_R   0.791055 0.811482 0.031765 0.508838
C8    C     C_R   0.219940 0.230636 0.994513 0.506918
C9    C     C_R   0.871640 0.714198 0.013458 -0.276002
C10   C     C_R   0.132949 0.326832 0.005612 -0.305454
C11   C     C_R   0.839526 0.638362 0.938622 -0.237555
C12   C     C_R   0.239094 0.012688 0.210079 -0.124176
C13   C     C_R   0.154116 0.414663 0.060299 -0.213829
C14   C     C_R   0.594196 0.964469 0.090651 -0.222951
C15   C     C_R   0.420200 0.094840 0.934989 -0.253870
C16   C     C_R   0.243061 0.290395 0.489721 -0.119390
C17   C     C_R   0.800589 0.725013 0.557811 -0.125957
C18   C     C_R   0.508852 0.055708 0.109436 0.056052
C19   C     C_R   0.502680 0.001214 0.915966 0.071086
C20   C     C_R   0.421447 0.122982 0.031489 0.185387
C21   C     C_R   0.590820 0.934680 0.993864 0.117385
C22   C     C_2   0.148364 0.398684 0.609868 -0.225846
C23   C     C_R   0.209841 0.300522 0.562986 0.151075
C24   C     C_2   0.977394 0.652541 0.535146 -0.219344
C25   C     C_2   0.134180 0.490263 0.597097 -0.109962
C26   C     C_2   0.039662 0.584578 0.606587 -0.111378
C27   C     C_2   0.973665 0.972439 0.853020 -0.221212
C28   C     C_2   0.140102 0.894460 0.101362 -0.235293
C29   C     C_R   0.184034 0.740593 0.508139 -0.123294
C30   C     C_R   0.806398 0.113994 0.361861 -0.170308
C31   C     C_R   0.284149 0.668282 0.500976 -0.145892
C32   C     C_R   0.705854 0.201369 0.352735 -0.142624
C33   C     C_R   0.288147 0.637683 0.404473 0.114489
C34   C     C_R   0.862205 0.725352 0.516810 0.149214
C35   C     C_R   0.704805 0.290814 0.424156 0.111222
C36   C     C_R   0.190220 0.678116 0.315122 -0.193429
C37   C     C_R   0.807338 0.290682 0.504173 -0.169263
C38   C     C_R   0.090445 0.750400 0.322806 -0.132950
C39   C     C_R   0.907767 0.203634 0.511967 -0.113195
C40   C     C_R   0.593643 0.214642 0.486413 -0.139850
C41   C     C_R   0.405766 0.769831 0.467824 -0.119401
C42   C     C_R   0.087334 0.781830 0.419158 -0.100191
C43   C     C_R   0.907292 0.115274 0.441023 -0.075621
C44   C     C_R   0.397006 0.460113 0.356731 -0.213031
C45   C     C_R   0.502387 0.292369 0.423834 0.042185
C46   C     C_R   0.590870 0.484222 0.440173 -0.253886
C47   C     C_R   0.499517 0.373049 0.387174 0.121968
C48   C     C_R   0.492917 0.571447 0.441713 0.069603
C49   C     C_R   0.597135 0.382872 0.416317 0.042319
C50   C     C_R   0.393189 0.558625 0.396478 -0.001444
C51   C     C_2   0.036206 0.897006 0.916994 -0.118542
C52   C     C_2   0.129645 0.906166 0.012374 -0.112123
C53   C     C_R   0.407743 0.012386 0.726123 -0.120531
C54   C     C_R   0.594159 0.012525 0.287483 -0.154713
C55   C     C_R   0.409527 0.284393 0.406293 -0.129089
C56   C     C_R   0.496599 0.673533 0.484124 0.059528
C57   C     C_R   0.591521 0.693122 0.539005 -0.112727
C58   C     C_R   0.594386 0.943912 0.801551 -0.132761
C59   C     C_R   0.409405 0.083736 0.209514 -0.119668
C60   C     C_R   0.239708 0.200626 0.579604 -0.152831
C61   C     C_R   0.800311 0.814931 0.466036 -0.145139
C62   C     C_R   0.799493 0.037657 0.687681 -0.149942
C63   C     C_R   0.231721 0.924827 0.297878 -0.152910
C64   C     C_R   0.859757 0.988651 0.777753 0.149965
C65   C     C_R   0.202225 0.941199 0.199332 0.156424
C66   C     C_3   0.505138 0.737405 0.898503 0.267018
C67   C     C_R   0.501699 0.982752 0.817833 0.127988
C68   C     C_3   0.380879 0.765333 0.840686 -0.881486
C69   C     C_3   0.469039 0.345950 0.083847 0.258626
C70   C     C_3   0.590451 0.325879 0.129213 -0.882249
C71   C     C_3   0.844395 0.940055 0.064525 0.249015
C72   C     C_3   0.898038 0.009473 0.150146 -0.906891
C73   C     C_3   0.112080 0.160830 0.842736 0.279045
C74   C     C_3   0.126542 0.058507 0.773002 -0.947094
C75   C     C_R   0.503310 0.061669 0.202154 0.070305
C76   C     C_R   0.727108 0.657597 0.883337 -0.255389
H1    H     H_    0.825574 0.892382 0.828424 0.074120
H2    H     H_    0.048925 0.333935 0.972280 0.129873
H3    H     H_    0.659284 0.909816 0.148723 0.146610
H4    H     H_    0.355192 0.147436 0.874852 0.116467
H5    H     H_    0.010434 0.587823 0.659260 0.124841
H6    H     H_    0.177202 0.493635 0.561124 0.132541
H7    H     H_    0.007607 0.648020 0.482560 0.141015
H8    H     H_    0.103808 0.396427 0.645002 0.126746
H9    H     H_    0.009887 0.837751 0.424782 0.103398
H10   H     H_    0.985041 0.047625 0.447668 0.108454
H11   H     H_    0.231026 0.351741 0.456611 0.094718
H12   H     H_    0.225645 0.047714 0.150038 0.107253
H13   H     H_    0.828611 0.673649 0.611968 0.082171
H14   H     H_    0.181273 0.764460 0.582570 0.121399
H15   H     H_    0.806053 0.045017 0.307628 0.148387
H16   H     H_    0.358502 0.636351 0.570288 0.122332
H17   H     H_    0.628881 0.198206 0.291205 0.180782
H18   H     H_    0.191478 0.654293 0.239999 0.110871
H19   H     H_    0.809995 0.356921 0.561950 0.101438
H20   H     H_    0.015493 0.781807 0.254035 0.166516
H21   H     H_    0.985999 0.204406 0.573670 0.102087
H22   H     H_    0.319700 0.452865 0.322659 0.128045
H23   H     H_    0.094292 0.858771 0.101429 0.138210
H24   H     H_    0.663853 0.494360 0.461572 0.125887
H25   H     H_    0.680750 0.191378 0.511214 0.114344
H26   H     H_    0.319696 0.788573 0.436324 0.119283
H27   H     H_    0.322488 0.037163 0.710241 0.091157
H28   H     H_    0.680978 0.990713 0.311190 0.099319
H29   H     H_    0.324638 0.321610 0.350230 0.094335
H30   H     H_    0.677840 0.637339 0.569497 0.087076
H31   H     H_    0.681248 0.909845 0.853588 0.073786
H32   H     H_    0.323529 0.127441 0.159886 0.118883
H33   H     H_    0.222275 0.181795 0.629463 0.090021
H34   H     H_    0.002100 0.029633 0.862936 0.144306
H35   H     H_    0.829644 0.845813 0.437242 0.093859
H36   H     H_    0.829567 0.067310 0.658502 0.101359
H37   H     H_    0.204380 0.881692 0.314159 0.102222
H38   H     H_    0.175103 0.941488 0.011188 0.149167
H39   H     H_    0.008288 0.840239 0.909120 0.124505
H40   H     H_    0.522583 0.776904 0.978710 0.095510
H41   H     H_    0.551244 0.650870 0.901728 0.086429
H42   H     H_    0.360566 0.725939 0.760716 0.246618
H43   H     H_    0.356268 0.739578 0.881368 0.211102
H44   H     H_    0.333136 0.851431 0.837185 0.267836
H45   H     H_    0.901825 0.564405 0.923278 0.153074
H46   H     H_    0.417200 0.432088 0.082339 0.097374
H47   H     H_    0.445211 0.307335 0.003146 0.087297
H48   H     H_    0.644230 0.240311 0.131375 0.255681
H49   H     H_    0.601202 0.357292 0.080732 0.208900
H50   H     H_    0.616459 0.365173 0.209053 0.262215
H51   H     H_    0.764598 0.991729 0.007056 0.105988
H52   H     H_    0.901580 0.885363 0.027172 0.074412
H53   H     H_    0.973848 0.962416 0.213713 0.250364
H54   H     H_    0.921846 0.046164 0.118735 0.227220
H55   H     H_    0.838040 0.072677 0.181045 0.256677
H56   H     H_    0.087044 0.488384 0.068096 0.156984
H57   H     H_    0.107297 0.217125 0.805515 0.069059
H58   H     H_    0.032582 0.191722 0.848375 0.091886
H59   H     H_    0.136140 0.998530 0.808885 0.262990
H60   H     H_    0.052558 0.071273 0.696809 0.213968
H61   H     H_    0.201902 0.029038 0.760915 0.254833
H62   H     H_    0.702987 0.598437 0.825197 0.143921
H63   H     H_    0.276392 0.477104 0.145105 0.145042
H64   H     H_    0.959225 0.698035 0.056583 0.132841
N1    N     N_R   0.705410 0.966550 0.689210 -0.044335
N2    N     N_R   0.556610 0.796750 0.548620 -0.038418
N3    N     N_R   0.556610 0.951620 0.703500 -0.041639
N4    N     N_R   0.443390 0.048380 0.296500 -0.044046
N5    N     N_R   0.294590 0.131500 0.522480 -0.042956
N6    N     N_R   0.705410 0.868500 0.477520 -0.041917
N7    N     N_R   0.705410 0.023370 0.632390 -0.042559
N8    N     N_R   0.294590 0.976630 0.367610 -0.043130
N9    N     N_R   0.294590 0.033450 0.310790 -0.047323
N10   N     N_R   0.294590 0.188320 0.465660 -0.047273
N11   N     N_R   0.705410 0.811680 0.534340 -0.045133
N12   N     N_R   0.556610 0.157790 0.497330 -0.038035
N13   N     N_R   0.443390 0.842210 0.502670 -0.041095
N14   N     N_R   0.443390 0.997080 0.657540 -0.044027
N15   N     N_R   0.556610 0.002920 0.342460 -0.035967
N16   N     N_R   0.443390 0.203250 0.451380 -0.040905
Ni1   Ni    Ni4+2 0.629830 0.882720 0.617850 0.217116
Ni2   Ni    Ni4+2 0.370170 0.117280 0.382150 0.212114
Ni3   Ni    Ni4+2 0.629830 0.013030 0.487540 0.209629
Ni4   Ni    Ni4+2 0.370170 0.986970 0.512460 0.222050
O1    O     O_3   0.534612 0.770918 0.845757 -0.627299
O2    O     O_3   0.457208 0.304865 0.145983 -0.647861
O3    O     O_3   0.824078 0.885729 0.106745 -0.650039
O4    O     O_3   0.202453 0.141016 0.942060 -0.635195

loop_
_geom_bond_atom_site_label_1
_geom_bond_atom_site_label_2
_ccdc_geom_bond_type
C66   C68   S    
C63   C65   A    
C18   C75   S    
C29   C42   A    
C1    H1    S    
C73   C74   S    
C14   C18   A    
N7    Ni3   S    
C10   H2    S    
C72   H53   S    
C47   C49   A    
C11   H45   S    
C41   H26   S    
C15   C19   A    
C46   C49   A    
C37   H19   S    
C73   H58   S    
C71   O3    S    
C57   N2    A    
C55   H29   S    
C2    H63   S    
N11   Ni1   S    
C14   C21   A    
C54   H28   S    
C35   C37   A    
C24   H7    S    
C24   C26   D    
C38   C42   A    
C73   O4    S    
C11   C76   A    
C68   H43   S    
C9    H64   S    
C39   H21   S    
C69   H47   S    
C33   C36   A    
C56   C57   A    
C40   N12   A    
C48   C56   S    
C58   H31   S    
N8    Ni4   S    
C2    C13   A    
C62   C64   A    
C60   H33   S    
C68   H42   S    
C40   H25   S    
C44   H22   S    
C58   N3    A    
N12   N16   A    
C27   H34   S    
C66   H41   S    
C74   H60   S    
C35   C49   S    
C16   H11   S    
C31   C33   A    
C19   C67   S    
N9    Ni2   S    
N5    N10   A    
C44   C47   A    
C70   H50   S    
C48   C50   A    
C57   H30   S    
N12   Ni3   S    
C53   N14   A    
C71   H51   S    
C17   N11   A    
C29   H14   S    
C27   C51   D    
N3    Ni1   S    
C41   N13   A    
C45   C47   S    
C23   C60   A    
C74   H61   S    
C46   C48   A    
C12   H12   S    
N15   Ni3   S    
C51   C52   S    
C32   C35   A    
C17   H13   S    
N8    N9    A    
C4    C6    A    
C8    O4    S    
C54   N15   A    
C5    C7    A    
N5    Ni4   S    
N1    N7    A    
N3    N14   A    
C39   C43   A    
N6    Ni3   S    
C25   C26   S    
C7    O3    S    
C22   C25   D    
C34   C61   A    
C24   C34   S    
N6    N11   A    
C66   O1    S    
C15   C20   A    
C22   H8    S    
C2    C4    A    
C61   N6    A    
C41   C56   A    
N14   Ni4   S    
C70   H48   S    
C15   H4    S    
C74   H59   S    
C62   H36   S    
C42   H9    S    
C14   H3    S    
C69   O2    S    
C3    C76   A    
C9    C11   A    
C66   H40   S    
C30   C43   A    
C28   H23   S    
N1    Ni1   S    
C73   H57   S    
C59   N4    A    
C26   H5    S    
C52   H38   S    
C62   N7    A    
C25   H6    S    
C4    O2    S    
C71   H52   S    
C17   C34   A    
N2    Ni1   S    
N4    Ni2   S    
C61   H35   S    
C1    C64   A    
C59   C75   A    
C63   N8    A    
C70   H49   S    
C72   H55   S    
C44   C50   A    
C7    C9    A    
C46   H24   S    
C55   N16   A    
N10   Ni2   S    
C19   C21   A    
C43   H10   S    
C12   N9    A    
C8    C10   A    
C30   H15   S    
C3    C5    A    
C10   C13   A    
C6    C8    A    
C72   H54   S    
C76   H62   S    
C16   C23   A    
C6    C20   S    
C12   C65   A    
C59   H32   S    
N4    N15   A    
N16   Ni2   S    
C28   C65   S    
C33   C50   S    
C71   C72   S    
C29   C31   A    
C68   H44   S    
C30   C32   A    
C28   C52   D    
C69   H46   S    
C53   H27   S    
C36   C38   A    
C13   H56   S    
C32   H17   S    
C18   C20   A    
N2    N13   A    
C69   C70   S    
C53   C67   A    
C51   H39   S    
C1    N1    A    
C27   C64   S    
C3    O1    S    
C54   C75   A    
C63   H37   S    
C36   H18   S    
C58   C67   A    
C5    C21   S    
C40   C45   A    
C45   C55   A    
C37   C39   A    
C31   H16   S    
C60   N5    A    
C38   H20   S    
N13   Ni4   S    
C22   C23   S    
C16   N10   A    
