data_mof_unit_55330.cif
_audit_creation_date              2012-12-10T16:50:56-0500
_audit_creation_method            fapswitch 2.2
_symmetry_space_group_name_H-M    P1
_symmetry_Int_Tables_number       1
_space_group_crystal_system       triclinic
_cell_length_a                    8.089312
_cell_length_b                    8.53576
_cell_length_c                    10.537687
_cell_angle_alpha                 92.190951
_cell_angle_beta                  87.733059
_cell_angle_gamma                 92.003883
_cell_volume                      726.101851349

loop_
_atom_site_label
_atom_site_type_symbol
_atom_type_description
_atom_site_fract_x
_atom_site_fract_y
_atom_site_fract_z
_atom_type_partial_charge
C1    C     C_R   0.542353 0.792334 0.501193 0.931550
C2    C     C_R   0.934831 0.507750 0.076075 -0.065795
C3    C     C_R   0.068819 0.597801 0.030461 -0.146319
C4    C     C_R   0.931181 0.402199 0.969538 -0.146319
C5    C     C_R   0.207703 0.608700 0.105526 -0.219206
C6    C     C_R   0.792297 0.391299 0.894474 -0.219206
C7    C     C_R   0.351345 0.535488 0.062426 0.093405
C8    C     C_R   0.648654 0.464512 0.937574 0.093404
C9    C     C_R   0.353633 0.457015 0.943719 0.085784
C10   C     C_R   0.646366 0.542984 0.056281 0.085784
C11   C     C_R   0.497604 0.553719 0.126404 -0.246270
C12   C     C_R   0.457647 0.207666 0.498807 0.931550
C13   C     C_R   0.502396 0.446281 0.873596 -0.246270
C14   C     C_3   0.674721 0.010547 0.628130 -0.941703
C15   C     C_3   0.325279 0.989452 0.371870 -0.941703
C16   C     C_3   0.008073 0.312025 0.411542 -0.543678
C17   C     C_3   0.991927 0.687975 0.588458 -0.543678
C18   C     C_2   0.556821 0.955028 0.525188 0.006069
C19   C     C_2   0.443179 0.044972 0.474812 0.006069
C20   C     C_R   0.501155 0.479510 0.738178 0.861375
C21   C     C_R   0.498845 0.520490 0.261822 0.861375
C22   C     C_R   0.204884 0.408704 0.891392 -0.198816
C23   C     C_R   0.795115 0.591296 0.108608 -0.198815
C24   C     C_R   0.065169 0.492250 0.923925 -0.065795
H1    H     H_    0.960878 0.282330 0.990335 0.147254
H2    H     H_    0.787695 0.067380 0.584920 0.262323
H3    H     H_    0.613237 0.093058 0.697511 0.230015
H4    H     H_    0.285457 0.088982 0.316782 0.229094
H5    H     H_    0.386763 0.906941 0.302489 0.230015
H6    H     H_    0.212304 0.932620 0.415080 0.262323
H7    H     H_    0.910520 0.258301 0.351165 0.179471
H8    H     H_    0.119110 0.331418 0.349017 0.219005
H9    H     H_    0.028626 0.229297 0.487577 0.198865
H10   H     H_    0.089479 0.741699 0.648835 0.179470
H11   H     H_    0.971374 0.770703 0.512422 0.198864
H12   H     H_    0.039122 0.717670 0.009665 0.147254
H13   H     H_    0.880890 0.668582 0.650982 0.219005
H14   H     H_    0.201071 0.324751 0.811326 0.158833
H15   H     H_    0.798929 0.675249 0.188674 0.158833
H16   H     H_    0.037912 0.551681 0.837603 0.171661
H17   H     H_    0.962088 0.448319 0.162397 0.171661
H18   H     H_    0.207820 0.689018 0.187756 0.165115
H19   H     H_    0.792180 0.310982 0.812244 0.165115
H20   H     H_    0.714544 0.911018 0.683217 0.229094
N1    N     N_2   0.950330 0.457950 0.466250 -0.008499
N2    N     N_2   0.049670 0.542050 0.533750 -0.008499
O1    O     O_R   0.389250 0.738570 0.508280 -0.611546
O2    O     O_R   0.610750 0.261430 0.491720 -0.611546
O3    O     O_R   0.678390 0.711630 0.486650 -0.638558
O4    O     O_R   0.321610 0.288370 0.513350 -0.638558
O5    O     O_R   0.355430 0.513480 0.694040 -0.610824
O6    O     O_R   0.644570 0.486520 0.305960 -0.610824
O7    O     O_R   0.644570 0.486540 0.672410 -0.626630
O8    O     O_R   0.355430 0.513460 0.327590 -0.626630
Zn1   Zn    Zn3+2 0.306940 0.517990 0.514440 0.918026
Zn2   Zn    Zn3+2 0.693060 0.482010 0.485560 0.918026

loop_
_geom_bond_atom_site_label_1
_geom_bond_atom_site_label_2
_ccdc_geom_bond_type
N2    Zn1   S    
C16   N1    S    
C2    C4    A    
C5    H18   S    
C8    C10   A    
C15   H5    S    
C8    C13   A    
C14   H3    S    
C16   H8    S    
O3    Zn2   S    
C5    C7    A    
C14   C18   S    
C12   O4    A    
O4    Zn1   S    
C12   O2    A    
C7    C9    A    
C2    C3    A    
C15   H4    S    
O1    Zn1   S    
C16   H9    S    
C17   H13   S    
N1    N2    D    
C14   H2    S    
C16   H7    S    
C15   C19   S    
C1    C18   S    
C3    H12   S    
C23   H15   S    
C12   C19   S    
C4    C6    A    
C24   H16   S    
C7    C11   A    
C20   O5    A    
O5    Zn1   S    
C6    H19   S    
C21   O8    A    
C4    C24   A    
C22   C24   A    
C9    C22   A    
C10   C11   A    
C2    H17   S    
C22   H14   S    
C4    H1    S    
C17   N2    S    
C15   H6    S    
C14   H20   S    
C18   C19   D    
C17   H10   S    
O7    Zn2   S    
C2    C23   A    
O2    Zn2   S    
C9    C13   A    
O8    Zn1   S    
C1    O1    A    
C10   C23   A    
C6    C8    A    
C17   H11   S    
C13   C20   S    
C1    O3    A    
C11   C21   S    
C21   O6    A    
O6    Zn2   S    
N1    Zn2   S    
C3    C24   A    
C20   O7    A    
C3    C5    A    
