data_mof_unit_32958.cif
_audit_creation_date              2012-12-10T19:01:19-0500
_audit_creation_method            fapswitch 2.2
_symmetry_space_group_name_H-M    P1
_symmetry_Int_Tables_number       1
_space_group_crystal_system       triclinic
_cell_length_a                    9.581626
_cell_length_b                    10.785655
_cell_length_c                    15.560214
_cell_angle_alpha                 89.346547
_cell_angle_beta                  73.166221
_cell_angle_gamma                 89.81508
_cell_volume                      1539.04946041

loop_
_atom_site_label
_atom_site_type_symbol
_atom_type_description
_atom_site_fract_x
_atom_site_fract_y
_atom_site_fract_z
_atom_type_partial_charge
C1    C     C_R   0.999702 0.262752 0.501104 0.823816
C2    C     C_R   0.665988 0.423037 0.903823 0.138137
C3    C     C_R   0.766207 0.380748 0.949276 0.071359
C4    C     C_R   0.514124 0.424454 0.949200 -0.003383
C5    C     C_R   0.468194 0.416502 0.044198 0.050526
C6    C     C_R   0.568665 0.371636 0.088105 -0.170802
C7    C     C_R   0.714072 0.346685 0.040969 -0.157047
C8    C     C_R   0.406369 0.434675 0.903221 -0.017316
C9    C     C_R   0.266330 0.474323 0.949218 -0.257797
C10   C     C_R   0.224015 0.484328 0.042173 0.127213
C11   C     C_R   0.322431 0.450810 0.091245 0.113994
C12   C     C_R   0.916794 0.494064 0.672204 0.780222
C13   C     C_R   0.081192 0.521430 0.086777 -0.148949
C14   C     C_R   0.034422 0.526531 0.179979 -0.122318
C15   C     C_R   0.272475 0.457334 0.185418 -0.125448
C16   C     C_R   0.120201 0.064949 0.452321 0.050740
C17   C     C_R   0.999997 0.129665 0.504406 -0.031154
C18   C     C_R   0.884629 0.064209 0.563652 -0.173225
C19   C     C_R   0.885653 0.934568 0.564027 -0.112339
C20   C     C_R   0.000241 0.870733 0.503790 -0.020246
C21   C     C_R   0.120177 0.937353 0.451603 -0.031029
C22   C     C_3   0.199791 0.933657 0.352965 -0.267294
C23   C     C_R   0.999935 0.737432 0.500230 0.801628
C24   C     C_3   0.200523 0.075741 0.354411 0.022479
C25   C     C_R   0.604142 0.556832 0.432592 0.170484
C26   C     C_R   0.545965 0.432249 0.561067 0.010507
C27   C     C_R   0.396802 0.433010 0.561609 -0.000469
C28   C     C_R   0.459539 0.549906 0.429147 0.201081
C29   C     C_3   0.465414 0.677317 0.390504 -0.034549
C30   C     C_3   0.615596 0.690498 0.403990 0.034940
C31   C     C_R   0.083016 0.499945 0.327964 0.844049
C32   C     C_R   0.868919 0.465549 0.769358 -0.060725
C33   C     C_R   0.130122 0.495103 0.229646 -0.024748
C34   C     C_R   0.916194 0.378488 0.902540 -0.228131
C35   C     C_R   0.966424 0.418587 0.813298 -0.169949
C36   C     C_R   0.720689 0.471474 0.816004 -0.172963
Cu1   Cu    Cu3+1 0.140670 0.499980 0.500000 0.983026
Cu2   Cu    Cu3+1 0.859330 0.500020 0.500000 1.014927
H1    H     H_    0.005229 0.545787 0.049493 0.147588
H2    H     H_    0.793618 0.113033 0.608243 0.153672
H3    H     H_    0.796208 0.884512 0.609682 0.177451
H4    H     H_    0.311492 0.895660 0.340156 0.177124
H5    H     H_    0.311616 0.114574 0.343985 0.148394
H6    H     H_    0.578909 0.378872 0.610841 0.144709
H7    H     H_    0.317356 0.379946 0.611949 0.168524
H8    H     H_    0.342541 0.434731 0.226264 0.168714
H9    H     H_    0.380969 0.740303 0.431385 0.191246
H10   H     H_    0.705484 0.708630 0.341592 0.190014
H11   H     H_    0.923879 0.555947 0.213115 0.176606
H12   H     H_    0.187217 0.490707 0.912809 0.170918
H13   H     H_    0.995984 0.346616 0.934558 0.162278
H14   H     H_    0.081419 0.411472 0.778365 0.198007
H15   H     H_    0.648470 0.516135 0.783220 0.151723
H16   H     H_    0.535087 0.348548 0.158689 0.166602
N1    N     N_R   0.648210 0.500930 0.499430 -0.180488
N2    N     N_R   0.352300 0.500890 0.499430 -0.205748
O1    O     O_R   0.118810 0.319640 0.500000 -0.593098
O2    O     O_R   0.881230 0.319680 0.499990 -0.565128
O3    O     O_R   0.055580 0.499970 0.629840 -0.578170
O4    O     O_R   0.818000 0.500010 0.629830 -0.582751
O5    O     O_R   0.118770 0.680320 0.500010 -0.591149
O6    O     O_R   0.881190 0.680360 0.500000 -0.530675
O7    O     O_R   0.182000 0.499990 0.370170 -0.565139
O8    O     O_R   0.944420 0.500030 0.370160 -0.571527
C37   C     C_2   0.808282 0.287621 0.090967 0.892619
O9    O     O_2   0.803570 0.324621 0.165617 -0.521976
O10   O     O_R   0.897522 0.186333 0.056302 -0.688668
H17   H     H_    0.882223 0.153891 0.998849 0.302288
C38   C     C_2   0.116020 0.874961 0.295067 0.963513
O11   O     O_2   0.983117 0.883474 0.314499 -0.541854
O12   O     O_R   0.192765 0.811919 0.217865 -0.714184
H18   H     H_    0.126676 0.779435 0.182823 0.334245
Br1   Br    Br    0.091721 0.162194 0.283039 -0.402804
Br2   Br    Br    0.476818 0.673252 0.263937 -0.508342
Br3   Br    Br    0.602876 0.806289 0.500861 -0.477578
C39   C     C_2   0.427064 0.380037 0.813570 0.814515
O13   O     O_2   0.360678 0.421986 0.763621 -0.656279
O14   O     O_R   0.516999 0.276235 0.788359 -0.753164
H19   H     H_    0.513643 0.240491 0.729082 0.318722

loop_
_geom_bond_atom_site_label_1
_geom_bond_atom_site_label_2
_ccdc_geom_bond_type
C8    C9    A    
C16   C21   A    
C19   C20   A    
C4    C8    A    
C26   N1    A    
C14   C33   A    
C28   N2    A    
C26   H6    S    
C25   C28   A    
C34   H13   S    
Cu1   Cu2   S    
C29   H9    S    
C32   C36   A    
C30   H10   S    
C28   C29   S    
C39   O14   S    
C5    C11   A    
C3    C7    A    
C5    C6    A    
C24   Br1   S    
C14   H11   S    
C8    C39   S    
C34   C35   A    
C38   O12   S    
C18   H2    S    
C36   H15   S    
Cu2   O2    S    
C12   O3    A    
C11   C15   A    
C23   O6    A    
Cu2   N1    S    
C16   C17   A    
C37   O10   S    
C31   C33   S    
C9    C10   A    
C22   C38   S    
C27   H7    S    
C16   C24   S    
C21   C22   S    
C12   C32   S    
Cu1   N2    S    
C6    H16   S    
Cu1   O7    S    
Cu2   O8    S    
O10   H17   S    
C32   C35   A    
C31   O7    A    
C39   O13   D    
C27   N2    A    
C18   C19   A    
C29   Br2   S    
C3    C34   A    
C2    C4    A    
C29   C30   S    
C1    O1    A    
C7    C37   S    
C20   C23   S    
C17   C18   A    
C26   C27   A    
Cu1   O3    S    
Cu2   O4    S    
C22   C24   S    
C2    C36   A    
C25   C30   S    
O14   H19   S    
C31   O8    A    
C9    H12   S    
C25   N1    A    
C4    C5    A    
C10   C13   A    
Cu1   O5    S    
C6    C7    A    
C1    C17   S    
C2    C3    A    
O12   H18   S    
C1    O2    A    
C30   Br3   S    
C22   H4    S    
C38   O11   D    
C13   H1    S    
C10   C11   A    
C12   O4    A    
C23   O5    A    
C20   C21   A    
C37   O9    D    
C35   H14   S    
C24   H5    S    
C15   H8    S    
C13   C14   A    
C15   C33   A    
Cu1   O1    S    
C19   H3    S    
Cu2   O6    S    
