data_mof_unit_14298.cif
_audit_creation_date              2012-12-10T18:46:17-0500
_audit_creation_method            fapswitch 2.2
_symmetry_space_group_name_H-M    P1
_symmetry_Int_Tables_number       1
_space_group_crystal_system       triclinic
_cell_length_a                    10.034855
_cell_length_b                    10.788757
_cell_length_c                    13.276695
_cell_angle_alpha                 90.039288
_cell_angle_beta                  75.730816
_cell_angle_gamma                 89.147323
_cell_volume                      1392.8691315

loop_
_atom_site_label
_atom_site_type_symbol
_atom_type_description
_atom_site_fract_x
_atom_site_fract_y
_atom_site_fract_z
_atom_type_partial_charge
C1    C     C_R   0.500163 0.739732 0.493697 0.976019
C2    C     C_R   0.476450 0.541775 0.962203 -0.013951
C3    C     C_R   0.499592 0.481348 0.866796 -0.213879
C4    C     C_R   0.573689 0.525142 0.019332 -0.061056
C5    C     C_R   0.709660 0.487079 0.972005 -0.140822
C6    C     C_R   0.737379 0.432562 0.871918 0.514429
C7    C     C_R   0.622530 0.411297 0.829082 0.475945
C8    C     C_R   0.529086 0.500003 0.124395 0.451721
C9    C     C_R   0.759670 0.536506 0.136852 0.360620
C10   C     C_R   0.395295 0.486805 0.814122 -0.245464
C11   C     C_R   0.621154 0.937796 0.465746 -0.173876
C12   C     C_R   0.428186 0.491016 0.701115 0.945701
C13   C     C_R   0.618924 0.059002 0.500284 0.378668
C14   C     C_R   0.495074 0.126695 0.518280 -0.317291
C15   C     C_R   0.368776 0.066129 0.532830 0.373173
C16   C     C_R   0.369010 0.939314 0.512492 0.423577
C17   C     C_R   0.496674 0.873776 0.485578 -0.308262
C18   C     C_R   0.951691 0.437958 0.424876 0.448835
C19   C     C_R   0.095777 0.440833 0.423271 -0.166047
C20   C     C_R   0.045862 0.559221 0.576119 -0.172961
C21   C     C_R   0.902844 0.561390 0.575519 0.462167
C22   C     C_R   0.497860 0.260571 0.508796 0.945623
C23   C     C_R   0.574228 0.506024 0.298545 0.905508
C24   C     C_R   0.805028 0.487742 0.035609 0.044811
C25   C     C_R   0.619873 0.518208 0.186037 -0.247221
C26   C     C_R   0.261167 0.515326 0.869619 0.475995
C27   C     C_R   0.244089 0.600146 0.952204 -0.238526
C28   C     C_R   0.354853 0.614148 0.999756 0.476923
H1    H     H_    0.078281 0.604186 0.638734 0.226534
N1    N     N_R   0.142790 0.500030 0.500030 -0.172476
N2    N     N_R   0.857180 0.499940 0.500010 -0.177173
O1    O     O_R   0.385370 0.683250 0.500010 -0.589583
O2    O     O_R   0.614700 0.683220 0.500010 -0.603160
O3    O     O_R   0.328400 0.499990 0.653620 -0.597851
O4    O     O_R   0.557730 0.499960 0.653620 -0.541149
O5    O     O_R   0.385300 0.316780 0.499990 -0.634108
O6    O     O_R   0.614630 0.316750 0.499990 -0.543428
O7    O     O_R   0.442270 0.500040 0.346380 -0.635395
O8    O     O_R   0.671600 0.500010 0.346380 -0.577255
Zn1   Zn    Zn3+2 0.346870 0.500020 0.500000 0.962903
Zn2   Zn    Zn3+2 0.653130 0.499980 0.500000 1.048214
O9    O     O_3   0.818057 0.644762 0.159697 -0.541833
C29   C     C_3   0.924686 0.618713 0.208429 -0.105754
H2    H     H_    0.990639 0.538338 0.174574 0.130661
H3    H     H_    0.883518 0.607097 0.292773 0.226654
H4    H     H_    0.989478 0.701570 0.201023 0.129097
O10   O     O_3   0.738026 0.114834 0.510216 -0.610176
C30   C     C_3   0.786067 0.057862 0.590534 -0.331549
H5    H     H_    0.703698 0.016977 0.653142 0.156233
H6    H     H_    0.837909 0.128550 0.626548 0.191853
H7    H     H_    0.864353 0.986011 0.557826 0.133348
O11   O     O_3   0.248943 0.127450 0.585031 -0.582650
C31   C     C_3   0.157332 0.141664 0.520585 -0.222399
H8    H     H_    0.209452 0.147914 0.436446 0.103816
H9    H     H_    0.082634 0.065613 0.534862 0.187450
H10   H     H_    0.097876 0.228819 0.542229 0.144309
O12   O     O_3   0.244225 0.879842 0.526805 -0.566588
C32   C     C_3   0.217335 0.857190 0.428480 -0.296076
H11   H     H_    0.303808 0.808277 0.373730 0.171518
H12   H     H_    0.194773 0.943983 0.390908 0.122384
H13   H     H_    0.125470 0.797825 0.439731 0.169102
O13   O     O_3   0.906681 0.384985 0.344162 -0.591026
C33   C     C_3   0.916930 0.254347 0.344655 -0.136564
H14   H     H_    0.950357 0.214971 0.412081 0.131392
H15   H     H_    0.989708 0.221429 0.272301 0.175332
H16   H     H_    0.815863 0.216593 0.341933 0.206211
C34   C     C_2   0.193511 0.379593 0.337002 0.473907
H17   H     H_    0.285686 0.335375 0.348370 0.126162
O14   O     O_2   0.170286 0.376640 0.251092 -0.582408
O15   O     O_3   0.806794 0.614251 0.657502 -0.557814
C35   C     C_3   0.820915 0.743761 0.653439 -0.255250
H18   H     H_    0.732594 0.786258 0.710792 0.186212
H19   H     H_    0.818564 0.779862 0.575530 0.135039
H20   H     H_    0.916464 0.772384 0.674627 0.179961
O16   O     O_3   0.875025 0.414039 0.819317 -0.548002
C36   C     C_3   0.897483 0.323752 0.740156 -0.176347
H21   H     H_    0.852031 0.350920 0.675476 0.195580
H22   H     H_    0.863215 0.231653 0.772995 0.161863
H23   H     H_    0.009065 0.316769 0.704253 0.173525
C37   C     C_2   0.912850 0.391225 0.024261 0.486274
H24   H     H_    0.011645 0.412353 0.038613 0.090296
O17   O     O_2   0.887912 0.284037 0.006655 -0.616039
O18   O     O_3   0.416311 0.426057 0.157933 -0.581808
C38   C     C_3   0.458697 0.300869 0.135563 -0.281663
H25   H     H_    0.535208 0.271336 0.179220 0.143836
H26   H     H_    0.501053 0.284967 0.050817 0.149429
H27   H     H_    0.368815 0.239739 0.159835 0.206301
O19   O     O_3   0.150104 0.458283 0.845304 -0.529936
C39   C     C_3   0.175212 0.327817 0.841503 -0.202434
H28   H     H_    0.216845 0.294594 0.907374 0.121299
H29   H     H_    0.244762 0.299220 0.766077 0.174903
H30   H     H_    0.078859 0.277531 0.848952 0.234208
O20   O     O_3   0.357244 0.712165 0.067018 -0.611651
C40   C     C_3   0.278533 0.686558 0.168313 -0.302010
H31   H     H_    0.210014 0.767346 0.196725 0.142319
H32   H     H_    0.348154 0.676700 0.220958 0.209226
H33   H     H_    0.215280 0.601896 0.174840 0.194481
C41   C     C_2   0.121077 0.682584 0.979391 0.453822
H34   H     H_    0.113979 0.755514 0.036582 0.094229
O21   O     O_2   0.028662 0.674035 0.934864 -0.494890
O22   O     O_3   0.624005 0.317225 0.757775 -0.605209
C42   C     C_3   0.559004 0.212718 0.811168 -0.400168
H35   H     H_    0.458564 0.235760 0.865892 0.159860
H36   H     H_    0.627617 0.165593 0.853802 0.179443
H37   H     H_    0.536767 0.146901 0.753611 0.208860
C43   C     C_2   0.749823 0.887917 0.396187 0.445346
H38   H     H_    0.849283 0.924473 0.397732 0.051917
O23   O     O_2   0.744574 0.811664 0.329664 -0.553841

loop_
_geom_bond_atom_site_label_1
_geom_bond_atom_site_label_2
_ccdc_geom_bond_type
C33   H15   S    
C27   C41   S    
O20   C40   S    
C8    O18   S    
C38   H27   S    
C4    C8    A    
C9    C25   A    
C6    O16   S    
O8    Zn2   S    
C20   N1    A    
C31   H8    S    
C21   N2    A    
C26   C27   A    
O22   C42   S    
O3    Zn1   S    
C38   H26   S    
C3    C7    A    
C5    C6    A    
C42   H36   S    
C43   H38   S    
C32   H12   S    
C15   C16   A    
C42   H37   S    
C18   C19   A    
C24   C37   S    
C30   H7    S    
O18   C38   S    
C16   C17   A    
C36   H23   S    
C19   C34   S    
O15   C35   S    
C39   H29   S    
C10   C26   A    
C32   H13   S    
C30   H6    S    
C33   H16   S    
C13   C14   A    
C8    C25   A    
C42   H35   S    
C20   H1    S    
C31   H9    S    
C1    O2    A    
C34   H17   S    
O5    Zn1   S    
C36   H21   S    
C37   O17   D    
C35   H19   S    
C18   O13   S    
C40   H33   S    
C32   H11   S    
C22   O6    A    
C1    O1    A    
C28   O20   S    
C12   O4    A    
C2    C4    A    
O16   C36   S    
O13   C33   S    
O10   C30   S    
C20   C21   A    
C11   C43   S    
C9    O9    S    
N1    Zn1   S    
C15   O11   S    
C38   H25   S    
C39   H30   S    
C40   H32   S    
C29   H3    S    
C10   C12   S    
C30   H5    S    
C41   O21   D    
C29   H2    S    
O9    C29   S    
C12   O3    A    
O11   C31   S    
C13   O10   S    
C31   H10   S    
C11   C17   A    
N2    Zn2   S    
C36   H22   S    
C37   H24   S    
C35   H20   S    
C9    C24   A    
C6    C7    A    
C23   O7    A    
C22   O5    A    
C1    C17   S    
C21   O15   S    
O2    Zn2   S    
C14   C22   S    
C2    C3    A    
C35   H18   S    
C3    C10   A    
O7    Zn1   S    
C11   C13   A    
O12   C32   S    
C5    C24   A    
C43   O23   D    
C23   O8    A    
C16   O12   S    
O1    Zn1   S    
O6    Zn2   S    
C40   H31   S    
O4    Zn2   S    
C29   H4    S    
C33   H14   S    
C4    C5    A    
C23   C25   S    
O19   C39   S    
C26   O19   S    
C41   H34   S    
C7    O22   S    
C27   C28   A    
C14   C15   A    
C2    C28   A    
C18   N2    A    
C34   O14   D    
C39   H28   S    
C19   N1    A    
