data_mof_unit_32616.cif
_audit_creation_date              2012-12-11T17:02:13-0500
_audit_creation_method            fapswitch 2.2
_symmetry_space_group_name_H-M    P1
_symmetry_Int_Tables_number       1
_space_group_crystal_system       triclinic
_cell_length_a                    21.629717
_cell_length_b                    7.065144
_cell_length_c                    14.826909
_cell_angle_alpha                 89.996195
_cell_angle_beta                  106.015702
_cell_angle_gamma                 89.99876
_cell_volume                      2177.86004363

loop_
_atom_site_label
_atom_site_type_symbol
_atom_type_description
_atom_site_fract_x
_atom_site_fract_y
_atom_site_fract_z
_atom_type_partial_charge
O1    O     O_R   0.585850 0.505770 0.002130 -0.540773
O2    O     O_R   0.414150 0.005770 0.997870 -0.540774
O3    O     O_R   0.467530 0.173560 0.861970 -0.533493
O4    O     O_R   0.532470 0.673560 0.138030 -0.533505
C1    C     C_R   0.455754 0.344404 0.825246 0.714108
C2    C     C_R   0.544245 0.844396 0.174755 0.714112
O5    O     O_R   0.588690 0.175900 0.993250 -0.534135
O6    O     O_R   0.411310 0.675900 0.006750 -0.534130
O7    O     O_R   0.536170 0.007950 0.130090 -0.533939
O8    O     O_R   0.463830 0.507950 0.869910 -0.533950
C3    C     C_R   0.615017 0.344641 0.997389 0.705214
C4    C     C_R   0.384982 0.844644 0.002608 0.705229
O9    O     O_3   0.482630 0.339970 0.044740 -0.359495
O10   O     O_3   0.517370 0.839970 0.955260 -0.359499
V1    V     V_3+5 0.503220 0.064200 0.991700 1.505130
V2    V     V_3+5 0.496780 0.564200 0.008300 1.505138
C5    C     C_R   0.293020 0.004357 0.046666 0.116301
C6    C     C_R   0.706976 0.504366 0.953327 0.116299
C7    C     C_R   0.317072 0.852266 0.005800 -0.118449
C8    C     C_R   0.682927 0.352262 0.994193 -0.118417
C9    C     C_R   0.274299 0.702121 0.970332 -0.135376
C10   C     C_R   0.725704 0.202113 0.029666 -0.135411
H1    H     H_    0.290640 0.579839 0.939544 0.126999
H2    H     H_    0.709366 0.079823 0.060455 0.126977
C11   C     C_R   0.208832 0.713874 0.968409 -0.149316
C12   C     C_R   0.791171 0.213871 0.031593 -0.149207
H3    H     H_    0.176926 0.599331 0.937075 0.138085
H4    H     H_    0.823079 0.099321 0.062928 0.138169
C13   C     C_R   0.184060 0.876962 0.001013 -0.089000
C14   C     C_R   0.815939 0.376969 0.998989 -0.088981
C15   C     C_R   0.228313 0.016699 0.043793 0.067780
C16   C     C_R   0.771684 0.516714 0.956206 0.067695
C17   C     C_3   0.227016 0.225589 0.029733 -0.442474
C18   C     C_3   0.772975 0.725599 0.970271 -0.442511
C19   C     C_3   0.298178 0.212588 0.034392 0.002734
C20   C     C_3   0.701812 0.712594 0.965601 0.002755
H5    H     H_    0.216969 0.303003 0.089400 0.187142
H6    H     H_    0.783027 0.803040 0.910611 0.187149
H7    H     H_    0.196277 0.266611 0.959236 0.166212
H8    H     H_    0.803708 0.766595 0.040773 0.166165
H9    H     H_    0.308815 0.249321 0.967319 0.108859
H10   H     H_    0.691169 0.749309 0.032669 0.108884
C21   C     C_R   0.928020 0.885014 0.723122 -0.071096
C22   C     C_R   0.071991 0.384817 0.276874 -0.071052
C23   C     C_R   0.572068 0.851432 0.276308 -0.105797
C24   C     C_R   0.427932 0.351433 0.723694 -0.105775
C25   C     C_R   0.938845 0.898401 0.565527 -0.154424
C26   C     C_R   0.061114 0.395694 0.434484 -0.154445
C27   C     C_R   0.967084 0.898318 0.662101 0.129382
C28   C     C_R   0.032891 0.396426 0.337904 0.129320
C29   C     C_R   0.861174 0.871878 0.687331 -0.239332
C30   C     C_R   0.138855 0.372474 0.312658 -0.239333
C31   C     C_R   0.831318 0.873757 0.589481 0.090293
C32   C     C_R   0.168686 0.373208 0.410517 0.090308
C33   C     C_R   0.871765 0.887292 0.528942 0.094662
C34   C     C_R   0.128209 0.385219 0.471069 0.094653
C35   C     C_R   0.762988 0.864309 0.549914 0.061663
C36   C     C_R   0.237018 0.363970 0.450085 0.061664
C37   C     C_R   0.736392 0.869725 0.450238 0.080544
C38   C     C_R   0.263597 0.368664 0.549771 0.080519
C39   C     C_R   0.779141 0.882566 0.393410 -0.163602
C40   C     C_R   0.220822 0.379931 0.606616 -0.163634
C41   C     C_R   0.845204 0.890812 0.432155 -0.146610
C42   C     C_R   0.154750 0.387672 0.567870 -0.146608
C43   C     C_R   0.720428 0.849607 0.606661 -0.189220
C44   C     C_R   0.279591 0.349896 0.393331 -0.189216
C45   C     C_R   0.654391 0.840307 0.568085 -0.086053
C46   C     C_R   0.345629 0.340613 0.431910 -0.086044
C47   C     C_R   0.627159 0.845092 0.471061 0.029480
C48   C     C_R   0.372850 0.345057 0.528940 0.029476
C49   C     C_R   0.667997 0.860968 0.410703 0.041600
C50   C     C_R   0.332000 0.360494 0.589299 0.041584
C51   C     C_R   0.559594 0.832815 0.433001 0.470222
C52   C     C_R   0.440418 0.332896 0.567006 0.470230
C53   C     C_R   0.532782 0.834516 0.336088 -0.144473
C54   C     C_R   0.467225 0.334572 0.663920 -0.144458
C55   C     C_R   0.638625 0.865873 0.312766 -0.210109
C56   C     C_R   0.361370 0.365665 0.687231 -0.210164
H11   H     H_    0.875901 0.900816 0.385549 0.155097
H12   H     H_    0.124029 0.396372 0.614489 0.155186
H13   H     H_    0.665735 0.877888 0.262101 0.101346
H14   H     H_    0.334257 0.377948 0.737880 0.101370
H15   H     H_    0.481130 0.822239 0.307194 0.160931
H16   H     H_    0.518879 0.322370 0.692819 0.160931
H17   H     H_    0.624756 0.828411 0.615831 0.208686
H18   H     H_    0.375274 0.329084 0.384161 0.208690
H19   H     H_    0.969475 0.908687 0.518884 0.153083
H20   H     H_    0.030458 0.404707 0.481135 0.153111
H21   H     H_    0.834169 0.863476 0.738307 0.104755
H22   H     H_    0.165888 0.365481 0.261679 0.104719
H23   H     H_    0.763476 0.886339 0.318015 0.124732
H24   H     H_    0.236470 0.382483 0.682026 0.124770
H25   H     H_    0.736370 0.843850 0.682040 0.144700
H26   H     H_    0.263654 0.344367 0.317947 0.144717
O11   O     O_R   0.036080 0.231270 0.130120 -0.537753
O12   O     O_R   0.963920 0.731270 0.869880 -0.537823
O13   O     O_R   0.911300 0.558970 0.006750 -0.538067
O14   O     O_R   0.088700 0.058970 0.993250 -0.537998
C57   C     C_R   0.884900 0.389902 0.002042 0.723503
C58   C     C_R   0.115099 0.889899 0.997958 0.723497
O15   O     O_R   0.032450 0.561140 0.138040 -0.533730
O16   O     O_R   0.967550 0.061140 0.861960 -0.533654
O17   O     O_R   0.085870 0.728910 0.002130 -0.543664
O18   O     O_R   0.914130 0.228910 0.997870 -0.543605
C59   C     C_R   0.044469 0.392506 0.175141 0.738953
C60   C     C_R   0.955533 0.892529 0.824859 0.738953
O19   O     O_3   0.017320 0.394650 0.955270 -0.373407
O20   O     O_3   0.982680 0.894650 0.044730 -0.373420
V3    V     V_3+5 0.996780 0.670490 0.008300 1.464486
V4    V     V_3+5 0.003220 0.170490 0.991700 1.464658
I1    I     I_    0.068776 0.918530 0.711876 -0.471722
I2    I     I_    0.931166 0.415191 0.288132 -0.471679
Cl1   Cl    Cl    0.506220 0.812617 0.503625 -0.578923
Cl2   Cl    Cl    0.493799 0.312764 0.496389 -0.578910
I3    I     I_    0.359576 0.340222 0.157930 -0.392512
I4    I     I_    0.640421 0.840269 0.842058 -0.392464

loop_
_geom_bond_atom_site_label_1
_geom_bond_atom_site_label_2
_ccdc_geom_bond_type
C44   C46   A    
O14   V4    S    
C2    C23   S    
C46   H18   S    
C20   H10   S    
O1    C3    A    
O2    C4    A    
C54   H16   S    
C2    O7    A    
C24   C54   A    
C25   C27   A    
C41   H11   S    
C22   C59   S    
O5    C3    A    
C17   H7    S    
C52   C54   A    
C18   H8    S    
C7    C9    A    
C35   C37   A    
C38   C50   A    
O15   V3    S    
C52   Cl2   S    
C51   Cl1   S    
O20   V3    S    
C38   C40   A    
C39   C41   A    
C40   C42   A    
O11   C59   A    
C17   C19   S    
C42   H12   S    
C30   H22   S    
C36   C44   A    
C43   C45   A    
C33   C41   A    
C48   C52   A    
C50   C56   A    
C26   H20   S    
C19   I3    S    
C14   C16   A    
C18   C20   S    
C27   I1    S    
C22   C30   A    
C26   C28   A    
C57   O18   A    
C47   C49   A    
O6    V2    S    
O17   V3    S    
C11   C13   A    
O19   V3    S    
C28   I2    S    
O13   C57   A    
C30   C32   A    
C31   C33   A    
O15   C59   A    
C32   C34   A    
C3    C8    S    
C45   H17   S    
C37   C39   A    
O12   C60   A    
C53   H15   S    
O4    C2    A    
C24   C56   A    
C31   C35   A    
C21   C27   A    
O5    V1    S    
C14   C57   S    
C58   O17   A    
C17   H5    S    
C40   H24   S    
C29   C31   A    
C21   C60   S    
C16   C18   S    
O4    V2    S    
O13   V3    S    
C56   H14   S    
C55   H13   S    
O6    C4    A    
C15   C17   S    
O1    V2    S    
C47   C51   A    
O2    V1    S    
O12   V3    S    
C8    C10   A    
C12   C14   A    
O14   C58   A    
C9    H1    S    
C5    C15   A    
O19   V4    S    
C10   H2    S    
O16   V4    S    
C6    C16   A    
C51   C53   A    
C20   I4    S    
C49   C55   A    
O3    V1    S    
C25   C33   A    
C32   C36   A    
C22   C28   A    
C26   C34   A    
C9    C11   A    
C13   C58   S    
C18   H6    S    
C35   C43   A    
O3    C1    A    
O11   V4    S    
C48   C50   A    
C11   H3    S    
C1    C24   S    
C12   H4    S    
C44   H26   S    
C23   C53   A    
O7    V1    S    
C1    O8    A    
C13   C15   A    
O8    V2    S    
C29   H21   S    
O18   V4    S    
C21   C29   A    
C34   C42   A    
C6    C20   S    
C4    C7    S    
C43   H25   S    
C5    C7    A    
O20   V4    S    
O16   C60   A    
C6    C8    A    
C19   H9    S    
C46   C48   A    
C10   C12   A    
O9    V2    S    
O10   V1    S    
C23   C55   A    
C5    C19   S    
C45   C47   A    
C36   C38   A    
C39   H23   S    
C37   C49   A    
C25   H19   S    
