data_mof_unit_14606.cif
_audit_creation_date              2012-12-10T16:49:22-0500
_audit_creation_method            fapswitch 2.2
_symmetry_space_group_name_H-M    P1
_symmetry_Int_Tables_number       1
_space_group_crystal_system       triclinic
_cell_length_a                    19.289207
_cell_length_b                    8.752095
_cell_length_c                    7.46567
_cell_angle_alpha                 103.029371
_cell_angle_beta                  94.506884
_cell_angle_gamma                 93.033854
_cell_volume                      1220.8741863

loop_
_atom_site_label
_atom_site_type_symbol
_atom_type_description
_atom_site_fract_x
_atom_site_fract_y
_atom_site_fract_z
_atom_type_partial_charge
C1    C     C_R   0.499908 0.200445 0.453738 0.791763
C2    C     C_R   0.500091 0.799555 0.546262 0.791761
C3    C     C_2   0.507689 0.034497 0.431121 0.174415
C4    C     C_2   0.492310 0.965502 0.568879 0.174414
C5    C     C_R   0.367497 0.500785 0.502129 0.794900
C6    C     C_R   0.632503 0.499216 0.497871 0.794906
C7    C     C_R   0.261825 0.519697 0.675554 -0.152947
C8    C     C_R   0.738171 0.480204 0.324434 -0.152938
C9    C     C_R   0.190117 0.529750 0.683589 0.427149
C10   C     C_R   0.809880 0.470153 0.316406 0.427145
C11   C     C_R   0.146859 0.520189 0.518051 -0.057757
C12   C     C_R   0.853140 0.479814 0.481961 -0.057746
C13   C     C_R   0.177157 0.508940 0.351218 -0.167846
C14   C     C_R   0.822847 0.491166 0.648811 -0.167826
C15   C     C_R   0.248798 0.502243 0.345930 -0.164394
C16   C     C_R   0.751206 0.497864 0.654094 -0.164384
C17   C     C_R   0.291681 0.506387 0.507691 -0.127980
C18   C     C_R   0.708319 0.493615 0.492312 -0.127981
C19   C     C_R   0.929501 0.487431 0.487928 0.392367
C20   C     C_R   0.070498 0.512565 0.512078 0.392407
Cu1   Cu    Cu3+1 0.507710 0.517380 0.684380 1.065265
Cu2   Cu    Cu3+1 0.492290 0.482620 0.315620 1.065264
H1    H     H_    0.294316 0.525584 0.802461 0.184665
H2    H     H_    0.705678 0.474234 0.197512 0.184660
N1    N     N_R   0.032862 0.583010 0.396495 -0.216537
N2    N     N_R   0.967136 0.416985 0.603510 -0.216504
N3    N     N_R   0.963584 0.571611 0.385616 -0.203190
N4    N     N_R   0.036414 0.428382 0.614388 -0.203161
N5    N     N_2   0.480680 0.456420 0.038530 0.145021
N6    N     N_2   0.519320 0.543580 0.961470 0.145023
O1    O     O_R   0.505010 0.286130 0.619770 -0.493551
O2    O     O_R   0.494990 0.713870 0.380230 -0.493554
O3    O     O_R   0.491990 0.256780 0.308370 -0.618287
O4    O     O_R   0.508010 0.743220 0.691630 -0.618287
O5    O     O_R   0.406650 0.514660 0.655750 -0.544967
O6    O     O_R   0.593350 0.485340 0.344250 -0.544967
O7    O     O_R   0.393640 0.485310 0.344340 -0.612591
O8    O     O_R   0.606360 0.514690 0.655660 -0.612590
O9    O     O_3   0.165265 0.551886 0.855275 -0.740542
H3    H     H_    0.120779 0.602939 0.852047 0.338215
O10   O     O_3   0.834729 0.447917 0.144711 -0.740525
H4    H     H_    0.879232 0.396938 0.148002 0.338232
H5    H     H_    0.145064 0.501370 0.223291 0.204967
H6    H     H_    0.854944 0.498815 0.776750 0.204940
H7    H     H_    0.270444 0.492762 0.214624 0.187568
H8    H     H_    0.729563 0.507428 0.785413 0.187554
O11   O     O_3   0.534403 0.950415 0.274094 -0.710731
H9    H     H_    0.548222 0.022537 0.196030 0.339337
O12   O     O_3   0.465597 0.049585 0.725906 -0.710732
H10   H     H_    0.451778 0.977462 0.803970 0.339337
O13   O     O_3   0.429545 0.365290 0.927056 -0.572746
H11   H     H_    0.404391 0.311468 0.008601 0.338363
O14   O     O_3   0.570455 0.634709 0.072944 -0.572736
H12   H     H_    0.595609 0.688532 0.991399 0.338360

loop_
_geom_bond_atom_site_label_1
_geom_bond_atom_site_label_2
_ccdc_geom_bond_type
C2    C4    S    
C6    O8    A    
C15   C17   A    
N5    N6    D    
Cu1   O5    S    
Cu2   N5    S    
C5    O7    A    
N1    N3    A    
C11   C13   A    
O10   H4    S    
Cu1   N6    S    
N2    N4    A    
O11   H9    S    
C1    O1    A    
C4    O12   S    
Cu1   O1    S    
C1    O3    A    
C16   C18   A    
Cu1   Cu2   S    
C10   O10   S    
C9    C11   A    
C2    O4    A    
Cu2   O2    S    
Cu2   O3    S    
C3    O11   S    
C7    H1    S    
C10   C12   A    
C12   C19   S    
C14   H6    S    
C19   N3    A    
C8    H2    S    
C12   C14   A    
C13   C15   A    
C6    C18   S    
N6    O14   S    
C14   C16   A    
C11   C20   S    
C8    C10   A    
C5    C17   S    
C20   N1    A    
C15   H7    S    
C3    C4    D    
C5    O5    A    
C13   H5    S    
Cu2   O6    S    
C2    O2    A    
O12   H10   S    
N5    O13   S    
C16   H8    S    
O9    H3    S    
C7    C9    A    
C19   N2    A    
Cu1   O4    S    
C20   N4    A    
C1    C3    S    
O14   H12   S    
Cu2   O7    S    
C9    O9    S    
C8    C18   A    
Cu1   O8    S    
O13   H11   S    
C6    O6    A    
C7    C17   A    
