data_mof_unit_52418.cif
_audit_creation_date              2012-12-10T20:42:42-0500
_audit_creation_method            fapswitch 2.2
_symmetry_space_group_name_H-M    P1
_symmetry_Int_Tables_number       1
_space_group_crystal_system       triclinic
_cell_length_a                    8.898543
_cell_length_b                    10.657761
_cell_length_c                    9.884365
_cell_angle_alpha                 90.005501
_cell_angle_beta                  90.135421
_cell_angle_gamma                 90.023588
_cell_volume                      937.41608811

loop_
_atom_site_label
_atom_site_type_symbol
_atom_type_description
_atom_site_fract_x
_atom_site_fract_y
_atom_site_fract_z
_atom_type_partial_charge
Br1   Br    Br    0.732522 0.144479 0.274039 -0.545547
C1    C     C_R   0.506189 0.260413 0.500033 0.938797
C2    C     C_R   0.414871 0.415290 0.928590 0.222003
C3    C     C_3   0.248067 0.402726 0.922931 -0.509982
C4    C     C_R   0.218783 0.499534 0.499891 0.945297
C5    C     C_3   0.248336 0.402221 0.076502 -0.496627
C6    C     C_R   0.501214 0.739702 0.500122 0.885682
C7    C     C_R   0.781240 0.499725 0.500120 0.935390
C8    C     C_1   0.065451 0.499252 0.499875 -0.193815
C9    C     C_1   0.934594 0.499329 0.500169 -0.188517
C10   C     C_R   0.451921 0.064456 0.607888 0.030727
C11   C     C_R   0.521084 0.128580 0.502460 -0.179764
C12   C     C_R   0.602765 0.933120 0.406419 -0.252790
C13   C     C_R   0.608130 0.063235 0.406521 0.248409
C14   C     C_3   0.038707 0.144119 0.613950 -0.733873
C15   C     C_R   0.514336 0.871305 0.502518 -0.130719
C16   C     C_R   0.449878 0.936734 0.608822 0.087424
C17   C     C_3   0.293106 0.930460 0.662787 -0.517471
C18   C     C_3   0.294963 0.073376 0.662168 0.029363
C19   C     C_R   0.415003 0.415186 0.070995 0.256112
C20   C     C_R   0.593860 0.576007 0.072125 -0.105771
C21   C     C_R   0.593870 0.576016 0.928269 -0.119419
H1    H     H_    0.212323 0.311792 0.878482 0.200719
H2    H     H_    0.192223 0.486703 0.878942 0.225115
H3    H     H_    0.195848 0.091339 0.468729 0.248186
H4    H     H_    0.971135 0.194703 0.536716 0.257032
H5    H     H_    0.038449 0.200617 0.708371 0.237984
H6    H     H_    0.986092 0.051280 0.633204 0.243760
H7    H     H_    0.192400 0.485804 0.121035 0.223303
H8    H     H_    0.213358 0.310792 0.120469 0.218880
H9    H     H_    0.663935 0.880901 0.330259 0.183499
H10   H     H_    0.212897 0.887098 0.589955 0.197286
H11   H     H_    0.289821 0.890213 0.766464 0.197551
H12   H     H_    0.291042 0.117179 0.764236 0.157609
H13   H     H_    0.667413 0.639336 0.126463 0.148133
H14   H     H_    0.667452 0.639330 0.874281 0.152016
N1    N     N_R   0.499010 0.499140 0.142800 -0.107340
N2    N     N_R   0.499010 0.499180 0.857150 -0.111580
N3    N     N_2   0.190525 0.128051 0.565280 -0.294949
O1    O     O_R   0.500020 0.316790 0.614690 -0.619399
O2    O     O_R   0.500000 0.316760 0.385350 -0.579349
O3    O     O_R   0.285350 0.500020 0.614650 -0.619001
O4    O     O_R   0.285340 0.499980 0.385310 -0.622092
O5    O     O_R   0.500000 0.683240 0.614650 -0.617949
O6    O     O_R   0.499980 0.683210 0.385310 -0.628315
O7    O     O_R   0.714660 0.500020 0.614690 -0.623228
O8    O     O_R   0.714650 0.499980 0.385350 -0.599921
Zn1   Zn    Zn3+2 0.500010 0.500020 0.653130 0.951865
Zn2   Zn    Zn3+2 0.499990 0.499980 0.346870 0.975275

loop_
_geom_bond_atom_site_label_1
_geom_bond_atom_site_label_2
_ccdc_geom_bond_type
C10   C11   A    
C4    C8    S    
C20   H13   S    
C12   C13   A    
N1    Zn2   S    
C8    C9    T    
C14   H5    S    
C21   H14   S    
O6    Zn2   S    
C4    O3    A    
C14   N3    S    
C16   C17   S    
C4    O4    A    
C7    O8    A    
C1    C11   S    
C2    C19   A    
O8    Zn2   S    
O3    Zn1   S    
C20   C21   A    
H3    N3    S    
C19   N1    A    
C10   C18   S    
C14   H6    S    
C18   N3    S    
C5    C19   S    
C6    O6    A    
C7    C9    S    
C6    C15   S    
C5    H8    S    
C11   C13   A    
O7    Zn1   S    
C3    H2    S    
C17   H11   S    
C7    O7    A    
C17   H10   S    
C1    O2    A    
C2    C3    S    
C21   N2    A    
C1    O1    A    
C5    H7    S    
C20   N1    A    
C3    C5    S    
C17   C18   S    
C12   C15   A    
O2    Zn2   S    
O1    Zn1   S    
C3    H1    S    
O4    Zn2   S    
C14   H4    S    
Br1   C13   S    
C6    O5    A    
N2    Zn1   S    
C12   H9    S    
C10   C16   A    
O5    Zn1   S    
C2    N2    A    
C15   C16   A    
C18   H12   S    
