data_mof_unit_16352.cif
_audit_creation_date              2012-12-10T17:24:52-0500
_audit_creation_method            fapswitch 2.2
_symmetry_space_group_name_H-M    P1
_symmetry_Int_Tables_number       1
_space_group_crystal_system       triclinic
_cell_length_a                    10.195188
_cell_length_b                    10.821563
_cell_length_c                    19.107983
_cell_angle_alpha                 90.679833
_cell_angle_beta                  81.537036
_cell_angle_gamma                 96.601889
_cell_volume                      2071.33355757

loop_
_atom_site_label
_atom_site_type_symbol
_atom_type_description
_atom_site_fract_x
_atom_site_fract_y
_atom_site_fract_z
_atom_type_partial_charge
C1    C     C_R   0.557452 0.732245 0.497745 0.971665
C2    C     C_R   0.442557 0.267725 0.502152 0.971097
C3    C     C_2   0.593254 0.864856 0.492319 -0.342197
C4    C     C_2   0.406975 0.135021 0.507709 -0.365938
C5    C     C_2   0.502855 0.940769 0.518715 -0.058265
C6    C     C_2   0.497913 0.059317 0.481742 -0.048087
C7    C     C_2   0.932538 0.526034 0.495951 -0.005977
C8    C     C_2   0.076418 0.503560 0.485930 0.007019
C9    C     C_R   0.499396 0.496953 0.634003 0.900240
C10   C     C_R   0.500825 0.504071 0.366013 0.894904
C11   C     C_R   0.411638 0.405220 0.753221 0.140008
C12   C     C_R   0.583069 0.608401 0.249254 0.143971
C13   C     C_R   0.402993 0.417875 0.827617 0.157915
C14   C     C_R   0.577207 0.612159 0.175706 0.138073
C15   C     C_R   0.490497 0.511574 0.855028 -0.069430
C16   C     C_R   0.489482 0.521111 0.146454 -0.020289
C17   C     C_R   0.580946 0.594988 0.810470 -0.030304
C18   C     C_R   0.406790 0.428676 0.189073 -0.021365
C19   C     C_R   0.582254 0.585687 0.737886 -0.177558
C20   C     C_R   0.414876 0.426245 0.260775 -0.257824
C21   C     C_R   0.498538 0.493802 0.709677 -0.111452
C22   C     C_R   0.501792 0.513074 0.290505 -0.063203
C23   C     C_R   0.489645 0.519454 0.070847 0.384271
C24   C     C_R   0.492862 0.517336 0.930423 0.251894
H1    H     H_    0.648013 0.651294 0.702587 0.193488
H2    H     H_    0.352780 0.355434 0.294290 0.162786
H3    H     H_    0.320054 0.105015 0.545717 0.117597
H4    H     H_    0.679782 0.894719 0.454024 0.122897
H5    H     H_    0.118675 0.599574 0.572008 0.194592
H6    H     H_    0.871027 0.367470 0.448758 0.192446
N1    N     N_R   0.566733 0.442569 0.960466 -0.160464
N2    N     N_R   0.415692 0.594379 0.040829 -0.156549
N3    N     N_R   0.565247 0.443676 0.029965 -0.151968
N4    N     N_R   0.417246 0.593295 0.971258 -0.168227
N5    N     N_2   0.842710 0.448880 0.471430 -0.227851
N6    N     N_2   0.157290 0.551120 0.528570 -0.232679
O1    O     O_R   0.431050 0.692470 0.505750 -0.585741
O2    O     O_R   0.568950 0.307530 0.494250 -0.598648
O3    O     O_R   0.651120 0.659650 0.487410 -0.637607
O4    O     O_R   0.348880 0.340350 0.512590 -0.656331
O5    O     O_R   0.389930 0.516430 0.611030 -0.598184
O6    O     O_R   0.610070 0.483570 0.388970 -0.591138
O7    O     O_R   0.610000 0.483610 0.592700 -0.655659
O8    O     O_R   0.390000 0.516390 0.407300 -0.623283
Zn1   Zn    Zn3+2 0.353060 0.521920 0.512240 0.962011
Zn2   Zn    Zn3+2 0.646940 0.478080 0.487760 0.959803
C25   C     C_3   0.337411 0.294955 0.719365 -0.446356
C26   C     C_3   0.433149 0.202045 0.689609 -0.818254
H7    H     H_    0.375454 0.118484 0.670571 0.246888
H8    H     H_    0.488960 0.172737 0.731062 0.274770
H9    H     H_    0.505978 0.243090 0.644782 0.253346
H10   H     H_    0.256985 0.243509 0.756425 0.222684
H11   H     H_    0.286112 0.326596 0.676703 0.223450
C27   C     C_3   0.666857 0.710097 0.284382 -0.444489
C28   C     C_3   0.586808 0.818596 0.306247 -0.831125
H12   H     H_    0.502565 0.788785 0.348555 0.261225
H13   H     H_    0.652816 0.895086 0.326464 0.250116
H14   H     H_    0.546287 0.854332 0.260598 0.271143
H15   H     H_    0.702743 0.675801 0.331611 0.235172
H16   H     H_    0.760184 0.744099 0.249395 0.227303
C29   C     C_3   0.299801 0.335662 0.878180 -0.399910
C30   C     C_3   0.348011 0.211160 0.892629 -0.762386
H17   H     H_    0.357412 0.153230 0.844409 0.255042
H18   H     H_    0.446071 0.225985 0.911926 0.274687
H19   H     H_    0.274854 0.159338 0.933862 0.262194
H20   H     H_    0.275413 0.382194 0.929719 0.244485
H21   H     H_    0.202269 0.321315 0.858414 0.193846
C31   C     C_3   0.665781 0.710308 0.127891 -0.437786
C32   C     C_3   0.801343 0.666578 0.101112 -0.812445
H22   H     H_    0.853036 0.645060 0.145947 0.264718
H23   H     H_    0.788907 0.582007 0.068232 0.270015
H24   H     H_    0.864767 0.740825 0.068163 0.257641
H25   H     H_    0.618570 0.732878 0.081669 0.213426
H26   H     H_    0.680004 0.800845 0.154970 0.225596
C33   C     C_2   0.673601 0.692885 0.839065 0.434246
H27   H     H_    0.673769 0.702746 0.895605 0.068984
O9    O     O_2   0.751548 0.764215 0.799614 -0.555862
C34   C     C_2   0.310381 0.332105 0.162063 0.449223
H28   H     H_    0.257882 0.258951 0.197455 0.076786
O10   O     O_2   0.286250 0.332903 0.101380 -0.566418
C35   C     C_2   0.595509 0.097561 0.416939 0.469838
H29   H     H_    0.698827 0.079851 0.412245 0.046548
O11   O     O_2   0.560209 0.151333 0.368259 -0.573561
C36   C     C_2   0.406323 0.902914 0.583998 0.476836
H30   H     H_    0.303486 0.922382 0.589794 0.065051
O12   O     O_2   0.442040 0.847641 0.631997 -0.568150
C37   C     C_2   0.125338 0.425224 0.425951 0.444405
H31   H     H_    0.193096 0.357911 0.432137 0.103778
O13   O     O_2   0.088802 0.434918 0.368402 -0.584481
C38   C     C_2   0.893977 0.638833 0.534302 0.456129
H32   H     H_    0.803937 0.635244 0.572130 0.111196
O14   O     O_2   0.964682 0.737855 0.524334 -0.580005

loop_
_geom_bond_atom_site_label_1
_geom_bond_atom_site_label_2
_ccdc_geom_bond_type
C37   H31   S    
C10   O6    A    
C11   C25   S    
C28   H12   S    
C35   H29   S    
C7    C8    S    
C27   H16   S    
C10   C22   S    
H5    N6    S    
H6    N5    S    
C3    H4    S    
C19   C21   A    
C36   O12   D    
C8    N6    D    
C5    C6    S    
C34   O10   D    
C31   H26   S    
C12   C22   A    
O6    Zn2   S    
C32   H23   S    
C29   H21   S    
C30   H18   S    
C29   H20   S    
C26   H9    S    
C31   C32   S    
C23   N3    A    
N1    N3    A    
C1    O1    A    
C25   H11   S    
C26   H8    S    
C6    C35   S    
C29   C30   S    
C35   O11   D    
C27   H15   S    
O4    Zn1   S    
C9    O7    A    
C10   O8    A    
C36   H30   S    
C4    C6    D    
C5    C36   S    
C34   H28   S    
C31   H25   S    
C7    C38   S    
C11   C21   A    
C24   N4    A    
C1    C3    S    
N2    N4    A    
C32   H24   S    
C2    C4    S    
C33   H27   S    
C30   H17   S    
C2    O2    A    
C38   O14   D    
C25   C26   S    
C18   C34   S    
N6    Zn1   S    
C33   O9    D    
O3    Zn2   S    
C26   H7    S    
C12   C14   A    
C16   C23   S    
C13   C15   A    
C14   C16   A    
O1    Zn1   S    
C4    H3    S    
O8    Zn1   S    
C15   C17   A    
C27   C28   S    
C15   C24   S    
C14   C31   S    
C30   H19   S    
C7    N5    D    
C20   C22   A    
C3    C5    D    
C25   H10   S    
C9    O5    A    
C8    C37   S    
C23   N2    A    
C28   H13   S    
C24   N1    A    
C11   C13   A    
C9    C21   S    
C38   H32   S    
C20   H2    S    
C17   C19   A    
C18   C20   A    
C32   H22   S    
C19   H1    S    
O7    Zn2   S    
O2    Zn2   S    
C1    O3    A    
C2    O4    A    
C13   C29   S    
C16   C18   A    
C28   H14   S    
C17   C33   S    
C37   O13   D    
O5    Zn1   S    
N5    Zn2   S    
C12   C27   S    
