data_mof_unit_53156.cif
_audit_creation_date              2012-12-11T14:49:47-0500
_audit_creation_method            fapswitch 2.2
_symmetry_space_group_name_H-M    P1
_symmetry_Int_Tables_number       1
_space_group_crystal_system       triclinic
_cell_length_a                    10.913754
_cell_length_b                    10.942835
_cell_length_c                    18.877909
_cell_angle_alpha                 89.983164
_cell_angle_beta                  90.188886
_cell_angle_gamma                 119.853624
_cell_volume                      1955.34923514

loop_
_atom_site_label
_atom_site_type_symbol
_atom_type_description
_atom_site_fract_x
_atom_site_fract_y
_atom_site_fract_z
_atom_type_partial_charge
C1    C     C_R   0.525661 0.469346 0.647787 0.572478
C2    C     C_R   0.429640 0.552589 0.361051 0.587950
C3    C     C_R   0.448823 0.880441 0.138711 0.613298
C4    C     C_R   0.073196 0.541148 0.356997 0.576625
C5    C     C_R   0.440269 0.091758 0.524958 -0.188342
C6    C     C_R   0.636270 0.555310 0.971174 -0.201996
C7    C     C_R   0.978340 0.379685 0.536602 -0.164120
C8    C     C_R   0.409677 0.027136 0.966182 -0.176661
C9    C     C_R   0.602584 0.620606 0.540694 -0.182734
C10   C     C_R   0.937244 0.365743 0.968895 -0.223886
C11   C     C_R   0.958063 0.380856 0.041485 -0.184409
C12   C     C_R   0.937478 0.470397 0.853708 0.599287
C13   C     C_R   0.580509 0.636398 0.469558 -0.195236
C14   C     C_R   0.398267 0.993421 0.037419 -0.160596
C15   C     C_R   0.989998 0.392517 0.463717 -0.165710
C16   C     C_R   0.619531 0.561958 0.043581 -0.187376
C17   C     C_R   0.420620 0.057285 0.453095 -0.169737
C18   C     C_R   0.513930 0.025437 0.418236 0.040940
C19   C     C_R   0.484567 0.513536 0.070657 0.070203
C20   C     C_R   0.043040 0.524304 0.432615 0.034507
C21   C     C_R   0.463607 0.921088 0.064446 0.056055
C22   C     C_R   0.451695 0.542224 0.436883 0.028625
C23   C     C_R   0.569869 0.121426 0.638640 0.577490
C24   C     C_R   0.023104 0.515291 0.071110 0.057082
C25   C     C_R   0.988000 0.485735 0.925526 0.015624
C26   C     C_R   0.493605 0.515031 0.580755 0.037920
C27   C     C_R   0.487558 0.989742 0.921228 0.062868
C28   C     C_R   0.009525 0.496344 0.578858 0.051146
C29   C     C_R   0.518360 0.503704 0.925755 0.070032
C30   C     C_R   0.548930 0.086916 0.562904 0.036684
C31   C     C_R   0.637449 0.046274 0.453543 0.215265
C32   C     C_R   0.365302 0.457083 0.025119 0.226646
C33   C     C_R   0.085700 0.645921 0.475308 0.236993
C34   C     C_R   0.530776 0.466228 0.854129 0.611745
C35   C     C_R   0.544907 0.885834 0.020325 0.225215
C36   C     C_R   0.340331 0.437858 0.477191 0.238242
C37   C     C_R   0.064385 0.635986 0.027848 0.245636
C38   C     C_R   0.057391 0.620828 0.954665 0.221988
C39   C     C_R   0.358441 0.431686 0.550303 0.228469
C40   C     C_R   0.551169 0.914284 0.947523 0.233154
C41   C     C_R   0.071213 0.631223 0.549071 0.228689
C42   C     C_R   0.384391 0.461782 0.951823 0.242202
C43   C     C_R   0.646872 0.060527 0.526801 0.244398
C44   C     C_R   0.942858 0.473011 0.647881 0.588090
C45   C     C_R   0.531321 0.058575 0.852703 0.595844
C46   C     C_R   0.463834 0.529118 0.145172 0.585081
C47   C     C_R   0.475921 0.945980 0.351443 0.573607
C48   C     C_R   0.064650 0.536380 0.145181 0.575793
Cr1   Cr    Cr6+3 0.776430 0.541680 0.750000 1.057876
Cr2   Cr    Cr6+3 0.765250 0.223570 0.750000 1.084115
Cr3   Cr    Cr6+3 0.458320 0.234750 0.750000 1.077134
Cr4   Cr    Cr6+3 0.541680 0.776430 0.250000 1.065240
Cr5   Cr    Cr6+3 0.223570 0.765250 0.250000 1.080881
Cr6   Cr    Cr6+3 0.234750 0.458320 0.250000 1.086240
H1    H     H_    0.367421 0.116637 0.551357 0.141141
H2    H     H_    0.960395 0.300180 0.431527 0.215156
H3    H     H_    0.710856 0.603813 0.078298 0.145376
H4    H     H_    0.331193 0.051935 0.425277 0.162786
H5    H     H_    0.747383 0.962213 0.425678 0.320294
H6    H     H_    0.168883 0.312293 0.023492 0.322141
H7    H     H_    0.152116 0.848529 0.477923 0.322928
H8    H     H_    0.689415 0.830276 0.017204 0.329582
H9    H     H_    0.156416 0.263355 0.475007 0.323938
H10   H     H_    0.104565 0.831530 0.025040 0.318275
H11   H     H_    0.063484 0.784729 0.914794 0.314127
H12   H     H_    0.740464 0.585944 0.950982 0.138949
H13   H     H_    0.219917 0.246465 0.580036 0.309576
H14   H     H_    0.719484 0.920070 0.914161 0.309252
H15   H     H_    0.061675 0.792825 0.580476 0.309860
H16   H     H_    0.200696 0.435971 0.927472 0.342400
H17   H     H_    0.807090 0.023871 0.533035 0.322694
H18   H     H_    0.939468 0.277747 0.560051 0.208760
H19   H     H_    0.363748 0.088939 0.947138 0.148646
H20   H     H_    0.706715 0.686179 0.563292 0.152186
H21   H     H_    0.879770 0.260405 0.946865 0.153046
H22   H     H_    0.923893 0.288407 0.074394 0.153507
H23   H     H_    0.667083 0.716896 0.439286 0.141940
H24   H     H_    0.340651 0.026479 0.071655 0.166553
O1    O     O_R   0.916700 0.566820 0.669930 -0.476669
O2    O     O_R   0.566820 0.916700 0.330070 -0.483565
O3    O     O_R   0.083300 0.650120 0.169930 -0.465568
O4    O     O_R   0.349880 0.433180 0.330070 -0.451413
O5    O     O_R   0.649840 0.534790 0.674920 -0.516967
O6    O     O_R   0.884950 0.350160 0.825080 -0.513792
O7    O     O_R   0.465210 0.115050 0.674920 -0.497097
O8    O     O_R   0.649840 0.534790 0.825080 -0.515524
O9    O     O_R   0.884950 0.350160 0.674920 -0.513502
O10   O     O_R   0.465210 0.115050 0.825080 -0.509320
O11   O     O_R   0.534790 0.649840 0.174920 -0.480593
O12   O     O_R   0.650120 0.083300 0.830070 -0.485270
O13   O     O_R   0.350160 0.884950 0.325080 -0.478569
O14   O     O_R   0.115050 0.465210 0.174920 -0.475817
O15   O     O_R   0.534790 0.649840 0.325080 -0.528115
O16   O     O_R   0.350160 0.884950 0.174920 -0.499057
O17   O     O_R   0.115050 0.465210 0.325080 -0.497247
O18   O     O_3   0.666667 0.333333 0.750000 -0.318826
O19   O     O_3   0.333333 0.666667 0.250000 -0.323269
O20   O     O_3   0.748657 0.051991 0.416320 -0.707898
O21   O     O_3   0.231273 0.395332 0.053094 -0.688285
O22   O     O_3   0.144846 0.777065 0.443770 -0.676745
O23   O     O_R   0.433180 0.349880 0.669930 -0.480920
O24   O     O_3   0.617428 0.825437 0.050358 -0.690066
O25   O     O_3   0.216648 0.342540 0.443365 -0.686499
O26   O     O_3   0.115563 0.767600 0.058107 -0.679505
O27   O     O_3   0.120281 0.737078 0.911049 -0.662375
O28   O     O_3   0.245137 0.344407 0.592270 -0.670843
O29   O     O_3   0.617731 0.868511 0.901530 -0.664645
O30   O     O_3   0.117705 0.746997 0.592786 -0.661534
O31   O     O_3   0.274298 0.422897 0.904487 -0.673237
O32   O     O_3   0.748583 0.046287 0.564283 -0.690464
O33   O     O_R   0.916700 0.566820 0.830070 -0.484792
O34   O     O_R   0.650120 0.083300 0.669930 -0.418279
O35   O     O_R   0.433180 0.349880 0.830070 -0.463502
O36   O     O_R   0.566820 0.916700 0.169930 -0.473908
O37   O     O_R   0.083300 0.650120 0.330070 -0.459879
O38   O     O_R   0.349880 0.433180 0.169930 -0.466109

loop_
_geom_bond_atom_site_label_1
_geom_bond_atom_site_label_2
_ccdc_geom_bond_type
C39   O28   S    
C41   O30   S    
C29   C42   A    
C11   C24   A    
C4    O37   A    
C35   O24   S    
Cr2   O18   S    
C18   C47   S    
Cr3   O7    S    
C19   C46   S    
Cr2   O6    S    
C46   O11   A    
C34   O35   A    
C23   O34   A    
Cr3   O35   S    
C31   C43   A    
C36   O25   S    
C14   C21   A    
C42   O31   S    
C11   H22   S    
C26   C39   A    
C5    C17   A    
H17   O32   S    
Cr4   O19   S    
C48   O3    A    
C12   O6    A    
Cr5   O3    S    
C34   O8    A    
C31   O20   S    
C9    C13   A    
C8    C27   A    
Cr2   O12   S    
Cr6   O38   S    
Cr5   O13   S    
Cr6   O19   S    
H14   O29   S    
C44   O9    A    
C17   H4    S    
Cr1   O33   S    
H6    O21   S    
C7    C15   A    
C44   O1    A    
Cr4   O11   S    
C47   O2    A    
C19   C32   A    
H11   O27   S    
H15   O30   S    
C9    C26   A    
C24   C37   A    
C2    O15   A    
C15   C20   A    
C13   H23   S    
C24   C48   S    
C23   C30   S    
C45   O10   A    
H9    O25   S    
C7    H18   S    
Cr5   O19   S    
C29   C34   S    
C28   C44   S    
C7    C28   A    
Cr1   O1    S    
Cr6   O14   S    
C37   C38   A    
H16   O31   S    
C25   C38   A    
C4    O17   A    
C10   H21   S    
C27   C40   A    
Cr2   O34   S    
C17   C18   A    
Cr4   O15   S    
C45   O12   A    
Cr6   O17   S    
Cr2   O9    S    
C40   O29   S    
C20   C33   A    
C10   C25   A    
C43   O32   S    
C48   O14   A    
C1    C26   S    
C30   C43   A    
C3    C21   S    
H7    O22   S    
Cr3   O23   S    
C9    H20   S    
C1    O23   A    
Cr6   O4    S    
C5    C30   A    
H10   O26   S    
C8    C14   A    
Cr5   O16   S    
C47   O13   A    
Cr1   O8    S    
C5    H1    S    
C36   C39   A    
C3    O36   A    
Cr3   O10   S    
C37   O26   S    
H13   O28   S    
C21   C35   A    
Cr4   O36   S    
C1    O5    A    
C22   C36   A    
Cr3   O18   S    
C32   O21   S    
C46   O38   A    
C12   C25   S    
C33   O22   S    
C33   C41   A    
C15   H2    S    
Cr1   O5    S    
C38   O27   S    
C35   C40   A    
C2    C22   S    
C27   C45   S    
C16   C19   A    
C8    H19   S    
C13   C22   A    
C3    O16   A    
C16   H3    S    
C14   H24   S    
Cr1   O18   S    
C2    O4    A    
C10   C11   A    
C6    C16   A    
C4    C20   S    
C6    H12   S    
C6    C29   A    
C23   O7    A    
H5    O20   S    
C32   C42   A    
C18   C31   A    
Cr4   O2    S    
C12   O33   A    
C28   C41   A    
Cr5   O37   S    
H8    O24   S    
