data_mof_unit_41674.cif
_audit_creation_date              2013-03-05T16:06:19-0500
_audit_creation_method            fapswitch 2.2
_symmetry_space_group_name_H-M    P1
_symmetry_Int_Tables_number       1
_space_group_crystal_system       triclinic
_cell_length_a                    11.011399
_cell_length_b                    9.673014
_cell_length_c                    27.768159
_cell_angle_alpha                 90.210344
_cell_angle_beta                  90.307617
_cell_angle_gamma                 90.057256
_cell_volume                      2957.61739543

loop_
_atom_site_label
_atom_site_type_symbol
_atom_site_description
_atom_site_fract_x
_atom_site_fract_y
_atom_site_fract_z
_atom_type_partial_charge
O1    O     O_R   0.319640 0.618740 0.500000 -0.579326
O2    O     O_R   0.680360 0.381260 0.500000 -0.566669
O3    O     O_R   0.680360 0.618740 0.500000 -0.575934
O4    O     O_R   0.319640 0.381260 0.500000 -0.562691
C1    C     C_R   0.262542 0.499814 0.498595 0.796004
C2    C     C_R   0.737451 0.499999 0.501667 0.798975
O5    O     O_R   0.500020 0.618770 0.430260 -0.493005
O6    O     O_R   0.499980 0.381230 0.569740 -0.545433
O7    O     O_R   0.499980 0.618770 0.569740 -0.493939
O8    O     O_R   0.500020 0.381230 0.430260 -0.545200
C3    C     C_R   0.503035 0.500009 0.407713 0.884104
C4    C     C_R   0.498394 0.500607 0.592295 0.888119
Cu1   Cu    Cu3+1 0.500000 0.640660 0.500000 1.052476
Cu2   Cu    Cu3+1 0.500000 0.359340 0.500000 1.032797
C5    C     C_R   0.424115 0.456136 0.177932 0.652631
C6    C     C_R   0.600633 0.496468 0.820564 0.635935
O9    O     O_2   0.322958 0.425627 0.203025 -0.544280
O10   O     O_2   0.699540 0.467107 0.793871 -0.549076
N1    N     N_R   0.528748 0.491049 0.201742 -0.420270
N2    N     N_R   0.491776 0.521384 0.798459 -0.420054
C7    C     C_R   0.634167 0.515558 0.177276 0.641186
C8    C     C_R   0.389757 0.550954 0.824548 0.647192
C9    C     C_R   0.595840 0.402654 0.280647 -0.089435
C10   C     C_R   0.416934 0.419088 0.721997 -0.082103
C11   C     C_R   0.597501 0.412216 0.331382 -0.226647
C12   C     C_R   0.411502 0.420287 0.671100 -0.236835
C13   C     C_R   0.440934 0.591263 0.327427 0.396628
C14   C     C_R   0.570686 0.596963 0.670379 0.404294
C15   C     C_R   0.460272 0.603962 0.277303 -0.134365
C16   C     C_R   0.553767 0.619750 0.720135 -0.132401
C17   C     C_R   0.527939 0.499414 0.253594 0.158674
C18   C     C_R   0.486549 0.520733 0.746489 0.159851
C19   C     C_R   0.529227 0.477027 0.101689 -0.053515
C20   C     C_R   0.505625 0.521519 0.898701 -0.048806
C21   C     C_R   0.420790 0.456455 0.127545 0.013052
C22   C     C_R   0.610338 0.501876 0.870714 0.015234
C23   C     C_R   0.311863 0.435643 0.102603 -0.180908
C24   C     C_R   0.723514 0.493300 0.893148 -0.174287
C25   C     C_R   0.639492 0.493479 0.126954 -0.168701
C26   C     C_R   0.393672 0.551677 0.875678 -0.162577
C27   C     C_R   0.514059 0.500714 0.354705 -0.237735
C28   C     C_R   0.493683 0.504395 0.645418 -0.240354
H1    H     H_    0.228730 0.411232 0.121408 0.189232
H2    H     H_    0.806022 0.487682 0.872171 0.202065
C29   C     C_R   0.406763 0.518358 0.977188 -0.086346
C30   C     C_R   0.636476 0.485161 0.024164 -0.082115
C31   C     C_R   0.629518 0.495542 0.972648 0.075466
C32   C     C_R   0.412581 0.485843 0.026755 0.073590
C33   C     C_R   0.513912 0.511143 0.949666 0.022919
C34   C     C_R   0.526517 0.483124 0.050671 0.013115
C35   C     C_R   0.298725 0.568088 0.954919 0.352984
C36   C     C_R   0.747305 0.468509 0.050753 0.367685
C37   C     C_R   0.291386 0.583012 0.904616 -0.110063
C38   C     C_R   0.749672 0.484696 0.101223 -0.110912
O11   O     O_2   0.285306 0.576860 0.800747 -0.500050
O12   O     O_2   0.731811 0.563782 0.201603 -0.505248
C39   C     C_R   0.307673 0.450627 0.052991 -0.147317
C40   C     C_R   0.733381 0.498883 0.942867 -0.173151
H3    H     H_    0.221709 0.430551 0.035429 0.208052
H4    H     H_    0.824612 0.508292 0.956035 0.236827
C41   C     C_R   0.062847 0.372825 0.497852 -0.070287
C42   C     C_R   0.936958 0.626673 0.502540 -0.066150
C43   C     C_R   0.936936 0.373156 0.503945 -0.078308
C44   C     C_R   0.063341 0.626400 0.497135 -0.074310
C45   C     C_R   0.871933 0.499917 0.503683 -0.200416
C46   C     C_R   0.128076 0.499518 0.497011 -0.207298
C47   C     C_R   0.500316 0.072326 0.457850 0.353830
C48   C     C_R   0.484943 0.927080 0.541665 0.339658
C49   C     C_R   0.499210 0.072978 0.542145 0.347364
C50   C     C_R   0.514962 0.926469 0.458333 0.332467
N3    N     N_R   0.500000 0.852070 0.500000 -0.286784
N4    N     N_R   0.500000 0.147930 0.500000 -0.281156
O13   O     O_3   0.356349 0.672869 0.351095 -0.515537
C51   C     C_3   0.236772 0.632266 0.337911 0.160750
H5    H     H_    0.224931 0.614367 0.298536 0.148791
H6    H     H_    0.174667 0.718316 0.347488 0.213939
C52   C     C_3   0.196375 0.504089 0.365333 -0.796494
H7    H     H_    0.214851 0.518230 0.404139 0.248989
H8    H     H_    0.097520 0.486926 0.359883 0.246867
H9    H     H_    0.245882 0.411767 0.352293 0.223509
O14   O     O_3   0.657633 0.669531 0.644753 -0.516503
C53   C     C_3   0.775555 0.621186 0.656986 0.167082
H10   H     H_    0.791470 0.616354 0.696565 0.166182
H11   H     H_    0.842361 0.696509 0.642780 0.218960
C54   C     C_3   0.802617 0.480251 0.634569 -0.823318
H12   H     H_    0.771865 0.477686 0.596659 0.237805
H13   H     H_    0.901745 0.459540 0.635994 0.251003
H14   H     H_    0.755230 0.397933 0.654782 0.231872
O15   O     O_3   0.495525 0.135910 0.413519 -0.516706
C55   C     C_3   0.378062 0.117942 0.393455 0.113971
H15   H     H_    0.314945 0.193927 0.409792 0.171162
H16   H     H_    0.341605 0.011873 0.398636 0.169741
C56   C     C_3   0.381539 0.141764 0.339386 -0.664193
H17   H     H_    0.452906 0.076867 0.322678 0.278200
H18   H     H_    0.292216 0.114593 0.323174 0.221636
H19   H     H_    0.400205 0.251493 0.331543 0.217959
O16   O     O_3   0.465704 0.862814 0.585243 -0.515631
C57   C     C_3   0.340572 0.868653 0.596208 0.140654
H20   H     H_    0.292063 0.786153 0.576018 0.181618
H21   H     H_    0.299101 0.970887 0.587729 0.194452
C58   C     C_3   0.321965 0.843218 0.649688 -0.637343
H22   H     H_    0.376549 0.917376 0.671365 0.263109
H23   H     H_    0.224575 0.856836 0.658709 0.223816
H24   H     H_    0.348675 0.736351 0.659069 0.224205
O17   O     O_3   0.504170 0.136902 0.586560 -0.518620
C59   C     C_3   0.622733 0.122709 0.605894 0.125183
H25   H     H_    0.681683 0.205458 0.591315 0.172549
H26   H     H_    0.664382 0.020553 0.598073 0.163167
C60   C     C_3   0.619402 0.136246 0.660409 -0.664279
H27   H     H_    0.554918 0.060266 0.675706 0.277608
H28   H     H_    0.711391 0.117039 0.675507 0.219234
H29   H     H_    0.591406 0.241409 0.671054 0.221760
O18   O     O_3   0.535184 0.861718 0.414766 -0.514383
C61   C     C_3   0.660543 0.867374 0.404206 0.150354
H30   H     H_    0.707672 0.781990 0.423146 0.180624
H31   H     H_    0.703273 0.967912 0.414459 0.194871
C62   C     C_3   0.679647 0.847781 0.350403 -0.629884
H32   H     H_    0.625596 0.924450 0.329847 0.266941
H33   H     H_    0.777199 0.862035 0.341767 0.219807
H34   H     H_    0.652542 0.742135 0.339282 0.224335
C63   C     C_2   0.415969 0.730032 0.251120 0.885976
O19   O     O_2   0.429504 0.741652 0.207666 -0.587870
O20   O     O_R   0.363979 0.839806 0.276605 -0.744160
H35   H     H_    0.339241 0.919364 0.255007 0.341389
C64   C     C_2   0.600954 0.749290 0.743695 0.890394
O21   O     O_2   0.570158 0.780062 0.784591 -0.581662
O22   O     O_R   0.675404 0.840723 0.718471 -0.746130
H36   H     H_    0.700596 0.923865 0.738514 0.341315
C65   C     C_2   0.319596 0.336570 0.644710 1.006795
O23   O     O_2   0.310847 0.212320 0.651860 -0.550299
O24   O     O_R   0.241632 0.401715 0.612078 -0.774047
H37   H     H_    0.178218 0.336514 0.598338 0.364370
C66   C     C_2   0.688475 0.334037 0.359952 1.007751
O25   O     O_2   0.698243 0.208863 0.355157 -0.551502
O26   O     O_R   0.765204 0.405644 0.391560 -0.776996
H38   H     H_    0.828853 0.343633 0.406611 0.362164
C67   C     C_2   0.349225 0.314312 0.750258 0.935178
O27   O     O_2   0.240601 0.296282 0.743268 -0.534365
O28   O     O_R   0.409825 0.238667 0.785811 -0.757072
H39   H     H_    0.354256 0.171711 0.803053 0.349797
C68   C     C_2   0.666783 0.294501 0.255083 0.937589
O29   O     O_2   0.775404 0.280915 0.263146 -0.518751
O30   O     O_R   0.609253 0.210541 0.220791 -0.764689
H40   H     H_    0.666924 0.142186 0.205279 0.346496
C69   C     C_2   0.177008 0.640768 0.884687 0.991931
O31   O     O_2   0.178938 0.748586 0.861825 -0.556026
O32   O     O_R   0.066495 0.575872 0.894549 -0.732313
H41   H     H_    0.994733 0.627268 0.880282 0.327128
C70   C     C_2   0.869272 0.474438 0.125892 0.986092
O33   O     O_2   0.885178 0.389073 0.157692 -0.551119
O34   O     O_R   0.964893 0.559253 0.111261 -0.734190
H42   H     H_    0.041564 0.543814 0.130842 0.330051
O35   O     O_3   0.201729 0.613763 0.982324 -0.566476
C71   C     C_3   0.224697 0.751088 0.997374 0.050341
H43   H     H_    0.236720 0.820648 0.965857 0.150711
H44   H     H_    0.307156 0.756813 0.020708 0.156803
C72   C     C_3   0.117118 0.803038 0.026338 -0.674729
H45   H     H_    0.105521 0.738565 0.058979 0.280442
H46   H     H_    0.132936 0.911912 0.037572 0.187859
H47   H     H_    0.032969 0.797836 0.004157 0.255685
O36   O     O_3   0.854153 0.427587 0.029059 -0.574492
C73   C     C_3   0.853439 0.282057 0.024346 0.040504
H48   H     H_    0.778209 0.247294 0.000195 0.155967
H49   H     H_    0.843772 0.231196 0.060080 0.155245
C74   C     C_3   0.972981 0.235475 0.002463 -0.707857
H50   H     H_    0.049508 0.264342 0.026683 0.242461
H51   H     H_    0.972559 0.121461 0.997604 0.196442
H52   H     H_    0.986036 0.285232 0.966869 0.267932
C75   C     C_2   0.121417 0.236972 0.488458 0.898185
O37   O     O_2   0.108148 0.181682 0.449128 -0.606563
O38   O     O_R   0.185598 0.169791 0.525032 -0.713002
H53   H     H_    0.227319 0.083136 0.513028 0.320903
C76   C     C_2   0.876076 0.762650 0.508738 0.906339
O39   O     O_2   0.880912 0.848830 0.476723 -0.616674
O40   O     O_R   0.817878 0.793374 0.551980 -0.718719
H54   H     H_    0.782177 0.889585 0.551833 0.320811
C77   C     C_2   0.877969 0.238072 0.514087 0.891075
O41   O     O_2   0.890184 0.185962 0.553847 -0.610991
O42   O     O_R   0.815082 0.167701 0.477673 -0.707938
H55   H     H_    0.773357 0.081617 0.490023 0.317446
C78   C     C_2   0.124522 0.761806 0.489805 0.911525
O43   O     O_2   0.120797 0.850239 0.521307 -0.618308
O44   O     O_R   0.181770 0.789333 0.446144 -0.724483
H56   H     H_    0.217625 0.885606 0.445486 0.322576

loop_
_geom_bond_atom_site_label_1
_geom_bond_atom_site_label_2
_geom_bond_distance
_ccdc_geom_bond_type
O38   H53   1.012493 S    
C43   C45   1.420436 A    
C72   H45   1.109959 S    
C13   C15   1.414940 A    
C62   H32   1.109235 S    
O13   C51   1.419415 S    
O17   C59   1.415951 S    
O32   H41   1.013591 S    
O3    C2    1.310767 A    
N1    C17   1.441877 S    
C62   H33   1.110451 S    
C61   H30   1.108678 S    
C70   O33   1.223202 D    
C32   C39   1.411140 A    
C31   C33   1.429296 A    
C78   O43   1.222119 D    
O5    C3    1.306833 A    
C67   O28   1.398059 S    
C74   H50   1.110157 S    
C51   H6    1.110267 S    
O1    C1    1.310778 A    
C56   H19   1.103630 S    
N1    C7    1.369058 A    
C10   C12   1.414370 A    
O18   C61   1.413767 S    
C68   O30   1.398011 S    
C69   O31   1.223172 D    
C54   H14   1.107678 S    
C25   C38   1.413766 A    
C59   H25   1.109096 S    
C29   C35   1.422839 A    
C40   H4    1.070883 S    
O30   H40   1.013745 S    
C57   H20   1.108658 S    
C30   C36   1.432490 A    
C47   O15   1.378878 S    
C47   N4    1.377873 A    
C75   O37   1.222258 D    
C14   C28   1.410221 A    
C41   C43   1.397652 A    
O7    Cu1   1.948867 S    
C48   O16   1.379716 S    
C4    C28   1.476631 S    
C60   H28   1.110266 S    
C24   C40   1.385130 A    
C41   C46   1.420185 A    
C2    C45   1.481585 S    
C48   C49   1.419848 A    
C77   O42   1.397071 S    
C51   C52   1.524601 S    
C15   C63   1.502546 S    
C42   C44   1.400521 A    
O34   H42   1.013224 S    
C50   N3    1.375385 A    
O6    C4    1.311812 A    
C11   C66   1.483965 S    
C71   H44   1.113858 S    
O3    Cu1   1.997513 S    
C52   H7    1.103542 S    
C36   O36   1.382253 S    
C78   O44   1.395858 S    
C16   C64   1.502368 S    
C74   H51   1.110594 S    
Cu1   Cu2   2.721212 S    
C75   O38   1.396873 S    
O2    C2    1.309354 A    
C5    C21   1.399476 A    
C69   O32   1.397572 S    
C36   C38   1.409716 A    
O16   C57   1.413850 S    
C38   C70   1.484777 S    
C73   H49   1.114717 S    
C76   O40   1.395300 S    
C50   O18   1.379498 S    
C51   H5    1.113298 S    
C54   H13   1.110488 S    
C58   H22   1.109156 S    
O20   H35   1.013987 S    
C71   C72   1.520238 S    
O8    Cu2   1.948867 S    
C62   H34   1.106719 S    
C11   C27   1.414337 A    
C49   O17   1.378398 S    
O4    C1    1.308981 A    
Cu1   N3    2.044972 S    
C19   C34   1.418266 A    
C76   O39   1.222253 D    
C42   C76   1.486755 S    
C73   H48   1.113943 S    
O14   C53   1.420489 S    
C61   H31   1.115267 S    
C35   C37   1.406667 A    
C44   C46   1.419934 A    
C23   H1    1.082592 S    
C49   N4    1.378990 A    
C5    N1    1.366762 A    
O44   H56   1.011389 S    
C10   C18   1.415919 A    
C24   H2    1.083157 S    
C73   C74   1.520767 S    
C13   C27   1.410325 A    
C55   H16   1.111500 S    
O40   H54   1.010652 S    
C7    C25   1.414345 A    
C29   C33   1.410842 A    
C6    N2    1.365795 A    
C8    C26   1.420203 A    
C37   C69   1.483510 S    
C63   O19   1.222154 D    
C52   H8    1.110422 S    
C56   H17   1.108900 S    
C19   C25   1.407610 A    
C71   H43   1.114263 S    
C12   C65   1.484248 S    
C44   C78   1.487446 S    
C6    O10   1.350544 S    
N2    C8    1.369827 A    
C77   O41   1.222198 D    
C72   H47   1.110869 S    
C57   H21   1.115070 S    
C66   O25   1.222532 D    
C20   C26   1.416736 A    
C60   H29   1.102995 S    
C39   H3    1.079608 S    
C41   C75   1.487228 S    
O22   H36   1.013972 S    
C57   C58   1.521084 S    
C12   C28   1.413879 A    
C55   C56   1.520486 S    
C64   O22   1.397909 S    
C65   O23   1.222670 D    
N2    C18   1.443949 S    
C29   C32   1.414108 A    
C5    O9    1.349994 S    
C30   C31   1.436030 A    
C35   O35   1.386465 S    
C20   C33   1.421565 A    
O6    Cu2   1.947321 S    
C42   C45   1.419791 A    
C21   C23   1.395869 A    
C14   O14   1.387564 S    
Cu2   N4    2.044973 S    
C1    C46   1.481078 S    
C54   H12   1.104253 S    
C7    O12   1.348639 S    
C72   H46   1.110582 S    
O28   H39   1.013784 S    
C26   C37   1.419431 A    
C8    O11   1.347615 S    
C10   C67   1.486426 S    
C74   H52   1.110918 S    
C53   C54   1.526878 S    
C67   O27   1.222946 D    
C30   C34   1.420515 A    
C53   H11   1.109858 S    
C43   C77   1.487029 S    
C58   H23   1.110444 S    
C47   C50   1.420329 A    
C70   O34   1.397179 S    
O15   C55   1.415857 S    
C14   C16   1.411689 A    
C15   C17   1.418889 A    
O36   C73   1.413311 S    
C68   O29   1.222959 D    
C6    C22   1.396899 A    
C22   C24   1.392935 A    
C16   C18   1.417843 A    
C52   H9    1.107484 S    
C55   H15   1.109502 S    
C64   O21   1.222734 D    
C59   H26   1.111017 S    
C48   N3    1.374284 A    
C32   C34   1.416686 A    
C19   C21   1.410881 A    
C3    C27   1.477600 S    
C20   C22   1.406604 A    
C9    C11   1.411539 A    
O4    Cu2   1.997513 S    
O2    Cu2   1.997092 S    
O7    C4    1.305507 A    
C63   O20   1.398611 S    
C61   C62   1.521067 S    
O26   H38   1.012534 S    
O8    C3    1.310960 A    
O42   H55   1.012466 S    
O5    Cu1   1.947321 S    
O1    Cu1   1.997092 S    
C56   H18   1.110422 S    
C53   H10   1.113136 S    
C60   H27   1.108731 S    
C66   O26   1.396553 S    
C9    C68   1.486857 S    
C58   H24   1.106671 S    
C65   O24   1.397170 S    
O35   C71   1.413232 S    
C13   O13   1.388086 S    
C23   C39   1.386276 A    
O24   H37   1.012628 S    
C9    C17   1.414179 A    
C31   C40   1.415344 A    
C59   C60   1.519586 S    
