data_mof_unit_62039.cif
_audit_creation_date              2012-10-26T21:09:48-0400
_audit_creation_method            fapswitch 2.2
_symmetry_space_group_name_H-M    P1
_symmetry_Int_Tables_number       1
_space_group_crystal_system       triclinic
_cell_length_a                    16.006683
_cell_length_b                    14.76224
_cell_length_c                    19.367264
_cell_angle_alpha                 90.000718
_cell_angle_beta                  90.000278
_cell_angle_gamma                 90.003852
_cell_volume                      4576.37787599

loop_
_atom_site_label
_atom_site_type_symbol
_atom_type_description
_atom_site_fract_x
_atom_site_fract_y
_atom_site_fract_z
_atom_type_partial_charge
C1    C     C_R   0.340934 0.499997 0.500003 0.572016
C2    C     C_R   0.576026 0.048233 0.499993 0.092332
C3    C     C_R   0.499999 0.902910 0.499985 -0.033799
C4    C     C_R   0.500001 0.097090 0.499985 -0.033785
C5    C     C_1   0.499999 0.802640 0.499993 0.223495
C6    C     C_1   0.500001 0.197360 0.499993 0.223506
C7    C     C_R   0.500000 0.500001 0.367313 0.578674
C8    C     C_R   0.500010 0.500001 0.632670 0.579212
C9    C     C_R   0.561353 0.549393 0.255476 0.053995
C10   C     C_R   0.562234 0.452050 0.744477 0.053789
C11   C     C_R   0.437773 0.548028 0.744447 0.053804
C12   C     C_R   0.659066 0.500003 0.499978 0.571986
C13   C     C_R   0.438626 0.450762 0.255454 0.053991
C14   C     C_R   0.560534 0.550510 0.182880 0.077368
C15   C     C_R   0.561582 0.451186 0.817075 0.077469
C16   C     C_R   0.438451 0.549013 0.817043 0.077473
C17   C     C_R   0.439370 0.449835 0.182853 0.077345
C18   C     C_R   0.499967 0.500173 0.146366 0.077237
C19   C     C_R   0.500023 0.500130 0.853568 0.077269
C20   C     C_R   0.500016 0.500020 0.291691 0.001476
C21   C     C_R   0.500001 0.500015 0.708261 0.002037
C22   C     C_R   0.500017 0.500171 0.929943 0.390843
C23   C     C_1   0.822871 0.500006 0.500004 -0.049630
C24   C     C_R   0.499986 0.500197 0.069996 0.390939
C25   C     C_R   0.956284 0.582871 0.499979 0.137719
C26   C     C_R   0.043716 0.417130 0.500021 0.137722
C27   C     C_R   0.043728 0.582868 0.500059 0.137738
C28   C     C_R   0.956272 0.417133 0.500087 0.137738
C29   C     C_R   0.912560 0.500003 0.500025 -0.019097
C30   C     C_R   0.087440 0.499998 0.500039 -0.019093
C31   C     C_1   0.177129 0.499994 0.500027 -0.049617
C32   C     C_1   0.252039 0.499993 0.500015 0.026193
C33   C     C_1   0.747961 0.500008 0.499988 0.026173
C34   C     C_R   0.576025 0.951775 0.499834 0.092464
C35   C     C_R   0.423975 0.048225 0.499968 0.092460
C36   C     C_R   0.423974 0.951767 0.500127 0.092331
Cu1   Cu    Cu3+1 0.500000 0.589220 0.500000 1.095395
Cu2   Cu    Cu3+1 0.500000 0.410780 0.500000 1.095421
H1    H     H_    0.613730 0.671984 0.161332 0.268477
H2    H     H_    0.125391 0.670421 0.543959 0.258878
H3    H     H_    0.874585 0.329619 0.544000 0.258858
H4    H     H_    0.874537 0.329408 0.456480 0.251936
H5    H     H_    0.874539 0.670588 0.543571 0.252055
H6    H     H_    0.874634 0.670406 0.456052 0.258685
H7    H     H_    0.125379 0.329567 0.456141 0.258674
H8    H     H_    0.125448 0.329440 0.543659 0.252063
H9    H     H_    0.680071 0.582029 0.157639 0.273169
H10   H     H_    0.681870 0.423064 0.842138 0.273078
H11   H     H_    0.617608 0.331292 0.838863 0.268629
H12   H     H_    0.382433 0.668944 0.838725 0.268628
H13   H     H_    0.318173 0.577178 0.842110 0.273091
H14   H     H_    0.319665 0.419000 0.157682 0.273104
H15   H     H_    0.385619 0.328681 0.161121 0.268565
H16   H     H_    0.125486 0.670554 0.456440 0.251912
I1    I     I_    0.658919 0.619652 0.309262 -0.312400
I2    I     I_    0.660800 0.383620 0.690611 -0.313687
I3    I     I_    0.339172 0.616349 0.690544 -0.313659
I4    I     I_    0.341014 0.380529 0.309201 -0.312503
I5    I     I_    0.690974 0.122180 0.500361 -0.217016
I6    I     I_    0.309028 0.877819 0.500698 -0.216977
I7    I     I_    0.309029 0.122162 0.499581 -0.216671
I8    I     I_    0.690970 0.877837 0.499243 -0.216615
N1    N     N_R   0.427066 0.499517 0.034286 -0.173745
N2    N     N_3   0.379729 0.396200 0.145590 -0.575854
N3    N     N_3   0.087254 0.667862 0.500167 -0.532036
N4    N     N_3   0.912745 0.332138 0.500221 -0.532030
N5    N     N_3   0.912771 0.667868 0.499845 -0.532040
N6    N     N_3   0.087229 0.332132 0.499924 -0.532038
N7    N     N_R   0.572934 0.501179 0.965655 -0.173725
N8    N     N_R   0.427085 0.499185 0.965633 -0.173739
N9    N     N_R   0.572923 0.500872 0.034309 -0.173860
N10   N     N_1   0.500000 0.276710 0.500000 -0.157578
N11   N     N_1   0.500000 0.723290 0.500000 -0.157572
N12   N     N_3   0.619888 0.604548 0.145650 -0.575888
N13   N     N_3   0.622268 0.398952 0.854325 -0.575844
N14   N     N_3   0.377779 0.601311 0.854257 -0.575835
O1    O     O_R   0.380310 0.575320 0.500010 -0.479863
O2    O     O_R   0.619690 0.424680 0.499990 -0.479882
O3    O     O_R   0.619690 0.575320 0.499990 -0.479788
O4    O     O_R   0.380310 0.424680 0.500010 -0.479790
O5    O     O_R   0.499990 0.575370 0.400140 -0.475419
O6    O     O_R   0.500010 0.424630 0.599860 -0.475455
O7    O     O_R   0.500010 0.575370 0.599860 -0.475485
O8    O     O_R   0.499990 0.424630 0.400140 -0.475398

loop_
_geom_bond_atom_site_label_1
_geom_bond_atom_site_label_2
_ccdc_geom_bond_type
C15   N13   S    
C8    O7    A    
C1    O1    A    
C14   C18   A    
C28   N4    S    
C35   C36   A    
C25   N5    S    
H16   N3    S    
C15   C19   A    
Cu1   O3    S    
C8    O6    A    
C14   N12   S    
C28   C29   A    
C10   C15   A    
C17   N2    S    
C30   C31   S    
H15   N2    S    
C12   O3    A    
C34   I8    S    
H1    N12   S    
N7    N9    A    
C23   C33   T    
C12   O2    A    
H11   N13   S    
C9    I1    S    
C10   I2    S    
C22   N7    A    
C2    C34   A    
C7    O8    A    
C4    C35   A    
Cu2   O6    S    
C27   C30   A    
H10   N13   S    
Cu1   O5    S    
C8    C21   S    
C10   C21   A    
C25   C29   A    
Cu2   N10   S    
C19   C22   S    
H13   N14   S    
C4    C6    S    
H14   N2    S    
C2    I5    S    
C13   I4    S    
Cu2   O2    S    
C3    C34   A    
C36   I6    S    
C6    N10   T    
Cu1   O1    S    
C11   C21   A    
C1    C32   S    
C2    C4    A    
C9    C14   A    
H8    N6    S    
Cu1   Cu2   S    
C27   N3    S    
H12   N14   S    
C11   C16   A    
C9    C20   A    
C31   C32   T    
N1    N8    A    
H7    N6    S    
C17   C18   A    
C35   I7    S    
C7    O5    A    
C26   C30   A    
C24   N1    A    
H2    N3    S    
C18   C24   S    
C23   C29   S    
Cu1   N11   S    
C13   C20   A    
Cu2   O8    S    
C16   N14   S    
H9    N12   S    
C3    C5    S    
H3    N4    S    
C25   C27   A    
C26   C28   A    
C13   C17   A    
C26   N6    S    
Cu2   O4    S    
C3    C36   A    
C16   C19   A    
C5    N11   T    
H5    N5    S    
C7    C20   S    
H4    N4    S    
C1    O4    A    
Cu1   O7    S    
H6    N5    S    
C12   C33   S    
C11   I3    S    
C22   N8    A    
C24   N9    A    
