data_mof_unit_28848.cif
_audit_creation_date              2012-12-10T17:20:33-0500
_audit_creation_method            fapswitch 2.2
_symmetry_space_group_name_H-M    P1
_symmetry_Int_Tables_number       1
_space_group_crystal_system       triclinic
_cell_length_a                    10.276632
_cell_length_b                    10.441065
_cell_length_c                    13.587683
_cell_angle_alpha                 92.597721
_cell_angle_beta                  75.112699
_cell_angle_gamma                 94.530438
_cell_volume                      1404.12927405

loop_
_atom_site_label
_atom_site_type_symbol
_atom_type_description
_atom_site_fract_x
_atom_site_fract_y
_atom_site_fract_z
_atom_type_partial_charge
C1    C     C_R   0.555279 0.734169 0.488603 0.942282
C2    C     C_2   0.070840 0.481066 0.496946 -0.049245
C3    C     C_1   0.445949 0.501430 0.883108 -0.003603
C4    C     C_1   0.550231 0.484643 0.117300 -0.021846
C5    C     C_2   0.582128 0.869716 0.466500 -0.420166
C6    C     C_2   0.424287 0.127981 0.483740 -0.389713
C7    C     C_2   0.509355 0.926247 0.412922 -0.012102
C8    C     C_2   0.515150 0.065097 0.412042 -0.011601
C9    C     C_R   0.618250 0.128520 0.328285 0.179378
C10   C     C_R   0.753889 0.143646 0.331872 -0.109137
C11   C     C_R   0.852265 0.193820 0.248827 -0.174516
C12   C     C_R   0.446170 0.265362 0.500584 0.931972
C13   C     C_R   0.816463 0.226748 0.161280 -0.104608
C14   C     C_R   0.682033 0.209331 0.156564 -0.139749
C15   C     C_R   0.582892 0.161349 0.240063 -0.182737
C16   C     C_R   0.430452 0.855388 0.347960 0.171690
C17   C     C_R   0.291452 0.824593 0.385463 -0.086586
C18   C     C_R   0.216857 0.764607 0.321398 -0.164702
C19   C     C_R   0.279474 0.738806 0.219125 -0.128955
C20   C     C_R   0.417038 0.772203 0.180854 -0.139961
C21   C     C_R   0.492742 0.829156 0.245200 -0.198991
C22   C     C_R   0.117644 0.364597 0.436568 0.224032
C23   C     C_R   0.476852 0.503435 0.688158 0.900207
C24   C     C_R   0.086991 0.243767 0.481579 -0.155298
C25   C     C_R   0.123126 0.132112 0.423447 -0.161285
C26   C     C_R   0.189545 0.140430 0.320163 -0.131447
C27   C     C_R   0.216908 0.260169 0.274277 -0.211896
C28   C     C_R   0.178138 0.371670 0.331720 -0.129212
C29   C     C_R   0.871031 0.611062 0.587595 0.229587
C30   C     C_R   0.831598 0.582275 0.691489 -0.138477
C31   C     C_R   0.790106 0.679170 0.764802 -0.157823
C32   C     C_R   0.791210 0.805753 0.735091 -0.115924
C33   C     C_R   0.835173 0.835893 0.632127 -0.185405
C34   C     C_R   0.522993 0.496057 0.311890 0.906409
C35   C     C_R   0.876404 0.739197 0.558649 -0.149116
C36   C     C_1   0.539237 0.490057 0.206370 -0.154683
C37   C     C_1   0.458853 0.502917 0.793883 -0.185069
C38   C     C_2   0.553672 0.480235 0.013003 -0.195614
C39   C     C_2   0.440701 0.498646 0.987558 -0.179976
C40   C     C_2   0.925250 0.510604 0.511141 -0.059116
H1    H     H_    0.117712 0.632789 0.580849 0.160582
H2    H     H_    0.654751 0.232404 0.087987 0.137245
H3    H     H_    0.479464 0.146570 0.234969 0.138481
H4    H     H_    0.241355 0.846566 0.464087 0.111971
H5    H     H_    0.110361 0.739033 0.350553 0.117612
H6    H     H_    0.221254 0.693505 0.169461 0.119504
H7    H     H_    0.465186 0.753717 0.101347 0.147688
H8    H     H_    0.599276 0.854887 0.214651 0.139405
H9    H     H_    0.035282 0.236259 0.561514 0.116036
H10   H     H_    0.099777 0.039273 0.458570 0.124329
H11   H     H_    0.218338 0.054070 0.275378 0.148517
H12   H     H_    0.888493 0.380087 0.406682 0.165077
H13   H     H_    0.266152 0.266390 0.193871 0.141645
H14   H     H_    0.195583 0.463371 0.294652 0.140304
H15   H     H_    0.832271 0.484830 0.715448 0.119676
H16   H     H_    0.757922 0.656352 0.844679 0.134272
H17   H     H_    0.759316 0.880667 0.791931 0.127171
H18   H     H_    0.837923 0.934254 0.609255 0.124563
H19   H     H_    0.911221 0.764042 0.479310 0.117338
H20   H     H_    0.346720 0.514378 0.044097 0.149271
H21   H     H_    0.647807 0.464865 0.956531 0.150245
H22   H     H_    0.340933 0.075693 0.535740 0.137734
H23   H     H_    0.651617 0.926495 0.502109 0.139149
H24   H     H_    0.783328 0.116543 0.398650 0.118959
H25   H     H_    0.956403 0.206070 0.251900 0.147618
H26   H     H_    0.893034 0.264597 0.096790 0.121607
N1    N     N_2   0.847200 0.448220 0.460120 -0.211709
N2    N     N_2   0.152800 0.551780 0.539880 -0.211000
O1    O     O_R   0.430150 0.692610 0.508030 -0.602010
O2    O     O_R   0.569850 0.307390 0.491970 -0.600805
O3    O     O_R   0.653100 0.659360 0.482430 -0.598914
O4    O     O_R   0.346900 0.340640 0.517570 -0.591441
O5    O     O_R   0.372470 0.518990 0.654990 -0.607210
O6    O     O_R   0.627530 0.481010 0.345010 -0.601782
O7    O     O_R   0.595430 0.485740 0.629390 -0.597510
O8    O     O_R   0.404570 0.514260 0.370610 -0.597816
Zn1   Zn    Zn3+2 0.351130 0.522200 0.517090 0.943452
Zn2   Zn    Zn3+2 0.648870 0.477800 0.482910 0.943746

loop_
_geom_bond_atom_site_label_1
_geom_bond_atom_site_label_2
_ccdc_geom_bond_type
C4    C36   T    
C16   C21   A    
O2    Zn2   S    
O1    Zn1   S    
C19   C20   A    
C19   H6    S    
C7    C8    S    
C26   C27   A    
C33   H18   S    
C1    C5    S    
C2    N2    D    
C6    C12   S    
C30   C31   A    
C24   H9    S    
C5    H23   S    
C35   H19   S    
C18   C19   A    
C25   H10   S    
O4    Zn1   S    
C8    C9    S    
C40   N1    D    
C2    C22   S    
C31   H16   S    
C9    C10   A    
C14   H2    S    
C21   H8    S    
C12   O4    A    
C3    C39   S    
C22   C28   A    
C13   C14   A    
N1    Zn2   S    
C32   H17   S    
C23   O5    A    
H1    N2    S    
C13   H26   S    
O8    Zn1   S    
C5    C7    D    
C28   H14   S    
C16   C17   A    
C6    C8    D    
C25   C26   A    
C23   C37   S    
C1    O1    A    
C29   C30   A    
C31   C32   A    
C17   C18   A    
C1    O3    A    
C24   C25   A    
H12   N1    S    
C34   O6    A    
C7    C16   S    
C4    C38   S    
C22   C24   A    
C18   H5    S    
N2    Zn1   S    
C12   O2    A    
C10   H24   S    
C23   O7    A    
C27   H13   S    
C30   H15   S    
C29   C35   A    
C32   C33   A    
C38   H21   S    
C9    C15   A    
C17   H4    S    
C15   H3    S    
C26   H11   S    
C11   C13   A    
C6    H22   S    
C38   C39   D    
C39   H20   S    
C29   C40   S    
C33   C35   A    
C34   C36   S    
O7    Zn2   S    
C20   H7    S    
C10   C11   A    
C2    C40   S    
C20   C21   A    
C3    C37   T    
O6    Zn2   S    
C27   C28   A    
O5    Zn1   S    
C14   C15   A    
O3    Zn2   S    
C11   H25   S    
C34   O8    A    
