data_mof_unit_31624.cif
_audit_creation_date              2012-12-10T17:04:04-0500
_audit_creation_method            fapswitch 2.2
_symmetry_space_group_name_H-M    P1
_symmetry_Int_Tables_number       1
_space_group_crystal_system       triclinic
_cell_length_a                    18.700492
_cell_length_b                    19.215829
_cell_length_c                    18.62407
_cell_angle_alpha                 110.263573
_cell_angle_beta                  108.907744
_cell_angle_gamma                 109.978734
_cell_volume                      5103.92003414

loop_
_atom_site_label
_atom_site_type_symbol
_atom_type_description
_atom_site_fract_x
_atom_site_fract_y
_atom_site_fract_z
_atom_type_partial_charge
C1    C     C_R   0.996885 0.116354 0.620788 0.932167
C2    C     C_R   0.298605 0.258278 0.664661 0.474625
C3    C     C_R   0.995217 0.104853 0.773291 -0.239670
C4    C     C_R   0.121070 0.120480 0.500290 0.957167
C5    C     C_R   0.005297 0.105288 0.851178 0.444839
C6    C     C_R   0.020938 0.177439 0.921666 -0.231635
C7    C     C_R   0.023921 0.247654 0.913545 -0.247586
C8    C     C_R   0.011338 0.247163 0.834219 0.108995
C9    C     C_R   0.001637 0.177031 0.765217 0.024139
C10   C     C_R   0.996410 0.180536 0.689179 -0.068520
C11   C     C_R   0.995650 0.249284 0.679668 -0.114336
C12   C     C_R   0.168757 0.195540 0.424359 -0.058259
C13   C     C_R   0.001835 0.316186 0.745636 -0.214478
C14   C     C_R   0.008462 0.314986 0.821756 -0.052657
C15   C     C_R   0.726737 0.727109 0.328291 -0.198777
C16   C     C_R   0.998615 0.879273 0.379628 0.883010
C17   C     C_R   0.656355 0.652962 0.249781 -0.180159
C18   C     C_R   0.610068 0.580113 0.251008 -0.146657
C19   C     C_R   0.634686 0.581305 0.330967 0.414526
C20   C     C_R   0.688415 0.663000 0.412357 -0.003034
C21   C     C_R   0.742467 0.734437 0.411116 0.067491
C22   C     C_R   0.810891 0.810100 0.492965 -0.079791
C23   C     C_R   0.316008 0.315266 0.500452 -0.107571
C24   C     C_R   0.816549 0.819965 0.572680 -0.151676
C25   C     C_R   0.753000 0.756857 0.572480 -0.153806
C26   C     C_R   0.688405 0.679090 0.493642 -0.103181
C27   C     C_R   0.162770 0.915691 0.382693 -0.087183
C28   C     C_R   0.879087 0.878879 0.498014 0.827166
C29   C     C_R   0.242340 0.932035 0.385808 -0.090800
C30   C     C_R   0.245374 0.869805 0.323421 -0.127182
C31   C     C_R   0.169079 0.790742 0.258264 -0.082709
C32   C     C_R   0.086566 0.771034 0.254220 0.135404
C33   C     C_R   0.084186 0.835235 0.317611 0.122957
C34   C     C_R   0.340549 0.299946 0.570244 0.035890
C35   C     C_R   0.002946 0.817795 0.313841 -0.039554
C36   C     C_R   0.925771 0.739160 0.250373 -0.184168
C37   C     C_R   0.927845 0.674923 0.190094 -0.156904
C38   C     C_R   0.006618 0.689604 0.190929 -0.041171
C39   C     C_R   0.622394 0.502910 0.620905 0.829844
C40   C     C_R   0.092889 0.132065 0.339620 0.403305
C41   C     C_R   0.380972 0.380912 0.500682 0.836070
C42   C     C_R   0.379083 0.498177 0.379614 0.855610
C43   C     C_R   0.620051 0.618721 0.497929 0.848445
C44   C     C_R   0.879422 0.497218 0.877565 0.840051
C45   C     C_R   0.274120 0.248046 0.579085 -0.041370
C46   C     C_R   0.003185 0.380622 0.882809 0.871066
C47   C     C_R   0.120939 0.501855 0.121937 0.995648
C48   C     C_R   0.001808 0.620566 0.121832 0.967132
C49   C     C_R   0.781510 0.522369 0.614747 -0.151612
C50   C     C_R   0.850109 0.517335 0.603486 -0.104339
C51   C     C_R   0.903216 0.498271 0.655609 -0.131332
C52   C     C_R   0.059110 0.160250 0.284126 -0.164013
C53   C     C_R   0.890364 0.487955 0.721750 -0.164264
C54   C     C_R   0.823553 0.496711 0.736797 0.106467
C55   C     C_R   0.765123 0.508537 0.678977 0.091955
C56   C     C_R   0.188456 0.189158 0.502024 -0.230033
C57   C     C_R   0.692624 0.507513 0.687981 -0.090986
C58   C     C_R   0.682330 0.502143 0.757124 -0.204584
C59   C     C_R   0.742382 0.495480 0.816870 -0.194358
C60   C     C_R   0.812864 0.493380 0.807557 -0.092176
C61   C     C_R   0.213400 0.456642 0.373574 -0.164756
C62   C     C_R   0.132291 0.434761 0.368139 -0.202990
C63   C     C_R   0.075936 0.450981 0.316329 -0.173689
C64   C     C_R   0.116939 0.234194 0.291388 -0.161629
C65   C     C_R   0.103198 0.492375 0.273467 0.449950
C66   C     C_R   0.173221 0.491977 0.258389 -0.082869
C67   C     C_R   0.429836 0.337269 0.632709 -0.150726
C68   C     C_R   0.232600 0.480434 0.315213 0.060577
C69   C     C_R   0.310257 0.493964 0.313261 -0.136626
C70   C     C_R   0.326351 0.509696 0.251435 -0.251831
C71   C     C_R   0.265764 0.513395 0.188967 0.364269
C72   C     C_R   0.188536 0.505473 0.192203 -0.262948
C73   C     C_R   0.204428 0.281801 0.358594 -0.152841
C74   C     C_R   0.230016 0.265970 0.428869 0.063532
C75   C     C_R   0.452172 0.328140 0.706285 -0.217541
C76   C     C_R   0.386922 0.291429 0.723889 -0.169341
H1    H     H_    0.406125 0.296692 0.787875 0.190707
H2    H     H_    0.864145 0.726785 0.249094 0.148443
H3    H     H_    0.164025 0.968055 0.430921 0.135722
H4    H     H_    0.301594 0.993796 0.436084 0.141487
H5    H     H_    0.307344 0.882609 0.325629 0.152254
H6    H     H_    0.179055 0.746133 0.214700 0.195832
H7    H     H_    0.626889 0.501816 0.764057 0.161746
H8    H     H_    0.742566 0.538707 0.574085 0.183369
H9    H     H_    0.861726 0.527612 0.553770 0.176049
H10   H     H_    0.996058 0.115894 0.223634 0.173579
H11   H     H_    0.955163 0.492377 0.645443 0.151533
H12   H     H_    0.980634 0.046994 0.719040 0.162917
H13   H     H_    0.387434 0.519339 0.252617 0.194972
H14   H     H_    0.259591 0.452993 0.422679 0.156430
H15   H     H_    0.116440 0.412209 0.409811 0.177610
H16   H     H_    0.251117 0.330091 0.354763 0.135942
H17   H     H_    0.482553 0.372687 0.624494 0.136646
H18   H     H_    0.520592 0.356278 0.753558 0.166830
H19   H     H_    0.991382 0.251757 0.621231 0.179708
H20   H     H_    0.866908 0.971261 0.843823 0.350996
H21   H     H_    0.029782 0.179121 0.982765 0.183426
H22   H     H_    0.710855 0.456056 0.409952 0.371607
H23   H     H_    0.037211 0.302421 0.970369 0.176786
H24   H     H_    0.211864 0.073579 0.389725 0.316094
H25   H     H_    0.867087 0.613821 0.141340 0.166393
H26   H     H_    0.932542 0.472182 0.759923 0.142020
H27   H     H_    0.734723 0.493469 0.871502 0.160592
H28   H     H_    0.019586 0.446541 0.323551 0.185034
H29   H     H_    0.211258 0.673784 0.316120 0.362471
H30   H     H_    0.201355 0.394694 0.996751 0.351217
H31   H     H_    0.096309 0.249700 0.240523 0.169882
H32   H     H_    0.258093 0.374603 0.831793 0.403403
H33   H     H_    0.999219 0.368092 0.736292 0.148913
H34   H     H_    0.868266 0.878619 0.635039 0.199304
H35   H     H_    0.765801 0.777747 0.321493 0.181976
H36   H     H_    0.642723 0.649585 0.187172 0.180182
H37   H     H_    0.564975 0.519511 0.188614 0.200907
H38   H     H_    0.755260 0.768161 0.634597 0.197298
O1    O     O_R   0.051710 0.091600 0.643330 -0.548556
O2    O     O_R   0.856640 0.448280 0.908400 -0.628101
O3    O     O_R   0.051720 0.460120 0.908370 -0.578921
O4    O     O_R   0.948270 0.091620 0.539910 -0.636928
O5    O     O_R   0.948290 0.356670 0.908380 -0.642813
O6    O     O_R   0.143340 0.551720 0.091580 -0.531007
O7    O     O_R   0.039910 0.448270 0.091590 -0.641755
O8    O     O_R   0.051690 0.643330 0.091600 -0.652870
O9    O     O_R   0.948270 0.539880 0.091610 -0.572506
O10   O     O_R   0.143340 0.091610 0.551710 -0.612730
O11   O     O_R   0.039890 0.091630 0.448290 -0.605997
O12   O     O_R   0.591640 0.448340 0.539940 -0.615905
O13   O     O_R   0.051730 0.908380 0.460090 -0.637816
O14   O     O_R   0.948290 0.908400 0.356670 -0.583660
O15   O     O_R   0.960110 0.908370 0.551710 -0.601723
O16   O     O_R   0.856660 0.908390 0.448290 -0.648463
O17   O     O_R   0.591600 0.551770 0.643360 -0.610783
O18   O     O_2   0.036618 0.975144 0.811931 -0.244335
O19   O     O_2   0.043364 0.039537 0.954662 -0.245442
O20   O     O_3   0.889905 0.940948 0.811574 -0.555300
O21   O     O_2   0.551480 0.417273 0.292131 -0.282198
O22   O     O_2   0.667454 0.458367 0.255426 -0.279635
O23   O     O_R   0.408370 0.460150 0.551730 -0.620742
O24   O     O_3   0.715268 0.511856 0.420119 -0.570116
O25   O     O_2   0.023920 0.962393 0.278104 -0.317751
O26   O     O_2   0.061926 0.013428 0.186301 -0.208431
O27   O     O_3   0.189506 0.046567 0.325377 -0.517056
O28   O     O_2   0.993980 0.551674 0.245020 -0.275960
O29   O     O_2   0.121847 0.633225 0.392227 -0.278791
O30   O     O_3   0.149472 0.644883 0.268886 -0.634135
O31   O     O_2   0.309904 0.613033 0.121116 -0.234683
O32   O     O_2   0.368467 0.516804 0.113949 -0.299432
O33   O     O_3   0.203462 0.449402 0.005680 -0.546384
O34   O     O_R   0.408410 0.356720 0.448320 -0.604944
O35   O     O_2   0.151919 0.259333 0.654035 -0.356579
O36   O     O_2   0.218333 0.208347 0.747404 -0.281966
O37   O     O_3   0.295273 0.371747 0.804454 -0.523263
O38   O     O_R   0.408360 0.551760 0.460120 -0.618304
O39   O     O_R   0.408400 0.448330 0.356700 -0.596962
O40   O     O_R   0.591600 0.643380 0.551740 -0.620770
O41   O     O_R   0.591640 0.539950 0.448320 -0.549365
O42   O     O_R   0.960070 0.551730 0.908390 -0.618196
S1    S     S_3+6 0.996702 0.014454 0.859366 0.043352
S2    S     S_3+6 0.640462 0.488603 0.322564 0.048129
S3    S     S_3+6 0.089494 0.035341 0.280280 0.041530
S4    S     S_3+6 0.089784 0.581855 0.295094 0.010897
S5    S     S_3+6 0.289877 0.525269 0.107448 0.048628
S6    S     S_3+6 0.235974 0.271146 0.715881 0.027188
Zn1   Zn    Zn3+2 0.069070 0.999990 0.569050 1.079590
Zn2   Zn    Zn3+2 0.930930 0.000010 0.430950 1.010025
Zn3   Zn    Zn3+2 0.499980 0.569110 0.569080 1.008475
Zn4   Zn    Zn3+2 0.500030 0.430990 0.430980 1.099057
Zn5   Zn    Zn3+2 0.069050 0.569070 0.999980 1.078023
Zn6   Zn    Zn3+2 0.930930 0.430930 0.000000 1.012122

loop_
_geom_bond_atom_site_label_1
_geom_bond_atom_site_label_2
_ccdc_geom_bond_type
C66   C68   A    
C63   C65   A    
C12   C74   A    
O39   Zn4   S    
C27   C29   A    
O34   Zn4   S    
C73   C74   A    
C40   S3    S    
C35   C36   A    
C2    S6    S    
H29   O30   S    
O23   Zn3   S    
O38   Zn3   S    
O29   S4    D    
C14   C46   S    
C54   C60   A    
C53   C54   A    
C27   C33   A    
C29   H4    S    
O4    Zn2   S    
C37   C38   A    
C31   H6    S    
C7    H23   S    
C4    O11   A    
H22   O24   S    
C49   H8    S    
C21   C22   A    
C36   C37   A    
C44   C60   S    
C18   C19   A    
C27   H3    S    
H24   O27   S    
C16   C35   S    
C48   O8    A    
C30   C31   A    
C47   O7    A    
O41   Zn4   S    
C11   H19   S    
C39   C57   S    
O14   Zn2   S    
O15   Zn1   S    
C28   O15   A    
C13   H33   S    
C50   H9    S    
O27   S3    S    
C66   C72   A    
C19   C20   A    
C45   C56   A    
C20   C26   A    
C8    C9    A    
O13   Zn1   S    
C64   C73   A    
O40   Zn3   S    
C70   C71   A    
C32   C38   A    
O30   S4    S    
C43   O40   A    
C42   O38   A    
C9    C10   A    
C41   O23   A    
O10   Zn1   S    
O22   S2    D    
O37   S6    S    
C39   O12   A    
O25   S3    D    
C59   C60   A    
O21   S2    D    
C22   C28   S    
C13   C14   A    
C4    C56   S    
C61   C62   A    
C48   O9    A    
C65   S4    S    
C43   O41   A    
C18   H37   S    
C26   C43   S    
C50   C51   A    
C2    C45   A    
O36   S6    D    
O32   S5    D    
C44   O42   A    
C6    H21   S    
C15   H35   S    
C7    C8    A    
C42   O39   A    
C24   H34   S    
C24   C25   A    
C52   C64   A    
C51   H11   S    
C68   C69   A    
H20   O20   S    
O42   Zn5   S    
C3    C5    A    
C58   C59   A    
C49   C55   A    
C42   C69   S    
H30   O33   S    
C46   O3    A    
C51   C53   A    
C12   C40   A    
C75   C76   A    
C62   C63   A    
C3    C9    A    
O31   S5    D    
H32   O37   S    
O24   S2    S    
C31   C32   A    
C53   H26   S    
C23   C34   A    
C62   H15   S    
C17   C18   A    
C34   C45   A    
C76   H1    S    
C16   O14   A    
O17   Zn3   S    
C12   C56   A    
O9    Zn6   S    
C47   O6    A    
C75   H18   S    
C4    O10   A    
C65   C66   A    
C5    S1    S    
C55   C57   A    
O33   S5    S    
C22   C24   A    
O11   Zn2   S    
C67   C75   A    
C23   C74   A    
C17   H36   S    
C2    C76   A    
C61   H14   S    
C64   H31   S    
O16   Zn2   S    
C15   C17   A    
O7    Zn6   S    
C54   C55   A    
C8    C14   A    
O8    Zn5   S    
C71   S5    S    
C3    H12   S    
C19   S2    S    
C38   C48   S    
C1    C10   S    
O19   S1    D    
C73   H16   S    
O28   S4    D    
C63   H28   S    
O12   Zn4   S    
C34   C67   A    
C6    C7    A    
O18   S1    D    
C23   C41   S    
C59   H27   S    
C32   C33   A    
C30   H5    S    
C52   H10   S    
C25   C26   A    
C71   C72   A    
O26   S3    D    
C40   C52   A    
C25   H38   S    
C37   H25   S    
C11   C13   A    
C61   C68   A    
C57   C58   A    
C5    C6    A    
C41   O34   A    
C39   O17   A    
O3    Zn5   S    
C33   C35   A    
C46   O5    A    
C28   O16   A    
C1    O4    A    
O1    Zn1   S    
C69   C70   A    
C16   O13   A    
C47   C72   S    
C10   C11   A    
C29   C30   A    
C70   H13   S    
C15   C21   A    
O20   S1    S    
C20   C21   A    
C44   O2    A    
C49   C50   A    
C67   H17   S    
O2    Zn6   S    
C36   H2    S    
O35   S6    D    
C1    O1    A    
C58   H7    S    
O5    Zn6   S    
O6    Zn5   S    
