data_mof_unit_29928.cif
_audit_creation_date              2012-12-10T17:13:12-0500
_audit_creation_method            fapswitch 2.2
_symmetry_space_group_name_H-M    P1
_symmetry_Int_Tables_number       1
_space_group_crystal_system       triclinic
_cell_length_a                    18.337818
_cell_length_b                    18.394824
_cell_length_c                    18.296067
_cell_angle_alpha                 119.695536
_cell_angle_beta                  90.482696
_cell_angle_gamma                 120.268092
_cell_volume                      4347.60177012

loop_
_atom_site_label
_atom_site_type_symbol
_atom_type_description
_atom_site_fract_x
_atom_site_fract_y
_atom_site_fract_z
_atom_type_partial_charge
C1    C     C_R   0.640480 0.779977 0.641675 0.533023
C2    C     C_R   0.072610 0.892299 0.263774 0.248360
C3    C     C_R   0.159798 0.944305 0.257129 -0.032922
C4    C     C_R   0.359460 0.220096 0.360041 0.531805
C5    C     C_R   0.216621 0.053596 0.313027 -0.091187
C6    C     C_R   0.300654 0.107557 0.303907 0.026653
C7    C     C_R   0.329766 0.054534 0.241462 0.100512
C8    C     C_R   0.274708 0.946684 0.186308 0.063044
C9    C     C_R   0.191265 0.891828 0.195266 0.015567
C10   C     C_R   0.844810 0.638470 0.437132 -0.085682
C11   C     C_R   0.930538 0.668398 0.474091 0.245412
C12   C     C_3   0.817811 0.594065 0.814434 0.061625
C13   C     C_R   0.967868 0.624294 0.417957 -0.031122
C14   C     C_R   0.922849 0.554976 0.325517 0.265772
C15   C     C_R   0.840751 0.534020 0.287608 -0.003114
C16   C     C_R   0.359843 0.499294 0.639598 0.538834
C17   C     C_R   0.794461 0.561203 0.344544 -0.089318
C18   C     C_R   0.700338 0.510109 0.306106 0.043941
C19   C     C_R   0.660986 0.453905 0.212586 0.258073
C20   C     C_R   0.714875 0.450344 0.159710 -0.128302
C21   C     C_R   0.803946 0.489261 0.195896 -0.010672
C22   C     C_R   0.798599 0.901126 0.804202 0.102472
C23   C     C_3   0.718337 0.551666 0.804042 0.089736
C24   C     C_R   0.885667 0.958867 0.863130 0.315531
C25   C     C_R   0.934667 0.066550 0.919584 0.291072
C26   C     C_R   0.895142 0.112495 0.913533 0.082317
C27   C     C_R   0.824496 0.057690 0.833861 -0.098296
C28   C     C_R   0.641110 0.504019 0.360367 0.538983
C29   C     C_R   0.772990 0.948548 0.778284 -0.109507
C30   C     C_R   0.697006 0.892485 0.702285 -0.003190
C31   C     C_R   0.673981 0.944928 0.682464 0.273060
C32   C     C_R   0.725108 0.052108 0.737530 0.274892
C33   C     C_R   0.801450 0.108362 0.811149 0.006376
C34   C     C_3   0.700399 0.452262 0.786559 0.257474
C35   C     C_R   0.444978 0.626554 0.296497 -0.099427
C36   C     C_R   0.487128 0.689965 0.267920 0.060548
C37   C     C_R   0.436799 0.699924 0.221217 -0.073113
C38   C     C_R   0.343341 0.645631 0.201510 0.263726
C39   C     C_R   0.298317 0.573653 0.223493 0.014943
C40   C     C_R   0.358184 0.498686 0.358426 0.555692
C41   C     C_R   0.350563 0.567535 0.274463 -0.081467
C42   C     C_R   0.306853 0.500877 0.301036 0.055608
C43   C     C_R   0.213239 0.432843 0.270291 0.259642
C44   C     C_R   0.162087 0.439370 0.221219 -0.131015
C45   C     C_3   0.677243 0.401047 0.685007 0.069444
C46   C     C_R   0.203294 0.507992 0.197726 -0.002314
C47   C     C_R   0.182133 0.449829 0.574056 0.084521
C48   C     C_R   0.116798 0.464111 0.558719 0.128064
C49   C     C_R   0.069981 0.477922 0.617939 0.296223
C50   C     C_R   0.082410 0.466551 0.686423 0.272800
C51   C     C_R   0.163022 0.480095 0.716337 -0.110016
C52   C     C_R   0.641455 0.501767 0.643602 0.565496
C53   C     C_R   0.215584 0.474813 0.659755 -0.111893
C54   C     C_R   0.297605 0.491256 0.689345 -0.008303
C55   C     C_R   0.323703 0.505449 0.770494 0.263071
C56   C     C_3   0.696950 0.501321 0.702003 -0.014248
C57   C     C_R   0.270589 0.506694 0.824339 0.259769
C58   C     C_R   0.190878 0.494981 0.798487 -0.016575
C59   C     C_R   0.859949 0.495701 0.139882 0.560187
C60   C     C_R   0.139015 0.499283 0.859152 0.560270
C61   C     C_R   0.139094 0.779784 0.139851 0.547641
C62   C     C_R   0.859368 0.220180 0.860170 0.537100
C63   C     C_R   0.143482 0.502783 0.141388 0.587189
C64   C     C_3   0.796166 0.544198 0.712386 -0.137116
C65   C     C_R   0.857918 0.497440 0.856253 0.551192
C66   C     C_3   0.777105 0.444477 0.696496 0.054717
C67   C     C_R   0.187566 0.107222 0.375983 -0.122082
C68   C     C_3   0.799336 0.495090 0.798046 0.039151
C69   C     C_3   0.957053 0.766883 0.131181 -0.067849
C70   C     C_3   0.521862 0.305972 0.114343 -0.070141
C71   C     C_3   0.928828 0.712606 0.615059 -0.111980
C72   C     C_3   0.910445 0.406096 0.261599 -0.088728
C73   C     C_3   0.619178 0.860017 0.530639 -0.083027
C74   C     C_3   0.990009 0.924698 0.846529 -0.068370
C75   C     C_3   0.085053 0.193385 0.982119 -0.132645
C76   C     C_3   0.735729 0.125469 0.663374 -0.064916
C77   C     C_3   0.130134 0.262811 0.216229 -0.060960
C78   C     C_R   0.107086 0.055417 0.388947 0.257786
C79   C     C_3   0.313622 0.759097 0.224827 -0.097248
C80   C     C_3   0.477232 0.619324 0.835217 -0.066068
C81   C     C_3   0.027782 0.585923 0.667635 -0.057147
C82   C     C_3   0.967052 0.333082 0.683422 -0.076854
C83   C     C_3   0.344718 0.622475 0.975227 -0.047300
C84   C     C_3   0.563099 0.359777 0.800410 -0.050401
C85   C     C_3   0.139063 0.168595 0.538100 -0.080200
C86   C     C_R   0.049447 0.948080 0.332150 0.161825
H1    H     H_    0.821633 0.680931 0.481325 0.170893
H2    H     H_    0.916623 0.797960 0.151705 0.168130
H3    H     H_    0.909686 0.682090 0.081166 0.147637
H4    H     H_    0.531996 0.270621 0.144624 0.149785
H5    H     H_    0.537505 0.283010 0.051351 0.116684
H6    H     H_    0.449537 0.274325 0.096499 0.159192
H7    H     H_    0.885648 0.627590 0.581746 0.122073
H8    H     H_    0.887110 0.742265 0.629185 0.145601
H9    H     H_    0.975899 0.748139 0.679918 0.124545
H10   H     H_    0.948390 0.372714 0.237022 0.181245
H11   H     H_    0.905649 0.412536 0.325003 0.146264
H12   H     H_    0.031661 0.642448 0.446327 0.168995
H13   H     H_    0.842181 0.352309 0.210428 0.137040
H14   H     H_    0.606960 0.784008 0.501115 0.122263
H15   H     H_    0.689292 0.916649 0.539531 0.101868
H16   H     H_    0.573158 0.850240 0.481390 0.166213
H17   H     H_    0.053172 0.997688 0.901362 0.162649
H18   H     H_    0.983286 0.923483 0.785198 0.082656
H19   H     H_    0.996046 0.861789 0.829674 0.153793
H20   H     H_    0.080015 0.255420 0.993141 0.179149
H21   H     H_    0.091991 0.154623 0.915594 0.105662
H22   H     H_    0.147490 0.230511 0.033960 0.133380
H23   H     H_    0.686789 0.417881 0.089982 0.163693
H24   H     H_    0.747453 0.198602 0.681530 0.169122
H25   H     H_    0.687754 0.064522 0.593596 0.161004
H26   H     H_    0.801482 0.136108 0.666600 0.050496
H27   H     H_    0.177748 0.254774 0.181205 0.119878
H28   H     H_    0.069996 0.237958 0.170005 0.180991
H29   H     H_    0.106618 0.209804 0.237091 0.180592
H30   H     H_    0.272346 0.770402 0.193525 0.164995
H31   H     H_    0.293928 0.761237 0.282932 0.144377
H32   H     H_    0.385074 0.824186 0.247852 0.136932
H33   H     H_    0.515384 0.653850 0.904226 0.177714
H34   H     H_    0.836279 0.583377 0.682406 0.133307
H35   H     H_    0.461678 0.672260 0.838983 0.086102
H36   H     H_    0.521273 0.616146 0.794441 0.168871
H37   H     H_    0.093265 0.647054 0.673134 0.117064
H38   H     H_    0.030405 0.597121 0.733445 0.178279
H39   H     H_    0.976184 0.594568 0.649695 0.137894
H40   H     H_    0.011224 0.314545 0.699714 0.099335
H41   H     H_    0.934560 0.284801 0.609433 0.164102
H42   H     H_    0.913795 0.312163 0.712832 0.118391
H43   H     H_    0.394264 0.676118 0.960392 0.103264
H44   H     H_    0.297613 0.642907 0.997119 0.158898
H45   H     H_    0.486616 0.622081 0.333998 0.130725
H46   H     H_    0.382964 0.634508 0.032118 0.175304
H47   H     H_    0.527196 0.275649 0.749585 0.162285
H48   H     H_    0.544402 0.392176 0.772369 0.148897
H49   H     H_    0.539070 0.370293 0.857909 0.161464
H50   H     H_    0.203986 0.236519 0.551262 0.139306
H51   H     H_    0.150612 0.121538 0.551209 0.130806
H52   H     H_    0.108747 0.198596 0.586498 0.149689
H53   H     H_    0.470454 0.751243 0.200974 0.142518
H54   H     H_    0.089560 0.390151 0.201066 0.151931
H55   H     H_    0.226602 0.190118 0.415893 0.161916
H56   H     H_    0.999945 0.799147 0.097942 0.143941
I1    I     I_    0.807717 0.347436 0.600182 -0.277783
I2    I     I_    0.676366 0.631750 0.903367 -0.270802
I3    I     I_    0.564920 0.247096 0.578749 -0.279498
I4    I     I_    0.461842 0.138981 0.236532 -0.284534
I5    I     I_    0.925776 0.869115 0.350225 -0.223908
I6    I     I_    0.319943 0.866601 0.090039 -0.346241
I7    I     I_    0.704400 0.765065 0.795178 -0.259924
I8    I     I_    0.915455 0.238148 0.038095 -0.361582
I9    I     I_    0.627343 0.771098 0.295462 -0.339784
I10   I     I_    0.930927 0.747931 0.915105 -0.320542
I11   I     I_    0.200488 0.355447 0.458276 -0.250160
I12   I     I_    0.082425 0.460000 0.444579 -0.237009
O1    O     O_3   0.500000 0.500000 0.500000 -0.465147
O2    O     O_R   0.945270 0.268330 0.884560 -0.555205
O3    O     O_R   0.117250 0.560610 0.177960 -0.503082
O4    O     O_R   0.676930 0.731590 0.616180 -0.549027
O5    O     O_R   0.821970 0.439270 0.882700 -0.498914
O6    O     O_R   0.117250 0.439170 0.056520 -0.528146
O7    O     O_R   0.943420 0.560710 0.882700 -0.517768
O8    O     O_R   0.115410 0.731560 0.054670 -0.519760
O9    O     O_R   0.823040 0.268350 0.883790 -0.487212
O10   O     O_R   0.945270 0.560650 0.176870 -0.457753
O11   O     O_R   0.116170 0.439210 0.884560 -0.514737
O12   O     O_R   0.384570 0.439270 0.616180 -0.518973
O13   O     O_R   0.384570 0.268390 0.445310 -0.535129
O14   O     O_R   0.383800 0.560730 0.615410 -0.520907
O15   O     O_R   0.554710 0.439290 0.323100 -0.483777
O16   O     O_R   0.382720 0.560770 0.443450 -0.507185
O17   O     O_R   0.678010 0.560670 0.617270 -0.529231
O18   O     O_R   0.382720 0.439330 0.322010 -0.547012
O19   O     O_R   0.556550 0.439230 0.617270 -0.513294
O20   O     O_3   0.008950 0.786920 0.204815 -0.546401
O21   O     O_3   0.572715 0.414384 0.174938 -0.530950
O22   O     O_3   0.979867 0.741206 0.564839 -0.561163
O23   O     O_R   0.676930 0.560710 0.445310 -0.581344
O24   O     O_3   0.956769 0.502619 0.274548 -0.545053
O25   O     O_3   0.598952 0.892117 0.610580 -0.509737
O26   O     O_3   0.915441 0.908707 0.875438 -0.486725
O27   O     O_3   0.011177 0.122257 0.990817 -0.556888
O28   O     O_3   0.697181 0.102089 0.721923 -0.502407
O29   O     O_3   0.172267 0.364268 0.293309 -0.529730
O30   O     O_3   0.296916 0.663112 0.160234 -0.597478
O31   O     O_3   0.401765 0.517365 0.798270 -0.523303
O32   O     O_3   0.002455 0.486365 0.599833 -0.503774
O33   O     O_3   0.013702 0.439133 0.720241 -0.526417
O34   O     O_R   0.554710 0.731610 0.615410 -0.492575
O35   O     O_3   0.297103 0.517646 0.902356 -0.518430
O36   O     O_3   0.656236 0.406901 0.830611 -0.523144
O37   O     O_3   0.079177 0.109024 0.450491 -0.525516
O38   O     O_R   0.383800 0.268410 0.323100 -0.518941
O39   O     O_3   0.999970 0.499940 0.999970 -0.476421
O40   O     O_R   0.823040 0.439240 0.054670 -0.550558
O41   O     O_R   0.115410 0.560680 0.883790 -0.494944
O42   O     O_R   0.116170 0.731530 0.176870 -0.507778
Zn1   Zn    Zn3+2 0.457160 0.413230 0.543930 0.985726
Zn2   Zn    Zn3+2 0.456070 0.586770 0.542830 0.997341
Zn3   Zn    Zn3+2 0.456070 0.413260 0.369320 0.984274
Zn4   Zn    Zn3+2 0.630700 0.586740 0.543930 0.938429
Zn5   Zn    Zn3+2 0.042810 0.586720 0.956040 0.992672
Zn6   Zn    Zn3+2 0.043900 0.586680 0.130650 1.028952
Zn7   Zn    Zn3+2 0.043900 0.413170 0.957150 0.967245
Zn8   Zn    Zn3+2 0.869280 0.413210 0.956040 1.002830

loop_
_geom_bond_atom_site_label_1
_geom_bond_atom_site_label_2
_ccdc_geom_bond_type
C73   H14   S    
C66   C68   S    
C84   H49   S    
C75   H21   S    
C22   C29   A    
C85   H51   S    
C27   C29   A    
C41   C42   A    
C12   I10   S    
C35   C36   A    
C72   O24   S    
C65   O5    A    
C86   I5    S    
O6    Zn7   S    
C40   O16   A    
C57   C58   A    
C38   O30   S    
C23   C56   S    
C39   C41   A    
C71   H8    S    
C70   H4    S    
C53   C54   A    
C27   C33   A    
C12   C68   S    
C12   C23   S    
C84   H48   S    
C26   C27   A    
C29   C30   A    
O39   Zn8   S    
O14   Zn2   S    
C81   H37   S    
C9    C61   S    
C32   O28   S    
C36   C37   A    
C21   C59   S    
C30   C31   A    
C12   C64   S    
C72   H10   S    
C76   O28   S    
C71   H9    S    
C10   C17   A    
C58   C60   S    
C79   H32   S    
O39   Zn5   S    
C71   O22   S    
O18   Zn3   S    
C18   C19   A    
O38   Zn3   S    
C43   O29   S    
C13   H12   S    
C62   O9    A    
C4    O38   A    
C82   H40   S    
C59   O10   A    
C49   O32   S    
C70   H5    S    
C45   C56   S    
C44   C46   A    
C8    C9    A    
O23   Zn4   S    
C24   O26   S    
O4    Zn4   S    
C80   O31   S    
C56   C64   S    
C84   O36   S    
O34   Zn2   S    
C70   O21   S    
O1    Zn1   S    
C5    C67   A    
C47   C53   A    
C7    I4    S    
C78   C86   A    
C40   C42   S    
C22   I7    S    
C75   H22   S    
C44   H54   S    
C13   C14   A    
C8    I6    S    
C67   C78   A    
C63   O6    A    
C69   H3    S    
C50   O33   S    
C52   O17   A    
C25   O27   S    
C50   C51   A    
C16   C54   S    
C72   H11   S    
C59   O40   A    
C38   C39   A    
C10   H1    S    
C84   H47   S    
C81   H38   S    
O19   Zn1   S    
O9    Zn8   S    
C26   I8    S    
C18   C28   S    
C24   C25   A    
C83   H44   S    
C4    C6    S    
C16   O12   A    
C51   C58   A    
C33   C62   S    
C80   H36   S    
C66   I1    S    
O8    Zn5   S    
O16   Zn2   S    
C69   H56   S    
O39   Zn6   S    
C61   O8    A    
C31   O25   S    
C51   C53   A    
C79   O30   S    
C43   C44   A    
C57   O35   S    
C37   C38   A    
C3    C9    A    
C47   C48   A    
C34   O36   S    
C76   H26   S    
C65   C68   S    
O40   Zn8   S    
C17   C18   A    
O13   Zn1   S    
C34   C45   S    
O1    Zn2   S    
C61   O42   A    
C82   H42   S    
C14   O24   S    
C69   H2    S    
O10   Zn6   S    
C39   C46   A    
O41   Zn5   S    
C48   C49   A    
C77   H27   S    
C80   H35   S    
C55   C57   A    
C37   H53   S    
C45   I3    S    
C23   I2    S    
O17   Zn4   S    
C69   O20   S    
C63   O3    A    
C34   C68   S    
C77   H28   S    
C67   H55   S    
C35   H45   S    
C81   O32   S    
C40   O18   A    
O1    Zn3   S    
C74   H18   S    
C28   O23   A    
C1    O34   A    
O7    Zn5   S    
C15   C17   A    
C48   I12   S    
C54   C55   A    
C73   H16   S    
C23   C34   S    
C81   H39   S    
C83   O35   S    
C31   C32   A    
C70   H6    S    
C78   O37   S    
C3    C5    A    
C64   H34   S    
C36   I9    S    
C83   H43   S    
C6    C7    A    
C71   H7    S    
C85   O37   S    
C47   I11   S    
C82   O33   S    
C60   O11   A    
O39   Zn7   S    
C4    O13   A    
O15   Zn3   S    
C46   C63   S    
C32   C33   A    
C19   C20   A    
C2    C3    A    
C25   C26   A    
O12   Zn1   S    
C83   H46   S    
C77   H29   S    
C2    O20   S    
C74   H19   S    
C11   C13   A    
C1    O4    A    
O5    Zn8   S    
C5    C6    A    
C16   O14   A    
C76   H25   S    
C11   O22   S    
C79   H31   S    
C73   H15   S    
C1    C30   S    
C77   O29   S    
C62   O2    A    
C2    C86   A    
C22   C24   A    
C55   O31   S    
O11   Zn7   S    
C35   C41   A    
C19   O21   S    
C82   H41   S    
C80   H33   S    
C7    C8    A    
C10   C11   A    
C85   H50   S    
C20   H23   S    
C73   O25   S    
C28   O15   A    
C15   C21   A    
C74   O26   S    
C20   C21   A    
C75   H20   S    
C76   H24   S    
C49   C50   A    
C42   C43   A    
C65   O7    A    
C45   C66   S    
C14   C15   A    
O3    Zn6   S    
C85   H52   S    
C79   H30   S    
O2    Zn7   S    
O42   Zn6   S    
C52   O19   A    
O1    Zn4   S    
C52   C56   S    
C60   O41   A    
C64   C66   S    
C74   H17   S    
C72   H13   S    
C75   O27   S    
