data_mof_unit_66764.cif
_audit_creation_date              2012-12-11T14:19:33-0500
_audit_creation_method            fapswitch 2.2
_symmetry_space_group_name_H-M    P1
_symmetry_Int_Tables_number       1
_space_group_crystal_system       triclinic
_cell_length_a                    8.236279
_cell_length_b                    12.764877
_cell_length_c                    15.114841
_cell_angle_alpha                 96.176817
_cell_angle_beta                  99.234001
_cell_angle_gamma                 97.28032
_cell_volume                      1542.52298388

loop_
_atom_site_label
_atom_site_type_symbol
_atom_type_description
_atom_site_fract_x
_atom_site_fract_y
_atom_site_fract_z
_atom_type_partial_charge
Ba1   Ba    Ba6+2 0.153570 0.551840 0.456200 1.683199
Ba2   Ba    Ba6+2 0.656590 0.448150 0.543720 1.686809
C1    C     C_3   0.339236 0.808628 0.114594 -0.330018
C2    C     C_R   0.709159 0.824045 0.493092 -0.119919
C3    C     C_R   0.700263 0.987733 0.424291 0.071032
C4    C     C_3   0.881058 0.831139 0.218039 0.329774
C5    C     C_R   0.621826 0.887377 0.437786 0.010313
C6    C     C_R   0.880084 0.855164 0.527523 0.064397
C7    C     C_R   0.949995 0.966009 0.530336 -0.122361
C8    C     C_R   0.855193 0.034610 0.478894 -0.063310
C9    C     C_R   0.919035 0.147262 0.485399 0.093097
C10   C     C_R   0.175454 0.117443 0.577082 0.007525
C11   C     C_R   0.109673 0.012230 0.581536 0.313957
C12   C     C_3   0.368831 0.777999 0.209767 0.331744
C13   C     C_R   0.232019 0.444111 0.766099 -0.304630
C14   C     C_R   0.128267 0.420690 0.827782 -0.018595
C15   C     C_R   0.189365 0.443473 0.921229 -0.047735
C16   C     C_3   0.816729 0.892624 0.142193 -0.355401
C17   C     C_R   0.358899 0.485271 0.954322 0.057100
C18   C     C_R   0.459741 0.508682 0.889071 -0.079529
C19   C     C_R   0.394340 0.492910 0.796402 0.050158
C20   C     C_R   0.589068 0.565917 0.087818 -0.134946
C21   C     C_R   0.658343 0.579243 0.179650 -0.006566
C22   C     C_R   0.409298 0.482282 0.212842 0.046955
C23   C     C_3   0.570312 0.781951 0.726425 0.295475
C24   C     C_R   0.341248 0.464289 0.119869 -0.083800
C25   C     C_R   0.428615 0.507221 0.054992 0.029396
C26   C     C_R   0.565430 0.542512 0.242215 -0.295366
C27   C     C_3   0.720319 0.316832 0.274850 0.221512
C28   C     C_3   0.644944 0.286341 0.174690 -0.076088
C29   C     C_3   0.086239 0.677713 0.725076 0.359396
C30   C     C_3   0.138713 0.706868 0.827242 0.212303
C31   C     C_3   0.168182 0.222320 0.314967 0.400354
C32   C     C_3   0.084171 0.116334 0.260625 -0.321507
C33   C     C_3   0.588766 0.890185 0.781659 -0.322142
C34   C     C_3   0.982312 0.191253 0.853331 0.650862
C35   C     C_3   0.971859 0.072157 0.826887 -0.249236
C36   C     C_3   0.440873 0.197944 0.788372 0.369105
C37   C     C_3   0.473953 0.148543 0.875565 0.192840
C38   C     C_R   0.074530 0.185353 0.537929 -0.302134
Cl1   Cl    Cl    0.964021 0.728866 0.879088 -0.704025
Cl2   Cl    Cl    0.970670 0.216279 0.970200 -0.700439
Cl3   Cl    Cl    0.416409 0.228306 0.965770 -0.724271
Cl4   Cl    Cl    0.222454 0.955359 0.667794 -0.744998
H1    H     H_    0.280133 0.705353 0.211698 0.098701
H2    H     H_    0.026317 0.128871 0.191972 0.134094
H3    H     H_    0.986983 0.079112 0.295257 0.061591
H4    H     H_    0.176548 0.061073 0.253263 0.135832
H5    H     H_    0.497999 0.760415 0.224960 -0.062412
H6    H     H_    0.360500 0.742747 0.065497 0.075659
H7    H     H_    0.695901 0.767816 0.714956 0.058012
H8    H     H_    0.481001 0.782501 0.663690 0.040952
H9    H     H_    0.675032 0.891182 0.846251 0.144012
H10   H     H_    0.635906 0.952832 0.742766 0.114184
H11   H     H_    0.467056 0.905452 0.798290 0.162060
H12   H     H_    0.521324 0.236895 0.167897 0.170324
H13   H     H_    0.425803 0.881413 0.110631 0.114956
H14   H     H_    0.719443 0.839818 0.091797 0.124465
H15   H     H_    0.105393 0.226837 0.843086 -0.013379
H16   H     H_    0.951415 0.052662 0.752178 0.086477
H17   H     H_    0.088636 0.044436 0.856491 0.143078
H18   H     H_    0.868703 0.030191 0.853590 0.122005
H19   H     H_    0.306137 0.202379 0.772035 -0.078102
H20   H     H_    0.511982 0.279500 0.798209 0.082038
H21   H     H_    0.399878 0.068161 0.867250 0.077956
H22   H     H_    0.978140 0.884535 0.267967 0.063910
H23   H     H_    0.627242 0.358995 0.143017 0.100437
H24   H     H_    0.607788 0.141339 0.893007 0.139443
H25   H     H_    0.123841 0.268857 0.542763 0.064933
H26   H     H_    0.665949 0.599925 0.043904 0.097790
H27   H     H_    0.102356 0.430302 0.966458 0.121566
H28   H     H_    0.223946 0.412535 0.099463 0.133689
H29   H     H_    0.587127 0.545890 0.907972 0.116765
H30   H     H_    0.620761 0.552647 0.313110 0.083975
H31   H     H_    0.777465 0.806634 0.253810 -0.080545
H32   H     H_    0.182388 0.433423 0.694433 0.056257
H33   H     H_    0.762687 0.961730 0.169431 0.061768
H34   H     H_    0.191748 0.652893 0.695708 -0.057784
H35   H     H_    0.920124 0.922108 0.108099 0.158072
H36   H     H_    0.628796 0.352819 0.309828 0.014665
H37   H     H_    0.833592 0.376182 0.281418 0.056932
H38   H     H_    0.873631 0.267777 0.143086 0.224033
H39   H     H_    0.748705 0.151928 0.145379 0.210662
H40   H     H_    0.360784 0.164145 0.384694 0.206602
H41   H     H_    0.312352 0.273958 0.438989 0.196335
H42   H     H_    0.505462 0.043154 0.355586 0.198017
H43   H     H_    0.628160 0.988082 0.290741 0.158358
H44   H     H_    0.675633 0.707820 0.574456 0.140346
H45   H     H_    0.981753 0.610822 0.710763 0.051010
H46   H     H_    0.508561 0.740796 0.527393 0.191219
H47   H     H_    0.231795 0.780243 0.842639 0.104394
H48   H     H_    0.195987 0.642431 0.857297 -0.025901
H49   H     H_    0.069823 0.269691 0.328864 0.052450
H50   H     H_    0.209397 0.824438 0.096279 0.181721
N1    N     N_3   0.751559 0.228068 0.125761 -0.391380
N2    N     N_3   0.262062 0.201653 0.399420 -0.530960
N3    N     N_3   0.628379 0.037443 0.350459 -0.448930
N4    N     N_3   0.622810 0.725844 0.512135 -0.437003
O1    O     O_2   0.168170 0.764170 0.543850 -0.424882
O2    O     O_2   0.786096 0.425841 0.819552 -0.453782
O3    O     O_3   0.850089 0.229197 0.800822 -0.593051
O4    O     O_3   0.898670 0.629780 0.545890 -0.496368
O5    O     O_3   0.409490 0.443300 0.392340 -0.489686
O6    O     O_2   0.674250 0.555830 0.719690 -0.437426
O7    O     O_3   0.505260 0.707104 0.776465 -0.642433
O8    O     O_2   0.501200 0.116487 0.548587 -0.451100
O9    O     O_3   0.492402 0.134682 0.719442 -0.567864
O10   O     O_3   0.365980 0.695510 0.380810 -0.477670
O11   O     O_2   0.278352 0.881197 0.434542 -0.462820
O12   O     O_3   0.275833 0.273153 0.264710 -0.628077
O13   O     O_3   0.038888 0.768000 0.689477 -0.575800
O14   O     O_3   0.343383 0.862449 0.271224 -0.614896
O15   O     O_2   0.136040 0.444100 0.280280 -0.480350
O16   O     O_3   0.934510 0.640480 0.335500 -0.484585
O17   O     O_2   0.981770 0.547075 0.177015 -0.470260
O18   O     O_3   0.954071 0.746827 0.180808 -0.575562
O19   O     O_2   0.642110 0.235770 0.456130 -0.446796
O20   O     O_3   0.911620 0.370210 0.454030 -0.511019
O21   O     O_3   0.444310 0.304480 0.619110 -0.501365
O22   O     O_3   0.759547 0.225135 0.311227 -0.629387
O23   O     O_3   0.400800 0.556680 0.607590 -0.493275
O24   O     O_3   0.875770 0.359510 0.664420 -0.478718
P1    P     P_3+3 0.998660 0.747790 0.570900 1.067064
P2    P     P_3+3 0.306970 0.411860 0.294270 0.977698
P3    P     P_3+3 0.880409 0.627733 0.217859 0.978665
P4    P     P_3+3 0.811620 0.252200 0.429030 1.000745
P5    P     P_3+3 0.911487 0.360665 0.781805 1.011418
P6    P     P_3+3 0.403490 0.833587 0.381511 0.966471
P7    P     P_3+3 0.491979 0.576867 0.723048 0.971757
P8    P     P_3+3 0.400925 0.167275 0.615381 1.037711

loop_
_geom_bond_atom_site_label_1
_geom_bond_atom_site_label_2
_ccdc_geom_bond_type
C2    N4    S    
C33   H9    S    
O2    P5    D    
C24   H28   S    
C37   H24   S    
C34   Cl2   S    
C17   C18   A    
C2    C6    A    
C34   H15   S    
C26   H30   S    
Ba1   O1    S    
Ba1   P1    S    
C35   H18   S    
Ba2   O20   S    
C23   O7    S    
C4    H31   S    
C30   H48   S    
C12   O14   S    
C27   H36   S    
C24   C25   A    
C28   N1    S    
C10   P8    S    
C34   C35   S    
C22   C24   A    
O9    P8    S    
C36   C37   S    
H41   N2    S    
O22   P4    S    
C30   H47   S    
Ba2   O4    S    
C13   C14   A    
C22   P2    S    
O21   P8    S    
Ba1   Ba2   S    
H40   N2    S    
O24   P5    S    
H42   N3    S    
C7    C11   A    
O12   P2    S    
C16   H14   S    
C6    C7    A    
C29   H45   S    
C30   Cl1   S    
C32   H2    S    
C5    P6    S    
C17   C25   S    
O19   P4    D    
Ba1   O5    S    
C28   H23   S    
C21   P3    S    
C13   H32   S    
C33   H10   S    
C37   H21   S    
C9    C38   A    
Ba1   O15   S    
C2    C5    A    
O5    P2    S    
C1    H6    S    
C12   H1    S    
C36   H20   S    
Ba2   O24   S    
C4    C16   S    
C27   O22   S    
C38   H25   S    
O13   P1    S    
C9    P4    S    
C3    C5    A    
O16   P3    S    
C16   H35   S    
O7    P7    S    
C28   H12   S    
C33   H11   S    
C34   O3    S    
C10   C38   A    
C23   H7    S    
C27   H37   S    
C27   C28   S    
O3    P5    S    
C36   O9    S    
Ba1   P2    S    
C4    O18   S    
O11   P6    D    
C35   H17   S    
C29   C30   S    
Ba2   O6    S    
H39   N1    S    
C18   C19   A    
C31   C32   S    
C21   C26   A    
O10   P6    S    
C19   P7    S    
C1    C12   S    
C23   C33   S    
Ba2   P4    S    
C3    N3    S    
C15   H27   S    
O18   P3    S    
C13   C19   A    
C32   H4    S    
Ba1   O16   S    
O4    P1    S    
C31   N2    S    
C1    H13   S    
C29   H34   S    
O1    P1    D    
C36   H19   S    
C7    C8    A    
Ba2   O23   S    
O8    P8    D    
H38   N1    S    
C22   C26   A    
O23   P7    S    
C31   H49   S    
C37   Cl3   S    
Ba2   O21   S    
C6    P1    S    
C32   H3    S    
Ba2   O19   S    
O17   P3    D    
C20   C25   A    
C23   H8    S    
C3    C8    A    
C14   C15   A    
O15   P2    D    
Ba2   O5    S    
C16   H33   S    
C15   C17   A    
C20   H26   S    
C18   H29   S    
C1    H50   S    
Ba1   O20   S    
O6    P7    D    
C14   P5    S    
Ba1   O23   S    
O14   P6    S    
C35   H16   S    
C8    C9    A    
Ba1   O10   S    
C12   H5    S    
C4    H22   S    
C10   C11   A    
C29   O13   S    
C20   C21   A    
C31   O12   S    
O20   P4    S    
Ba1   O4    S    
H46   N4    S    
C11   Cl4   S    
H44   N4    S    
H43   N3    S    
