data_mof_unit_36387.cif
_audit_creation_date              2012-12-10T17:51:25-0500
_audit_creation_method            fapswitch 2.2
_symmetry_space_group_name_H-M    P1
_symmetry_Int_Tables_number       1
_space_group_crystal_system       triclinic
_cell_length_a                    9.931741
_cell_length_b                    10.624213
_cell_length_c                    16.538016
_cell_angle_alpha                 92.078165
_cell_angle_beta                  85.64699
_cell_angle_gamma                 90.380159
_cell_volume                      1738.84922525

loop_
_atom_site_label
_atom_site_type_symbol
_atom_type_description
_atom_site_fract_x
_atom_site_fract_y
_atom_site_fract_z
_atom_type_partial_charge
C1    C     C_R   0.500587 0.739253 0.498133 0.839546
C2    C     C_R   0.348365 0.562304 0.782365 -0.212373
C3    C     C_R   0.439500 0.690625 0.168420 -0.216686
C4    C     C_R   0.425858 0.632497 0.242224 -0.141779
C5    C     C_R   0.647443 0.538247 0.214572 -0.205936
C6    C     C_R   0.659801 0.594519 0.139664 -0.172181
C7    C     C_R   0.554643 0.668778 0.115828 0.038999
C8    C     C_2   0.452718 0.637089 0.991212 -0.320006
C9    C     C_2   0.551231 0.696024 0.029516 0.426287
C10   C     C_R   0.528608 0.554105 0.265114 -0.033717
C11   C     C_R   0.635824 0.861995 0.360140 -0.162096
C12   C     C_R   0.481712 0.502962 0.653762 0.842335
C13   C     C_R   0.698464 0.924327 0.294602 -0.125799
C14   C     C_R   0.696549 0.055258 0.293990 -0.134791
C15   C     C_R   0.631947 0.124255 0.358907 -0.158530
C16   C     C_R   0.568328 0.062345 0.425987 0.100975
C17   C     C_R   0.569905 0.930454 0.426510 0.089319
C18   C     C_R   0.501619 0.871328 0.492883 -0.084129
C19   C     C_R   0.429449 0.938452 0.555436 -0.205700
C20   C     C_R   0.428466 0.067049 0.555089 -0.187286
C21   C     C_R   0.499445 0.128004 0.492117 -0.086720
C22   C     C_R   0.847906 0.665797 0.606564 -0.133584
C23   C     C_R   0.499903 0.260601 0.497676 0.887181
C24   C     C_R   0.911934 0.746864 0.659485 -0.181745
C25   C     C_R   0.051311 0.746628 0.659646 -0.201122
C26   C     C_R   0.127550 0.665347 0.606882 -0.140007
C27   C     C_R   0.066256 0.581595 0.552562 0.111057
C28   C     C_R   0.921770 0.581668 0.552476 0.149498
C29   C     C_R   0.933538 0.421985 0.449847 -0.153639
C30   C     C_R   0.076199 0.421630 0.449642 0.306486
C31   C     C_R   0.518293 0.506897 0.346839 0.841267
C32   C     C_R   0.471923 0.526378 0.741424 -0.035134
C33   C     C_R   0.589341 0.525959 0.783376 -0.247110
C34   C     C_R   0.584178 0.564484 0.864476 -0.080255
C35   C     C_R   0.461966 0.606141 0.904285 0.230549
C36   C     C_R   0.343546 0.601561 0.863627 -0.191935
H1    H     H_    0.685561 0.497106 0.753417 0.165797
H2    H     H_    0.748023 0.575014 0.098596 0.146206
H3    H     H_    0.376047 0.891010 0.605357 0.137795
H4    H     H_    0.638270 0.760398 0.357691 0.154702
H5    H     H_    0.747749 0.870810 0.243920 0.133871
H6    H     H_    0.744377 0.103490 0.242805 0.135965
H7    H     H_    0.630459 0.225677 0.355305 0.139171
H8    H     H_    0.374756 0.119468 0.604879 0.149188
H9    H     H_    0.883751 0.358325 0.409009 0.172036
H10   H     H_    0.740694 0.671842 0.609870 0.201697
H11   H     H_    0.852856 0.810306 0.700611 0.155805
H12   H     H_    0.335500 0.650322 0.281799 0.165189
H13   H     H_    0.100893 0.809829 0.700917 0.146091
H14   H     H_    0.233918 0.670671 0.610667 0.194488
H15   H     H_    0.729142 0.480814 0.232401 0.151390
H16   H     H_    0.247726 0.629176 0.894696 0.135491
H17   H     H_    0.357323 0.747135 0.150220 0.136971
H18   H     H_    0.256244 0.563029 0.751342 0.160174
H19   H     H_    0.366967 0.596404 0.026160 0.129657
H20   H     H_    0.675219 0.558943 0.896210 0.166994
N1    N     N_R   0.857140 0.501200 0.500750 -0.136670
N2    N     N_R   0.142740 0.501280 0.500770 -0.144012
O1    O     O_R   0.385310 0.683220 0.500000 -0.629950
O2    O     O_R   0.614640 0.683250 0.500010 -0.636478
O3    O     O_R   0.371780 0.500010 0.615800 -0.637905
O4    O     O_R   0.601110 0.500030 0.615800 -0.630166
O5    O     O_R   0.385360 0.316750 0.499990 -0.561734
O6    O     O_R   0.614690 0.316780 0.500000 -0.618030
O7    O     O_R   0.398890 0.499970 0.384200 -0.569236
O8    O     O_R   0.628220 0.499990 0.384200 -0.629887
Zn1   Zn    Zn3+2 0.346870 0.499980 0.499990 0.975562
Zn2   Zn    Zn3+2 0.653130 0.500020 0.500010 0.932832
Br1   Br    Br    0.172178 0.305676 0.375672 -0.503130
O9    O     O_3   0.659162 0.751713 0.985163 -0.617956
C37   C     C_3   0.714150 0.852373 0.030326 0.105218
H21   H     H_    0.774229 0.816093 0.078482 0.139199
H22   H     H_    0.633581 0.916323 0.058302 0.140619
C38   C     C_3   0.808072 0.928818 0.973934 -0.825883
H23   H     H_    0.751030 0.967582 0.925300 0.258642
H24   H     H_    0.852518 0.008021 0.008767 0.205758
H25   H     H_    0.890906 0.868240 0.945857 0.253289

loop_
_geom_bond_atom_site_label_1
_geom_bond_atom_site_label_2
_ccdc_geom_bond_type
C31   O8    A    
O8    Zn2   S    
C34   H20   S    
C16   C21   A    
C11   C13   A    
C35   C36   A    
C13   H5    S    
C28   N1    A    
C1    C18   S    
C38   H24   S    
O6    Zn2   S    
C34   C35   A    
C3    C7    A    
C1    O1    A    
C5    C6    A    
C15   C16   A    
C2    C32   A    
C18   C19   A    
O1    Zn1   S    
C10   C31   S    
C19   C20   A    
C16   C17   A    
O7    Zn1   S    
C38   H25   S    
C6    H2    S    
O9    C37   S    
C36   H16   S    
C14   H6    S    
C23   O5    A    
C22   C28   A    
C13   C14   A    
C12   C32   S    
C8    H19   S    
C20   H8    S    
C33   C34   A    
O5    Zn1   S    
C38   H23   S    
C24   C25   A    
C2    H18   S    
C1    O2    A    
C37   H22   S    
C31   O7    A    
C8    C9    D    
C25   C26   A    
C33   H1    S    
C29   H9    S    
C8    C35   S    
C29   C30   A    
C12   O4    A    
O3    Zn1   S    
C17   C18   A    
C26   C27   A    
C9    O9    S    
C19   H3    S    
C23   O6    A    
C22   H10   S    
C29   N1    A    
C21   C23   S    
C22   C24   A    
N1    Zn2   S    
C4    C10   A    
C3    C4    A    
C30   Br1   S    
C4    H12   S    
C2    C36   A    
C7    C9    S    
C11   C17   A    
C24   H11   S    
C27   N2    A    
C37   C38   S    
C6    C7    A    
O4    Zn2   S    
C32   C33   A    
C26   H14   S    
C15   H7    S    
C37   H21   S    
C12   O3    A    
C3    H17   S    
C30   N2    A    
C11   H4    S    
C25   H13   S    
N2    Zn1   S    
C5    C10   A    
C20   C21   A    
O2    Zn2   S    
C27   C28   A    
C14   C15   A    
C5    H15   S    
