data_mof_unit_66818.cif
_audit_creation_date              2012-12-11T14:27:23-0500
_audit_creation_method            fapswitch 2.2
_symmetry_space_group_name_H-M    P1
_symmetry_Int_Tables_number       1
_space_group_crystal_system       triclinic
_cell_length_a                    8.642839
_cell_length_b                    15.43416
_cell_length_c                    15.368553
_cell_angle_alpha                 97.882484
_cell_angle_beta                  100.047102
_cell_angle_gamma                 97.963452
_cell_volume                      1971.64027119

loop_
_atom_site_label
_atom_site_type_symbol
_atom_type_description
_atom_site_fract_x
_atom_site_fract_y
_atom_site_fract_z
_atom_type_partial_charge
Ba1   Ba    Ba6+2 0.154720 0.543770 0.458160 1.737370
Ba2   Ba    Ba6+2 0.655440 0.456220 0.541760 1.745693
C1    C     C_3   0.419259 0.798304 0.145180 0.718791
C2    C     C_R   0.885540 0.794273 0.538138 0.007083
C3    C     C_R   0.073105 0.224405 0.514014 -0.300840
C4    C     C_3   0.924471 0.815863 0.261583 0.282950
C5    C     C_R   0.171874 0.169444 0.551360 0.051755
C6    C     C_R   0.108429 0.080817 0.555964 -0.002644
C7    C     C_R   0.942092 0.045946 0.521435 -0.040030
C8    C     C_R   0.843273 0.106919 0.483602 -0.082629
C9    C     C_R   0.869909 0.952238 0.520436 0.040070
C10   C     C_R   0.700345 0.925618 0.494560 -0.055469
C11   C     C_R   0.611696 0.988244 0.464465 -0.080371
C12   C     C_3   0.399600 0.757845 0.232046 0.769878
C13   C     C_R   0.683605 0.069643 0.445996 0.445855
C14   C     C_R   0.958269 0.881832 0.537895 -0.138880
C15   C     C_R   0.720268 0.771516 0.514000 -0.237366
C16   C     C_3   0.940669 0.901226 0.216077 0.176788
C17   C     C_R   0.909014 0.200406 0.480810 0.063430
C18   C     C_R   0.233852 0.475168 0.772526 0.168685
C19   C     C_R   0.136886 0.440390 0.828684 -0.091405
C20   C     C_R   0.200082 0.451265 0.922644 0.290602
C21   C     C_R   0.367115 0.484346 0.956156 -0.007987
C22   C     C_R   0.462344 0.510705 0.893643 -0.247024
C23   C     C_3   0.617171 0.730229 0.708600 0.223388
C24   C     C_R   0.395073 0.510092 0.803114 0.015256
C25   C     C_R   0.577611 0.563584 0.094564 -0.131366
C26   C     C_R   0.636802 0.582638 0.187784 0.019318
C27   C     C_R   0.412564 0.481567 0.212343 0.024343
C28   C     C_3   0.741013 0.280955 0.235834 1.031856
C29   C     C_R   0.366649 0.454508 0.118406 -0.115727
C30   C     C_R   0.439176 0.499516 0.056892 0.043660
C31   C     C_R   0.549624 0.544365 0.245701 -0.226395
C32   C     C_3   0.829601 0.238609 0.163387 -0.240498
C33   C     C_3   0.184190 0.720426 0.740872 0.744312
C34   C     C_3   0.700191 0.822198 0.756793 -0.292673
C35   C     C_3   0.282129 0.813716 0.761853 -0.291313
C36   C     C_3   0.285228 0.261169 0.319941 0.316963
C37   C     C_3   0.328450 0.172993 0.289551 -0.384075
C38   C     C_3   0.221394 0.635301 0.150327 0.342165
C39   C     C_2   0.817277 0.139808 0.152845 0.463050
C40   C     C_3   0.037465 0.635876 0.825453 0.216505
C41   C     C_2   0.125755 0.246379 0.336346 0.364405
C42   C     C_3   0.223594 0.780421 0.013405 0.148424
C43   C     C_2   0.787080 0.820027 0.849612 0.492415
C44   C     C_3   0.549507 0.909417 0.084175 0.142100
C45   C     C_3   0.913434 0.219944 0.735315 0.280821
C46   C     C_2   0.080193 0.213952 0.774942 0.456028
C47   C     C_3   0.915545 0.028756 0.796077 0.233087
C48   C     C_3   0.699375 0.147082 0.940418 0.141393
C49   C     C_2   0.391320 0.132274 0.858338 0.507449
C50   C     C_2   0.656153 0.676644 0.489596 0.518861
C51   C     C_2   0.215735 0.031117 0.607754 0.545291
C52   C     C_3   0.614329 0.047950 0.296503 0.100528
C53   C     C_3   0.012162 0.369328 0.984295 0.208763
C54   C     C_2   0.793677 0.821816 0.312986 0.368196
C55   C     C_3   0.166783 0.408955 0.629532 0.402019
C56   C     C_3   0.800002 0.129150 0.717123 0.257554
C57   C     C_3   0.208664 0.958598 0.273310 0.143302
C58   C     C_2   0.964610 0.887294 0.120038 0.590894
C59   C     C_3   0.498283 0.239598 0.122993 0.060736
C60   C     C_3   0.801033 0.419002 0.203470 0.193926
C61   C     C_3   0.476414 0.254987 0.773765 0.372689
C62   C     C_3   0.502928 0.219137 0.863851 0.258194
C63   C     C_R   0.625348 0.833725 0.486633 0.047016
H1    H     H_    0.793192 0.258904 0.097865 -0.047505
H2    H     H_    0.452628 0.184445 0.283757 0.209573
H3    H     H_    0.488935 0.713988 0.243850 -0.086258
H4    H     H_    0.465915 0.747890 0.101980 -0.100313
H5    H     H_    0.710249 0.695354 0.685280 0.082030
H6    H     H_    0.527759 0.739941 0.651212 0.064197
H7    H     H_    0.784506 0.849386 0.716446 0.093049
H8    H     H_    0.611797 0.867392 0.761038 0.046508
H9    H     H_    0.826608 0.926021 0.209110 0.075302
H10   H     H_    0.914796 0.238868 0.668497 -0.020824
H11   H     H_    0.719226 0.124032 0.651385 0.092587
H12   H     H_    0.958156 0.267195 0.181810 0.124335
H13   H     H_    0.718001 0.125119 0.764257 0.104835
H14   H     H_    0.369737 0.287750 0.768109 -0.109066
H15   H     H_    0.577022 0.307876 0.774138 0.107722
H16   H     H_    0.474255 0.269621 0.914840 -0.007411
H17   H     H_    0.034680 0.813979 0.310112 0.070299
H18   H     H_    0.485282 0.969057 0.441145 0.118581
H19   H     H_    0.084500 0.888720 0.544861 0.092880
H20   H     H_    0.131465 0.286629 0.504169 0.012265
H21   H     H_    0.643321 0.598578 0.052805 0.101651
H22   H     H_    0.275580 0.397620 0.094637 0.085916
H23   H     H_    0.241512 0.674624 0.699677 0.041064
H24   H     H_    0.588005 0.536133 0.915067 0.108770
H25   H     H_    0.596498 0.556490 0.316213 0.052450
H26   H     H_    0.322537 0.628468 0.117470 -0.157548
H27   H     H_    0.122202 0.641424 0.096414 0.119504
H28   H     H_    0.193987 0.574051 0.177666 0.102463
H29   H     H_    0.702728 0.098072 0.133450 -0.060399
H30   H     H_    0.996406 0.585165 0.764153 0.099146
H31   H     H_    0.943886 0.676925 0.833224 0.088194
H32   H     H_    0.053994 0.602150 0.884703 0.041513
H33   H     H_    0.056352 0.181257 0.333055 0.030144
H34   H     H_    0.316014 0.834299 0.700412 0.049770
H35   H     H_    0.091961 0.767313 0.995418 0.152350
H36   H     H_    0.262897 0.715769 0.996075 0.042240
H37   H     H_    0.266507 0.827909 0.971435 0.088499
H38   H     H_    0.721560 0.796532 0.898216 0.084515
H39   H     H_    0.550045 0.856791 0.026928 0.056278
H40   H     H_    0.664146 0.954090 0.094002 0.066463
H41   H     H_    0.454140 0.949151 0.066865 0.070772
H42   H     H_    0.142101 0.253992 0.837748 -0.042433
H43   H     H_    0.805524 0.996206 0.813386 0.014135
H44   H     H_    0.972704 0.084725 0.850696 0.066176
H45   H     H_    0.390777 0.815974 0.813087 0.088985
H46   H     H_    0.999768 0.980968 0.792655 0.122080
H47   H     H_    0.828455 0.158633 0.970079 0.082250
H48   H     H_    0.670149 0.080968 0.897463 -0.004136
H49   H     H_    0.630091 0.146077 0.994245 0.027348
H50   H     H_    0.392194 0.075614 0.808172 0.029844
H51   H     H_    0.701630 0.637085 0.439782 0.030565
H52   H     H_    0.180997 0.003657 0.664196 0.023757
H53   H     H_    0.740440 0.046612 0.290477 0.088574
H54   H     H_    0.554749 0.072171 0.237361 0.061003
H55   H     H_    0.550358 0.980305 0.293369 0.107095
H56   H     H_    0.211992 0.861985 0.789761 0.121659
H57   H     H_    0.010968 0.361926 0.054620 0.018049
H58   H     H_    0.065446 0.313178 0.956198 0.010279
H59   H     H_    0.885744 0.364428 0.952015 0.139449
H60   H     H_    0.751776 0.883865 0.328783 0.005298
H61   H     H_    0.059112 0.397692 0.580453 0.094873
H62   H     H_    0.173503 0.347842 0.660432 -0.208498
H63   H     H_    0.251799 0.418533 0.586071 0.089384
H64   H     H_    0.262494 0.996774 0.227137 0.063807
H65   H     H_    0.217432 0.889123 0.251718 0.119522
H66   H     H_    0.276500 0.980168 0.342425 0.097103
H67   H     H_    0.368965 0.293822 0.382515 0.068315
H68   H     H_    0.060025 0.928263 0.099787 0.056414
H69   H     H_    0.500013 0.167618 0.116273 0.035988
H70   H     H_    0.544651 0.270867 0.070073 0.049379
H71   H     H_    0.370804 0.246371 0.112739 0.135459
H72   H     H_    0.682562 0.408048 0.158607 -0.015661
H73   H     H_    0.895280 0.418156 0.163467 0.073271
H74   H     H_    0.814628 0.479748 0.247494 0.125322
H75   H     H_    0.253948 0.141561 0.223411 0.150728
H76   H     H_    0.316492 0.130322 0.341204 0.107310
O1    O     O_2   0.174040 0.723040 0.553850 -0.489383
O2    O     O_2   0.805152 0.444416 0.814713 -0.491299
O3    O     O_3   0.859373 0.282504 0.793850 -0.630645
O4    O     O_3   0.901550 0.609570 0.550800 -0.486178
O5    O     O_3   0.408230 0.452130 0.390190 -0.478978
O6    O     O_2   0.675480 0.547140 0.721810 -0.474897
O7    O     O_3   0.537098 0.684560 0.765105 -0.664846
O8    O     O_2   0.490149 0.180846 0.535646 -0.448960
O9    O     O_3   0.464834 0.186272 0.700805 -0.603764
O10   O     O_3   0.370320 0.665070 0.388210 -0.431768
O11   O     O_2   0.287178 0.821770 0.445536 -0.482290
O12   O     O_3   0.279879 0.311289 0.250923 -0.618497
O13   O     O_3   0.029884 0.726199 0.697347 -0.678707
O14   O     O_3   0.424668 0.825262 0.307611 -0.658807
O15   O     O_2   0.134800 0.452800 0.278160 -0.443310
O16   O     O_3   0.937630 0.618610 0.340820 -0.451886
O17   O     O_2   0.927446 0.578856 0.168226 -0.543884
O18   O     O_3   0.244965 0.708387 0.220148 -0.652418
O19   O     O_2   0.936866 0.105672 0.162977 -0.597181
O20   O     O_3   0.182881 0.689591 0.823766 -0.706699
O21   O     O_2   0.071151 0.312694 0.353027 -0.571206
O22   O     O_3   0.269347 0.817798 0.105254 -0.696450
O23   O     O_3   0.894722 0.739382 0.194978 -0.558229
O24   O     O_2   0.930594 0.845365 0.871303 -0.608004
O25   O     O_3   0.535276 0.875628 0.164194 -0.703029
O26   O     O_2   0.149613 0.163743 0.735141 -0.645808
O27   O     O_3   0.880646 0.055395 0.711552 -0.665468
O28   O     O_3   0.667544 0.214439 0.889511 -0.662295
O29   O     O_2   0.302885 0.124862 0.911729 -0.638015
O30   O     O_2   0.555515 0.641498 0.524995 -0.559687
O31   O     O_2   0.340346 0.017222 0.585826 -0.598547
O32   O     O_3   0.604321 0.102870 0.376238 -0.639915
O33   O     O_3   0.097079 0.454076 0.982790 -0.669202
O34   O     O_2   0.636250 0.276900 0.446120 -0.449096
O35   O     O_2   0.737324 0.757982 0.341336 -0.697824
O36   O     O_3   0.164302 0.485926 0.688428 -0.691108
O37   O     O_3   0.050704 0.972267 0.271423 -0.678249
O38   O     O_2   0.870482 0.833383 0.062940 -0.609342
O39   O     O_3   0.574651 0.284442 0.209327 -0.691375
O40   O     O_3   0.821669 0.366026 0.268081 -0.635758
O41   O     O_3   0.908740 0.390420 0.449120 -0.449991
O42   O     O_3   0.439970 0.334920 0.611710 -0.531896
O43   O     O_3   0.757210 0.233366 0.306868 -0.617205
O44   O     O_3   0.402050 0.547860 0.609740 -0.417051
O45   O     O_3   0.872650 0.381380 0.659100 -0.483290
P1    P     P_3+3 0.004160 0.709210 0.580280 0.953466
P2    P     P_3+3 0.305010 0.425580 0.290930 1.061461
P3    P     P_3+3 0.847861 0.636576 0.230751 1.012676
P4    P     P_3+3 0.806120 0.290780 0.419650 1.145938
P5    P     P_3+3 0.922641 0.390471 0.775781 0.961772
P6    P     P_3+3 0.425116 0.783916 0.409745 1.031164
P7    P     P_3+3 0.502516 0.570124 0.725486 1.010373
P8    P     P_3+3 0.387575 0.219363 0.599062 0.999180

loop_
_geom_bond_atom_site_label_1
_geom_bond_atom_site_label_2
_ccdc_geom_bond_type
O15   P2    D    
C57   H65   S    
C4    H17   S    
C52   H55   S    
C12   O14   S    
Ba1   O15   S    
C38   O18   S    
Ba1   O4    S    
C41   H33   S    
C38   H28   S    
C22   H24   S    
C32   H1    S    
C55   H63   S    
C40   O20   S    
C56   H11   S    
C5    C6    A    
C53   O33   S    
C61   H14   S    
Ba2   O4    S    
O1    P1    D    
C57   H66   S    
C33   O20   S    
C48   H49   S    
C54   O35   D    
C40   H31   S    
C2    P1    S    
O5    P2    S    
C1    H4    S    
C22   C24   A    
C8    C13   A    
C32   H12   S    
C36   C37   S    
Ba2   O34   S    
C29   C30   A    
C51   H52   S    
C19   P5    S    
C46   H42   S    
C44   H40   S    
C27   C31   A    
C14   H19   S    
O42   P8    S    
C50   O30   D    
Ba1   Ba2   S    
Ba2   O41   S    
C62   O28   S    
O9    P8    S    
Ba1   O1    S    
C43   H38   S    
C51   O31   D    
C53   H59   S    
C45   C46   S    
C6    C7    A    
C21   C22   A    
C33   O13   S    
O6    P7    D    
C23   H6    S    
C42   O22   S    
C60   H74   S    
C48   O28   S    
C56   O27   S    
C7    C8    A    
C1    O22   S    
C47   H46   S    
C3    H20   S    
Ba1   P1    S    
C53   H57   S    
C16   H9    S    
C52   H54   S    
C26   P3    S    
Ba1   O5    S    
C32   C39   S    
C28   O43   S    
O34   P4    D    
C15   C50   S    
C20   O33   S    
C59   H69   S    
C47   H43   S    
C61   H15   S    
C50   H51   S    
C4    C16   S    
C53   H58   S    
C29   H22   S    
C28   C32   S    
C40   H30   S    
C37   H76   S    
C47   O27   S    
O14   P6    S    
C40   H32   S    
O44   P7    S    
C55   H61   S    
C3    C5    A    
C42   H37   S    
C23   C34   S    
Ba2   O6    S    
C44   H39   S    
C45   O3    S    
C49   H50   S    
C58   O38   D    
C36   H67   S    
C2    C14   A    
C25   H21   S    
Ba2   O45   S    
C61   O9    S    
O8    P8    D    
C39   O19   D    
C33   H23   S    
C1    O25   S    
C39   H29   S    
C63   P6    S    
C8    C17   A    
C9    C10   A    
C48   H47   S    
C34   C43   S    
C28   O39   S    
C54   H60   S    
C60   H73   S    
C5    P8    S    
C7    C9    A    
C42   H36   S    
C35   H45   S    
C1    C12   S    
C35   H56   S    
C2    C15   A    
C16   C58   S    
O10   P6    S    
O3    P5    S    
O4    P1    S    
C26   C31   A    
C52   H53   S    
C28   O40   S    
O43   P4    S    
O17   P3    D    
O23   P3    S    
C62   H16   S    
C35   H34   S    
C52   O32   S    
C47   H44   S    
O45   P5    S    
Ba1   P2    S    
C11   H18   S    
C37   H75   S    
C57   H64   S    
C12   H3    S    
C44   O25   S    
C33   C35   S    
C25   C30   A    
C37   H2    S    
C49   O29   D    
C49   C62   S    
Ba2   P4    S    
C4    C54   S    
C6    C51   S    
C55   H62   S    
Ba1   O41   S    
C18   O36   S    
C3    C17   A    
O12   P2    S    
Ba1   O44   S    
Ba2   O5    S    
C10   C63   A    
C4    O23   S    
C15   C63   A    
C27   P2    S    
C12   O18   S    
C48   H48   S    
C21   C30   S    
C11   C13   A    
Ba2   O44   S    
C45   H10   S    
C36   C41   S    
O11   P6    D    
C31   H25   S    
C45   C56   S    
C55   O36   S    
C42   H35   S    
C46   O26   D    
C18   C24   A    
C44   H41   S    
Ba1   O16   S    
Ba1   O10   S    
C23   O7    S    
C13   O32   S    
Ba2   O42   S    
C38   H26   S    
C60   H72   S    
O16   P3    S    
C57   O37   S    
C38   H27   S    
C9    C14   A    
C34   H8    S    
C56   H13   S    
C17   P4    S    
C61   C62   S    
C41   O21   D    
O7    P7    S    
O13   P1    S    
C18   C19   A    
C16   O37   S    
C59   O39   S    
C27   C29   A    
C25   C26   A    
O2    P5    D    
C20   C21   A    
C23   H5    S    
O41   P4    S    
C36   O12   S    
C10   C11   A    
C19   C20   A    
C24   P7    S    
C43   O24   D    
C58   H68   S    
C59   H70   S    
C34   H7    S    
C59   H71   S    
C60   O40   S    
