data_mof_unit_5386.cif
_audit_creation_date              2012-12-10T19:44:34-0500
_audit_creation_method            fapswitch 2.2
_symmetry_space_group_name_H-M    P1
_symmetry_Int_Tables_number       1
_space_group_crystal_system       triclinic
_cell_length_a                    8.588115
_cell_length_b                    14.958935
_cell_length_c                    14.142985
_cell_angle_alpha                 89.912894
_cell_angle_beta                  98.714401
_cell_angle_gamma                 90.00827
_cell_volume                      1795.9588179

loop_
_atom_site_label
_atom_site_type_symbol
_atom_type_description
_atom_site_fract_x
_atom_site_fract_y
_atom_site_fract_z
_atom_type_partial_charge
C1    C     C_R   0.497941 0.327609 0.499892 0.900057
C2    C     C_R   0.497756 0.672433 0.499709 0.895337
C3    C     C_R   0.385232 0.446648 0.095563 -0.093966
C4    C     C_R   0.616207 0.448768 0.905198 -0.070379
C5    C     C_R   0.389994 0.450265 0.195933 -0.081767
C6    C     C_R   0.611503 0.451562 0.804628 0.039378
C7    C     C_R   0.608224 0.548213 0.212871 0.033112
C8    C     C_R   0.390357 0.547522 0.786589 0.009772
C9    C     C_R   0.608815 0.547413 0.113539 -0.332201
C10   C     C_R   0.389415 0.547005 0.885905 -0.191551
C11   C     C_R   0.497473 0.496598 0.052981 0.078147
C12   C     C_R   0.501967 0.497220 0.946869 0.084810
C13   C     C_R   0.200902 0.500011 0.475006 0.970951
C14   C     C_R   0.799099 0.500017 0.524994 0.974439
C15   C     C_2   0.035847 0.500060 0.461489 -0.394205
C16   C     C_2   0.964160 0.500041 0.538512 -0.376279
C17   C     C_R   0.385931 0.097888 0.564640 0.526036
C18   C     C_R   0.390910 0.902475 0.412735 0.527114
C19   C     C_R   0.407798 0.189688 0.567777 -0.264711
C20   C     C_R   0.412751 0.810684 0.413964 -0.281915
C21   C     C_R   0.482481 0.231940 0.498563 -0.109927
C22   C     C_R   0.482019 0.768176 0.498123 -0.108291
C23   C     C_R   0.536837 0.182923 0.426250 -0.223218
C24   C     C_R   0.530689 0.817043 0.581401 -0.223251
C25   C     C_R   0.520586 0.091174 0.424604 -0.171295
C26   C     C_R   0.514320 0.908793 0.579912 -0.169395
C27   C     C_R   0.446311 0.048408 0.493743 0.003129
C28   C     C_R   0.445768 0.951771 0.495859 0.004895
H1    H     H_    0.973792 0.500103 0.388456 0.175923
H2    H     H_    0.026217 0.500023 0.611547 0.186079
H3    H     H_    0.364217 0.227825 0.623393 0.189913
H4    H     H_    0.373508 0.772783 0.349498 0.180031
H5    H     H_    0.595113 0.215311 0.372624 0.169073
H6    H     H_    0.584735 0.784572 0.646744 0.170213
H7    H     H_    0.569954 0.053276 0.371026 0.182275
H8    H     H_    0.559496 0.946540 0.643505 0.187231
H9    H     H_    0.305993 0.412281 0.229550 0.124296
H10   H     H_    0.696753 0.414455 0.771347 0.174452
H11   H     H_    0.694844 0.587492 0.258477 0.126543
H12   H     H_    0.302764 0.585912 0.740550 0.129478
H13   H     H_    0.696276 0.586317 0.083900 0.151276
H14   H     H_    0.300568 0.585002 0.915158 0.144902
N1    N     N_R   0.500000 0.499980 0.252470 -0.086666
N2    N     N_R   0.500000 0.500020 0.747530 -0.118638
O1    O     O_R   0.500010 0.369070 0.579480 -0.618366
O2    O     O_R   0.499990 0.630930 0.420520 -0.625915
O3    O     O_R   0.500010 0.369060 0.420520 -0.623785
O4    O     O_R   0.499990 0.630940 0.579480 -0.625392
O5    O     O_R   0.271750 0.500000 0.560890 -0.616222
O6    O     O_R   0.728250 0.500000 0.439110 -0.622508
O7    O     O_R   0.271750 0.499990 0.401930 -0.631891
O8    O     O_R   0.728250 0.500010 0.598070 -0.630036
Zn1   Zn    Zn3+2 0.500000 0.500010 0.606140 0.953587
Zn2   Zn    Zn3+2 0.500000 0.499990 0.393860 0.939106
O9    O     O_3   0.317150 0.056769 0.635583 -0.606078
C29   C     C_3   0.155291 0.045316 0.602222 -0.299301
H15   H     H_    0.136423 0.993316 0.545660 0.149382
H16   H     H_    0.097422 0.109220 0.575944 0.156106
H17   H     H_    0.097186 0.021679 0.662559 0.206852
O10   O     O_3   0.328092 0.943691 0.327922 -0.612269
C30   C     C_3   0.165863 0.957603 0.328110 -0.315059
H18   H     H_    0.146272 0.011037 0.379465 0.155608
H19   H     H_    0.104329 0.894940 0.343817 0.152716
H20   H     H_    0.112185 0.980525 0.255868 0.205875
C31   C     C_2   0.263428 0.388836 0.040267 0.411665
H21   H     H_    0.173762 0.358115 0.076127 0.075711
O11   O     O_2   0.261937 0.373321 0.955457 -0.524782
C32   C     C_2   0.738131 0.394297 0.964925 0.378846
H22   H     H_    0.739495 0.388694 0.041495 0.077726
O12   O     O_2   0.839113 0.354686 0.929247 -0.552778

loop_
_geom_bond_atom_site_label_1
_geom_bond_atom_site_label_2
_ccdc_geom_bond_type
C2    C22   S    
C30   H20   S    
C8    N2    A    
C11   C12   S    
C6    H10   S    
C1    C21   S    
C14   C16   S    
C5    H9    S    
O4    Zn1   S    
C10   H14   S    
C4    C12   A    
C17   O9    S    
N1    Zn2   S    
C26   C28   A    
C29   H17   S    
O9    C29   S    
O7    Zn2   S    
C19   H3    S    
O2    Zn2   S    
C21   C23   A    
C5    N1    A    
C3    C5    A    
O1    Zn1   S    
C6    N2    A    
C2    O2    A    
C9    C11   A    
C24   C26   A    
C1    O1    A    
O6    Zn2   S    
C10   C12   A    
C25   H7    S    
O3    Zn2   S    
C13   O5    A    
C18   O10   S    
C19   C21   A    
C29   H16   S    
C15   H1    S    
C18   C20   A    
C13   C15   S    
C1    O3    A    
C30   H18   S    
C3    C31   S    
C22   C24   A    
C8    C10   A    
O5    Zn1   S    
C3    C11   A    
C29   H15   S    
C14   O6    A    
C25   C27   A    
C16   H2    S    
C15   C16   D    
C17   C27   A    
C7    C9    A    
C23   C25   A    
C18   C28   A    
O8    Zn1   S    
C4    C6    A    
C31   H21   S    
C20   H4    S    
C26   H8    S    
C27   C28   S    
C4    C32   S    
C32   O12   D    
C7    H11   S    
C17   C19   A    
C8    H12   S    
C2    O4    A    
C13   O7    A    
C9    H13   S    
N2    Zn1   S    
C32   H22   S    
C30   H19   S    
C14   O8    A    
C31   O11   D    
C20   C22   A    
O10   C30   S    
C23   H5    S    
C7    N1    A    
C24   H6    S    
