data_mof_unit_62059.cif
_audit_creation_date              2012-12-10T19:07:59-0500
_audit_creation_method            fapswitch 2.2
_symmetry_space_group_name_H-M    P1
_symmetry_Int_Tables_number       1
_space_group_crystal_system       triclinic
_cell_length_a                    13.063038
_cell_length_b                    13.650916
_cell_length_c                    23.237721
_cell_angle_alpha                 89.997464
_cell_angle_beta                  92.555939
_cell_angle_gamma                 85.599252
_cell_volume                      4127.45473762

loop_
_atom_site_label
_atom_site_type_symbol
_atom_type_description
_atom_site_fract_x
_atom_site_fract_y
_atom_site_fract_z
_atom_type_partial_charge
C1    C     C_R   0.481070 0.684970 0.499448 0.967059
C2    C     C_R   0.518912 0.315016 0.500616 0.932203
C3    C     C_R   0.457420 0.461879 0.768097 0.082614
C4    C     C_R   0.535430 0.624896 0.247536 0.089837
C5    C     C_R   0.458624 0.445762 0.708259 0.334561
C6    C     C_R   0.535280 0.607448 0.307124 0.334083
C7    C     C_R   0.495589 0.517134 0.672513 -0.319064
C8    C     C_R   0.500619 0.518872 0.327468 -0.320086
C9    C     C_R   0.528632 0.605389 0.695470 0.256481
C10   C     C_R   0.464391 0.448682 0.289063 0.258817
C11   C     C_R   0.527026 0.621466 0.754587 0.401571
C12   C     C_R   0.464858 0.465907 0.229877 0.397141
C13   C     C_R   0.492676 0.549844 0.790621 0.062205
C14   C     C_R   0.500667 0.553193 0.209421 0.062930
C15   C     C_1   0.534251 0.212179 0.501116 -0.126588
C16   C     C_1   0.465702 0.787774 0.499034 -0.092474
C17   C     C_2   0.545091 0.020937 0.501480 0.173416
C18   C     C_2   0.454829 0.978974 0.498810 0.175362
C19   C     C_1   0.456610 0.874963 0.498810 0.060635
C20   C     C_1   0.543325 0.124970 0.501412 0.051144
C21   C     C_2   0.033358 0.472825 0.483302 0.093309
C22   C     C_2   0.966630 0.527253 0.516688 0.090278
C23   C     C_R   0.499068 0.501362 0.610797 1.026951
C24   C     C_R   0.500626 0.501733 0.389189 1.025347
C25   C     C_1   0.854454 0.519783 0.511985 0.188164
C26   C     C_1   0.145539 0.480259 0.488012 0.184207
C27   C     C_R   0.592451 0.538376 0.122449 0.630172
C28   C     C_R   0.415207 0.608553 0.877269 0.638204
C29   C     C_R   0.419997 0.610554 0.119430 0.639930
C30   C     C_R   0.587728 0.536512 0.881187 0.638694
C31   C     C_R   0.420003 0.622672 0.059190 -0.164089
C32   C     C_R   0.596359 0.548992 0.941239 -0.162815
C33   C     C_R   0.509135 0.587237 0.030519 -0.093698
C34   C     C_R   0.507918 0.586705 0.969742 -0.097794
C35   C     C_R   0.598740 0.549959 0.062600 -0.164109
C36   C     C_R   0.417557 0.621616 0.937481 -0.164155
C37   C     C_R   0.334484 0.667749 0.026804 0.365680
C38   C     C_R   0.689395 0.524505 0.973579 0.369447
C39   C     C_R   0.333241 0.667179 0.966404 0.367733
C40   C     C_R   0.690570 0.524991 0.033889 0.362503
N1    N     N_R   0.504430 0.568057 0.148704 -0.339454
N2    N     N_R   0.498357 0.565102 0.851476 -0.339672
N3    N     N_1   0.234540 0.484780 0.490870 -0.085980
N4    N     N_1   0.765460 0.515220 0.509130 -0.081904
O1    O     O_R   0.402510 0.634760 0.496660 -0.627980
O2    O     O_R   0.597490 0.365240 0.503340 -0.621832
O3    O     O_R   0.572960 0.644530 0.502520 -0.567497
O4    O     O_R   0.427040 0.355470 0.497480 -0.588463
O5    O     O_R   0.414760 0.495140 0.580910 -0.589558
O6    O     O_R   0.585240 0.504860 0.419090 -0.586887
O7    O     O_R   0.585200 0.504910 0.586770 -0.583580
O8    O     O_R   0.414800 0.495090 0.413230 -0.585163
O9    O     O_2   0.671675 0.495198 0.154703 -0.449277
O10   O     O_2   0.330497 0.635917 0.844183 -0.446741
O11   O     O_2   0.336250 0.637822 0.149114 -0.441934
O12   O     O_2   0.666029 0.493506 0.852098 -0.447833
Zn1   Zn    Zn3+2 0.386190 0.493470 0.496090 1.052496
Zn2   Zn    Zn3+2 0.613810 0.506530 0.503910 1.062196
Cl1   Cl    Cl    0.227472 0.728864 0.059907 -0.338129
Cl2   Cl    Cl    0.808199 0.496800 0.940493 -0.330436
Cl3   Cl    Cl    0.224579 0.727303 0.928902 -0.331968
Cl4   Cl    Cl    0.810759 0.498105 0.071667 -0.340789
C41   C     C_3   0.420943 0.387109 0.809011 -0.650735
H1    H     H_    0.484415 0.362739 0.840355 0.236544
H2    H     H_    0.355515 0.420803 0.832892 0.242673
H3    H     H_    0.394645 0.320779 0.787351 0.286203
C42   C     C_3   0.571754 0.718344 0.223070 -0.658526
H4    H     H_    0.638046 0.700140 0.195715 0.242289
H5    H     H_    0.508556 0.756885 0.196314 0.240460
H6    H     H_    0.596724 0.770747 0.256161 0.282494
Cl5   Cl    Cl    0.418403 0.335512 0.677490 -0.563852
Cl6   Cl    Cl    0.574657 0.697353 0.356789 -0.603888
Cl7   Cl    Cl    0.569563 0.697833 0.650247 -0.515088
Cl8   Cl    Cl    0.421723 0.337633 0.314920 -0.481736
Cl9   Cl    Cl    0.569123 0.731231 0.784480 -0.409993
Cl10  Cl    Cl    0.422098 0.377802 0.180555 -0.410075
C43   C     C_3   0.351714 0.037464 0.495781 -0.810376
H7    H     H_    0.287718 0.988247 0.493914 0.249312
H8    H     H_    0.343693 0.084553 0.534540 0.257441
H9    H     H_    0.344747 0.084449 0.456569 0.255239
C44   C     C_3   0.648186 0.962396 0.504494 -0.796999
H10   H     H_    0.712209 0.011579 0.506422 0.247100
H11   H     H_    0.655094 0.915311 0.543669 0.264134
H12   H     H_    0.656204 0.915380 0.465702 0.258943
C45   C     C_3   0.006219 0.598285 0.560444 -0.811042
H13   H     H_    0.942212 0.636294 0.583727 0.261960
H14   H     H_    0.059391 0.558270 0.592567 0.256355
H15   H     H_    0.047624 0.654793 0.538609 0.242730
C46   C     C_3   0.993758 0.401806 0.439541 -0.816671
H16   H     H_    0.057756 0.363813 0.416245 0.260241
H17   H     H_    0.952368 0.345285 0.461374 0.242205
H18   H     H_    0.940572 0.441831 0.407429 0.257238

loop_
_geom_bond_atom_site_label_1
_geom_bond_atom_site_label_2
_ccdc_geom_bond_type
C24   O8    A    
C30   C32   A    
C21   C26   S    
C41   H2    S    
C10   Cl8   S    
C44   H10   S    
C40   Cl4   S    
O4    Zn1   S    
C21   C46   S    
C43   H7    S    
C2    O2    A    
C6    Cl6   S    
O1    Zn1   S    
C16   C19   T    
C23   O5    A    
C17   C20   S    
O5    Zn1   S    
C18   C19   S    
C22   C45   S    
C33   C35   A    
N4    Zn2   S    
C22   C25   S    
C31   C33   A    
C32   C38   A    
C46   H17   S    
C17   C44   S    
C3    C13   A    
C43   H8    S    
C41   H3    S    
C21   C22   D    
O2    Zn2   S    
C9    Cl7   S    
C25   N4    T    
C13   N2    S    
C44   H11   S    
C26   N3    T    
C33   C34   A    
C45   H14   S    
C24   O6    A    
C15   C20   T    
C39   Cl3   S    
C42   H4    S    
O6    Zn2   S    
C4    C6    A    
C1    C16   S    
C28   O10   S    
C1    O3    A    
C6    C8    A    
C29   O11   S    
C2    O4    A    
C45   H13   S    
C30   O12   S    
C31   C37   A    
C42   H5    S    
C32   C34   A    
C27   N1    A    
C23   O7    A    
C17   C18   D    
O7    Zn2   S    
C46   H18   S    
C2    C15   S    
C9    C11   A    
C37   Cl1   S    
C10   C12   A    
C14   N1    S    
C38   Cl2   S    
C8    C10   A    
C12   C14   A    
C12   Cl10  S    
C44   H12   S    
C5    C7    A    
C45   H15   S    
C7    C9    A    
C29   N1    A    
C36   C39   A    
C3    C5    A    
C4    C42   S    
C27   O9    S    
C3    C41   S    
C42   H6    S    
C27   C35   A    
C35   C40   A    
C5    Cl5   S    
C11   Cl9   S    
O3    Zn2   S    
C38   C40   A    
C11   C13   A    
C1    O1    A    
C43   H9    S    
C18   C43   S    
C7    C23   S    
C28   N2    A    
C8    C24   S    
C34   C36   A    
C4    C14   A    
O8    Zn1   S    
N3    Zn1   S    
C41   H1    S    
C37   C39   A    
C28   C36   A    
C29   C31   A    
C30   N2    A    
C46   H16   S    
