data_mof_unit_60038.cif
_audit_creation_date              2012-12-10T16:58:21-0500
_audit_creation_method            fapswitch 2.2
_symmetry_space_group_name_H-M    P1
_symmetry_Int_Tables_number       1
_space_group_crystal_system       triclinic
_cell_length_a                    21.756626
_cell_length_b                    21.7571
_cell_length_c                    22.224671
_cell_angle_alpha                 59.941318
_cell_angle_beta                  118.836415
_cell_angle_gamma                 90.005431
_cell_volume                      7560.97335057

loop_
_atom_site_label
_atom_site_type_symbol
_atom_type_description
_atom_site_fract_x
_atom_site_fract_y
_atom_site_fract_z
_atom_type_partial_charge
C1    C     C_R   0.620078 0.498558 0.502817 0.787597
C2    C     C_3   0.289744 0.710267 0.082729 -0.002657
C3    C     C_3   0.191995 0.725479 0.973509 -0.204257
C4    C     C_3   0.206661 0.793206 0.917184 -0.002351
C5    C     C_3   0.206901 0.754982 0.028526 -0.205394
C6    C     C_3   0.220865 0.823482 0.970798 -0.302676
C7    C     C_1   0.336159 0.664451 0.174477 0.038964
C8    C     C_1   0.161264 0.838486 0.825452 0.038692
C9    C     C_R   0.747477 0.361149 0.624876 -0.160981
C10   C     C_R   0.804110 0.293869 0.675226 -0.132063
C11   C     C_R   0.862232 0.291463 0.665287 -0.135063
C12   C     C_R   0.419777 0.580555 0.339747 0.807705
C13   C     C_R   0.865385 0.356889 0.607200 -0.165701
C14   C     C_R   0.810376 0.426264 0.557904 0.098715
C15   C     C_R   0.748268 0.427638 0.563333 0.095634
C16   C     C_R   0.689261 0.495655 0.507709 -0.099523
C17   C     C_R   0.694315 0.561544 0.452002 -0.185355
C18   C     C_R   0.756612 0.560791 0.449373 -0.188869
C19   C     C_R   0.814894 0.494055 0.502040 -0.105002
C20   C     C_3   0.720199 0.196924 0.030017 -0.115049
C21   C     C_3   0.682866 0.283157 0.972633 -0.209469
C22   C     C_1   0.625456 0.373513 0.750168 -0.160058
C23   C     C_R   0.379523 0.501764 0.496373 0.808748
C24   C     C_1   0.875816 0.124279 0.249878 -0.173630
C25   C     C_3   0.745958 0.203309 0.973551 -0.211457
C26   C     C_3   0.709288 0.288867 0.917512 0.125646
C27   C     C_3   0.819227 0.212245 0.027729 -0.250161
C28   C     C_3   0.792494 0.206975 0.082628 0.121219
C29   C     C_3   0.781163 0.297536 0.971304 0.521065
C30   C     C_3   0.755641 0.292708 0.026778 -0.238907
C31   C     C_1   0.663368 0.335195 0.825662 -0.012079
C32   C     C_1   0.838335 0.161509 0.174409 -0.046131
C33   C     C_R   0.253542 0.482666 0.379267 -0.146836
C34   C     C_R   0.580236 0.419421 0.660285 0.811152
C35   C     C_R   0.198112 0.463642 0.332016 -0.138340
C36   C     C_R   0.140487 0.451045 0.342900 -0.138630
C37   C     C_R   0.136411 0.460249 0.398720 -0.136555
C38   C     C_R   0.190431 0.482514 0.444967 0.038531
C39   C     C_R   0.252195 0.489417 0.438768 0.092719
C40   C     C_R   0.310303 0.503720 0.491550 -0.172013
C41   C     C_R   0.304531 0.516141 0.544701 -0.265881
C42   C     C_R   0.242023 0.514482 0.547092 0.444611
C43   C     C_R   0.185057 0.496938 0.498120 -0.215542
C44   C     C_R   0.998654 0.882675 0.497215 0.781887
C45   C     C_3   0.288925 0.748520 0.971840 0.621532
C46   C     C_R   0.079835 0.919798 0.660238 0.804392
C47   C     C_R   0.999665 0.118816 0.499173 0.778683
C48   C     C_R   0.920146 0.079926 0.339730 0.804546
C49   C     C_R   0.002072 0.619440 0.499221 0.780843
C50   C     C_R   0.881148 0.497697 0.500462 0.793277
C51   C     C_R   0.997692 0.379997 0.501363 0.776133
C52   C     C_R   0.118826 0.498323 0.499639 0.815582
C53   C     C_R   0.007387 0.880800 0.370615 -0.164426
C54   C     C_R   0.019520 0.877066 0.316277 -0.137572
C55   C     C_R   0.029691 0.810154 0.323348 -0.147283
C56   C     C_3   0.303594 0.777652 0.026002 0.621929
C57   C     C_R   0.025584 0.747174 0.383137 -0.187245
C58   C     C_R   0.011126 0.750018 0.437506 0.094671
C59   C     C_R   0.005375 0.816976 0.433623 0.094640
C60   C     C_R   0.996826 0.818468 0.492199 -0.096957
C61   C     C_R   0.990676 0.756048 0.550570 -0.196527
C62   C     C_R   0.994168 0.691326 0.552910 -0.191648
C63   C     C_R   0.003720 0.687672 0.496798 -0.120021
C64   C     C_R   0.030500 0.105312 0.647444 -0.158890
C65   C     C_R   0.041147 0.098891 0.717457 -0.123217
C66   C     C_R   0.035777 0.162023 0.718022 -0.152899
C67   C     C_1   0.374367 0.626367 0.249929 -0.156049
C68   C     C_R   0.020905 0.231710 0.649184 -0.178646
C69   C     C_R   0.011147 0.240308 0.577066 0.107427
C70   C     C_R   0.014309 0.175625 0.576250 0.095017
C71   C     C_R   0.002085 0.182282 0.504652 -0.076281
C72   C     C_R   0.989242 0.250596 0.435914 -0.205342
C73   C     C_R   0.986848 0.313909 0.436180 -0.195952
C74   C     C_R   0.997637 0.310383 0.505456 -0.107445
C75   C     C_1   0.124055 0.875586 0.750022 -0.157990
C76   C     C_3   0.275528 0.680043 0.029069 -0.300630
Cu1   Cu    Cu3+1 0.500040 0.438210 0.499990 0.961853
Cu2   Cu    Cu3+1 0.499960 0.561790 0.500010 0.972656
Cu3   Cu    Cu3+1 0.061810 0.999860 0.500010 0.972361
Cu4   Cu    Cu3+1 0.938190 0.999990 0.499990 0.965433
Cu5   Cu    Cu3+1 0.958570 0.541460 0.417120 0.951203
Cu6   Cu    Cu3+1 0.041430 0.458560 0.582880 0.969390
H1    H     H_    0.905245 0.238836 0.703048 0.135688
H2    H     H_    0.910294 0.352573 0.600047 0.131281
H3    H     H_    0.759691 0.612831 0.406522 0.162472
H4    H     H_    0.626385 0.312277 0.949041 0.155617
H5    H     H_    0.695488 0.154550 0.055617 0.146010
H6    H     H_    0.760419 0.328710 0.049666 0.136951
H7    H     H_    0.875749 0.183628 0.050946 0.136326
H8    H     H_    0.741052 0.167186 0.950762 0.151926
H9    H     H_    0.349284 0.526616 0.585409 0.168551
H10   H     H_    0.296525 0.492959 0.367604 0.143895
H11   H     H_    0.200238 0.458044 0.287265 0.136108
H12   H     H_    0.098379 0.434682 0.307423 0.132359
H13   H     H_    0.091079 0.448778 0.405693 0.145564
H14   H     H_    0.984283 0.757051 0.595544 0.154288
H15   H     H_    0.998820 0.934331 0.361891 0.145742
H16   H     H_    0.021525 0.926205 0.268832 0.135983
H17   H     H_    0.040550 0.807058 0.282094 0.137992
H18   H     H_    0.035342 0.696390 0.386842 0.147009
H19   H     H_    0.198592 0.882617 0.946434 0.170306
H20   H     H_    0.988359 0.643996 0.598234 0.161112
H21   H     H_    0.980117 0.255063 0.381218 0.140003
H22   H     H_    0.035616 0.054493 0.650065 0.133133
H23   H     H_    0.053339 0.044756 0.771336 0.134807
H24   H     H_    0.043337 0.157046 0.772316 0.132882
H25   H     H_    0.017111 0.277044 0.655333 0.158998
H26   H     H_    0.977400 0.366010 0.381863 0.159146
H27   H     H_    0.173348 0.756996 0.052870 0.164008
H28   H     H_    0.145240 0.704488 0.950928 0.165318
H29   H     H_    0.298515 0.621116 0.053319 0.176283
H30   H     H_    0.649232 0.613720 0.409377 0.164909
H31   H     H_    0.703939 0.360414 0.635586 0.147007
H32   H     H_    0.802493 0.243298 0.721545 0.136590
O1    O     O_R   0.590210 0.447820 0.500000 -0.585055
O2    O     O_R   0.947780 0.909820 0.499990 -0.579698
O3    O     O_R   0.112650 0.939420 0.620930 -0.558101
O4    O     O_R   0.008260 0.939530 0.620910 -0.589834
O5    O     O_R   0.052220 0.090030 0.500010 -0.577737
O6    O     O_R   0.947830 0.090140 0.500000 -0.583748
O7    O     O_R   0.991740 0.060320 0.379090 -0.592694
O8    O     O_R   0.887350 0.060430 0.379070 -0.571958
O9    O     O_R   0.964960 0.625150 0.430050 -0.584283
O10   O     O_R   0.034940 0.555150 0.570020 -0.580235
O11   O     O_R   0.874830 0.535020 0.430000 -0.574169
O12   O     O_R   0.590150 0.552170 0.500020 -0.579099
O13   O     O_R   0.944810 0.465010 0.569970 -0.594187
O14   O     O_R   0.965060 0.444870 0.429980 -0.589290
O15   O     O_R   0.035040 0.374860 0.569950 -0.604224
O16   O     O_R   0.055190 0.535000 0.430030 -0.611041
O17   O     O_R   0.125170 0.465000 0.570000 -0.536483
O18   O     O_R   0.439580 0.508290 0.379070 -0.585903
O19   O     O_R   0.439510 0.612640 0.379090 -0.571517
O20   O     O_R   0.409850 0.447830 0.499980 -0.584703
O21   O     O_R   0.409790 0.552180 0.500000 -0.587176
O22   O     O_R   0.560490 0.387360 0.620910 -0.586708
O23   O     O_R   0.560420 0.491710 0.620930 -0.573175
O24   O     O_R   0.052170 0.909710 0.500000 -0.586557
F1    F     F_    0.361976 0.803782 0.053657 -0.628492
O25   O     O_3   0.810515 0.351944 0.935390 -0.612852
C77   C     C_3   0.874880 0.351345 0.998095 0.043429
H33   H     H_    0.918970 0.348769 0.986751 0.167527
H34   H     H_    0.897399 0.302177 0.063330 0.125223
C78   C     C_3   0.859104 0.423877 0.991216 -0.324860
H35   H     H_    0.841159 0.472596 0.927779 0.232840
H36   H     H_    0.813592 0.428364 0.999999 0.213413
C79   C     C_3   0.927516 0.426401 0.056757 -0.926817
H37   H     H_    0.945398 0.379097 0.120779 0.254627
H38   H     H_    0.914323 0.479792 0.049796 0.259313
H39   H     H_    0.973541 0.423132 0.048428 0.257405
F2    F     F_    0.331210 0.746133 0.942014 -0.626385
O26   O     O_3   0.238339 0.527456 0.600374 -0.591892
C80   C     C_3   0.200709 0.604144 0.556639 0.063221
H40   H     H_    0.158827 0.607023 0.570849 0.170699
H41   H     H_    0.170286 0.636140 0.487038 0.103810
C81   C     C_3   0.255180 0.642079 0.587444 -0.350790
H42   H     H_    0.285089 0.610639 0.656596 0.238574
H43   H     H_    0.296365 0.641490 0.571646 0.213666
C82   C     C_3   0.215303 0.723008 0.547408 -0.867022
H44   H     H_    0.186091 0.755919 0.478274 0.262767
H45   H     H_    0.256209 0.748968 0.571002 0.259098
H46   H     H_    0.174630 0.724948 0.563531 0.263999

loop_
_geom_bond_atom_site_label_1
_geom_bond_atom_site_label_2
_ccdc_geom_bond_type
C66   C68   A    
C21   C26   S    
Cu4   O6    S    
C49   C63   S    
C27   C29   S    
C11   C13   A    
C41   C42   A    
C35   C36   A    
C51   C74   S    
C4    C8    S    
Cu5   Cu6   S    
C53   C59   A    
C61   H14   S    
Cu4   O8    S    
Cu1   Cu2   S    
Cu3   O7    S    
C13   H2    S    
C46   O4    A    
C25   H8    S    
C29   C30   S    
Cu2   O23   S    
Cu5   O9    S    
C45   C76   S    
C51   O14   A    
C81   H42   S    
C79   H38   S    
C77   H34   S    
C48   O8    A    
C5    C6    S    
C43   C52   S    
C20   C25   S    
C3    H28   S    
C15   C16   A    
C49   O9    A    
C20   H5    S    
C37   H13   S    
C18   C19   A    
C73   C74   A    
C6    H19   S    
Cu6   O10   S    
C79   H37   S    
C54   C55   A    
Cu4   O2    S    
C45   C56   S    
C16   C17   A    
Cu3   O5    S    
C82   H45   S    
C70   C71   A    
Cu1   O22   S    
C64   C70   A    
C80   H41   S    
C42   O26   S    
Cu2   O21   S    
C21   C30   S    
C10   H32   S    
C72   C73   A    
C47   O5    A    
C59   C60   A    
C80   H40   S    
C13   C14   A    
C61   C62   A    
C66   H24   S    
C78   C79   S    
C65   H23   S    
C46   C75   S    
C4    C45   S    
C35   H11   S    
C51   O15   A    
C22   C34   S    
C12   C67   S    
Cu4   O4    S    
C18   H3    S    
C22   C31   T    
C24   C48   S    
C28   C32   S    
C79   H39   S    
C1    O12   A    
C4    C6    S    
C77   C78   S    
C48   O7    A    
C1    C16   S    
C56   F1    S    
C68   C69   A    
C73   H26   S    
C20   C28   S    
C11   H1    S    
C25   C26   S    
C53   C54   A    
C49   O10   A    
C7    C67   T    
C8    C75   T    
C46   O3    A    
C60   C61   A    
Cu6   O15   S    
Cu1   O18   S    
C24   C32   T    
C37   C38   A    
C82   H44   S    
C34   O22   A    
C62   C63   A    
C17   C18   A    
C82   H46   S    
C69   C74   A    
C50   O11   A    
C33   C39   A    
O25   C77   S    
C80   C81   S    
C3    C76   S    
C47   C71   S    
C78   H36   S    
C40   C41   A    
C41   H9    S    
C12   O19   A    
C55   C57   A    
Cu5   O14   S    
C2    C7    S    
C33   H10   S    
C2    C5    S    
C42   C43   A    
C30   H6    S    
C3    C4    S    
Cu2   O12   S    
C17   H30   S    
C39   C40   A    
C2    C76   S    
C9    C10   A    
C58   C63   A    
C64   H22   S    
C29   O25   S    
C21   H4    S    
C47   O6    A    
C44   O24   A    
C12   O18   A    
C23   O20   A    
Cu5   O11   S    
C52   O17   A    
C14   C19   A    
C81   C82   S    
C6    C56   S    
C78   H35   S    
C3    C5    S    
C50   O13   A    
C72   H21   S    
C25   C27   S    
C68   H25   S    
C34   O23   A    
C23   O21   A    
C52   O16   A    
C64   C65   A    
C81   H43   S    
C58   C59   A    
C9    H31   S    
C38   C43   A    
C2    C56   S    
C77   H33   S    
C57   H18   S    
C19   C50   S    
C57   C58   A    
C38   C39   A    
C5    H27   S    
C44   C60   S    
C76   H29   S    
Cu3   O3    S    
C28   C30   S    
C33   C35   A    
C53   H15   S    
C27   H7    S    
C9    C15   A    
C69   C70   A    
Cu2   O19   S    
Cu6   O13   S    
C10   C11   A    
Cu5   O16   S    
Cu3   Cu4   S    
C36   H12   S    
C26   C31   S    
Cu3   O24   S    
C71   C72   A    
C20   C21   S    
C44   O2    A    
C26   C29   S    
C36   C37   A    
C65   C66   A    
Cu1   O20   S    
C55   H17   S    
C27   C28   S    
C14   C15   A    
C54   H16   S    
O26   C80   S    
C1    O1    A    
C45   F2    S    
Cu6   O17   S    
Cu1   O1    S    
C23   C40   S    
C62   H20   S    
