data_mof_unit_30070.cif
_audit_creation_date              2013-03-05T16:48:40-0500
_audit_creation_method            fapswitch 2.2
_symmetry_space_group_name_H-M    P1
_symmetry_Int_Tables_number       1
_space_group_crystal_system       triclinic
_cell_length_a                    27.761447
_cell_length_b                    8.91034
_cell_length_c                    8.103969
_cell_angle_alpha                 89.905841
_cell_angle_beta                  89.999944
_cell_angle_gamma                 90.000122
_cell_volume                      2004.62692694

loop_
_atom_site_label
_atom_site_type_symbol
_atom_site_description
_atom_site_fract_x
_atom_site_fract_y
_atom_site_fract_z
_atom_type_partial_charge
O1    O     O_R   0.500000 0.285350 0.636850 -0.616391
O2    O     O_R   0.500000 0.714650 0.363150 -0.616388
O3    O     O_R   0.500000 0.714650 0.636850 -0.612477
O4    O     O_R   0.500000 0.285350 0.363150 -0.612479
C1    C     C_R   0.500000 0.218030 0.500084 0.942531
C2    C     C_R   0.500000 0.781970 0.499916 0.942536
O5    O     O_R   0.428760 0.500000 0.636860 -0.620193
O6    O     O_R   0.571240 0.500000 0.363140 -0.620141
O7    O     O_R   0.571240 0.500000 0.636860 -0.620141
O8    O     O_R   0.428760 0.500000 0.363140 -0.620192
C3    C     C_R   0.405822 0.499998 0.500000 0.926616
C4    C     C_R   0.594177 0.499997 0.500000 0.926504
Zn1   Zn    Zn3+2 0.500000 0.500000 0.682780 1.014449
Zn2   Zn    Zn3+2 0.500000 0.500000 0.317220 1.014450
C5    C     C_R   0.177791 0.369195 0.468589 0.620372
C6    C     C_R   0.822170 0.629610 0.536447 0.620274
C7    C     C_R   0.177790 0.630709 0.531447 0.620368
C8    C     C_R   0.822171 0.370264 0.463587 0.620285
O9    O     O_2   0.202857 0.242568 0.437209 -0.490675
O10   O     O_2   0.797088 0.755181 0.572522 -0.491391
O11   O     O_2   0.202855 0.757339 0.562817 -0.490681
O12   O     O_2   0.797090 0.244694 0.427503 -0.491386
N1    N     N_R   0.201643 0.499954 0.500011 -0.333501
N2    N     N_R   0.798328 0.499937 0.500012 -0.333315
C9    C     C_R   0.278054 0.547792 0.359153 0.427219
C10   C     C_R   0.721938 0.451796 0.640717 0.426649
C11   C     C_R   0.278057 0.452139 0.640854 0.427208
C12   C     C_R   0.721943 0.548102 0.359288 0.426657
C13   C     C_R   0.328122 0.546480 0.359036 -0.235928
C14   C     C_R   0.671870 0.453157 0.640855 -0.235737
C15   C     C_R   0.328125 0.453478 0.640968 -0.235930
C16   C     C_R   0.671875 0.546780 0.359148 -0.235730
C17   C     C_R   0.252972 0.499959 0.500004 0.108062
C18   C     C_R   0.747011 0.499940 0.500004 0.108949
C19   C     C_R   0.101800 0.499946 0.500034 -0.046762
C20   C     C_R   0.898159 0.499938 0.500030 -0.046049
C21   C     C_R   0.127428 0.366508 0.468937 -0.034924
C22   C     C_R   0.872532 0.632291 0.536364 -0.035493
C23   C     C_R   0.127427 0.633387 0.531124 -0.034919
C24   C     C_R   0.872533 0.367584 0.463687 -0.035497
C25   C     C_R   0.102476 0.233598 0.439378 -0.111926
C26   C     C_R   0.897485 0.763957 0.572079 -0.113189
C27   C     C_R   0.102474 0.766291 0.560708 -0.111932
C28   C     C_R   0.897487 0.235920 0.427973 -0.113195
C29   C     C_R   0.353324 0.499987 0.500001 -0.176061
C30   C     C_R   0.646672 0.499981 0.500001 -0.175984
H1    H     H_    0.347257 0.416426 0.750220 0.204103
H2    H     H_    0.652747 0.584096 0.250003 0.204072
H3    H     H_    0.347251 0.583543 0.249784 0.204103
H4    H     H_    0.652739 0.415857 0.749998 0.204072
H5    H     H_    0.121441 0.129427 0.416310 0.194586
H6    H     H_    0.878517 0.866981 0.600859 0.197324
H7    H     H_    0.121439 0.870462 0.583783 0.194583
H8    H     H_    0.878520 0.132897 0.399179 0.197323
C31   C     C_R   0.974436 0.364675 0.465265 0.048598
C32   C     C_R   0.025520 0.635702 0.532342 0.049203
C33   C     C_R   0.974435 0.635204 0.534814 0.048598
C34   C     C_R   0.025521 0.364181 0.467747 0.049201
C35   C     C_R   0.949244 0.499939 0.500037 0.080789
C36   C     C_R   0.050712 0.499943 0.500041 0.080300
C37   C     C_R   0.947368 0.234118 0.428542 -0.211255
C38   C     C_R   0.052590 0.767915 0.560886 -0.209303
C39   C     C_R   0.947366 0.765763 0.571519 -0.211254
C40   C     C_R   0.052592 0.231966 0.439217 -0.209303
H9    H     H_    0.963310 0.127734 0.397990 0.140361
H10   H     H_    0.036648 0.875900 0.583203 0.136099
H11   H     H_    0.963307 0.872152 0.602056 0.140357
H12   H     H_    0.036650 0.123976 0.416931 0.136096
C41   C     C_1   0.500000 0.065240 0.500121 -0.166760
C42   C     C_1   0.500000 0.934760 0.499879 -0.166761
N3    N     N_1   0.500000 0.500000 0.073640 -0.025712
N4    N     N_1   0.500000 0.500000 0.926360 -0.025713
Cl1   Cl    Cl    0.247292 0.389764 0.817851 -0.476844
Cl2   Cl    Cl    0.752744 0.611028 0.182606 -0.477274
Cl3   Cl    Cl    0.247284 0.610154 0.182160 -0.476840
Cl4   Cl    Cl    0.752734 0.388847 0.817402 -0.477270

loop_
_geom_bond_atom_site_label_1
_geom_bond_atom_site_label_2
_geom_bond_distance
_ccdc_geom_bond_type
C31   C35   1.422067 A    
Zn2   N3    1.973965 S    
C20   C35   1.418182 A    
C12   Cl2   1.758703 S    
C13   H3    1.083516 S    
C11   C17   1.402795 A    
C5    O9    1.350148 S    
C7    N1    1.364478 A    
O1    C1    1.261124 A    
C40   H12   1.074680 S    
C19   C21   1.408665 A    
C22   C26   1.393246 A    
C33   C35   1.422071 A    
C34   C36   1.421950 A    
O7    Zn1   2.012429 S    
C32   C33   1.418331 A    
C7    C23   1.398350 A    
C8    C24   1.398332 A    
C5    C21   1.398357 A    
C20   C24   1.408830 A    
C1    C41   1.361409 S    
C27   H7    1.083641 S    
N1    C17   1.424948 S    
C10   Cl4   1.758718 S    
C8    N2    1.364332 A    
O3    Zn1   1.947885 S    
C6    O10   1.350289 S    
O3    C2    1.260587 A    
C5    N1    1.364471 A    
C14   H4    1.083460 S    
C12   C18   1.402607 A    
C6    N2    1.364335 A    
C15   H1    1.083514 S    
C21   C25   1.393079 A    
C16   H2    1.083470 S    
O2    C2    1.261124 A    
C10   C18   1.402596 A    
C33   C39   1.416917 A    
C9    C13   1.390010 A    
C39   H11   1.075402 S    
C38   H10   1.074687 S    
C11   C15   1.390006 A    
C12   C16   1.390010 A    
C4    C30   1.457348 S    
O8    Zn2   2.012432 S    
C23   C27   1.393084 A    
C34   C40   1.416687 A    
N2    C18   1.424626 S    
C32   C36   1.421950 A    
C13   C29   1.401638 A    
C19   C36   1.418296 A    
C9    Cl3   1.758743 S    
C19   C23   1.408664 A    
C37   H9    1.075408 S    
O5    C3    1.278914 A    
O5    Zn1   2.012432 S    
O6    C4    1.278901 A    
C10   C14   1.390008 A    
C32   C38   1.416684 A    
C3    C29   1.457420 S    
O1    Zn1   1.949087 S    
C2    C42   1.361409 S    
O6    Zn2   2.012430 S    
C8    O12   1.350289 S    
C16   C30   1.401713 A    
C14   C30   1.401724 A    
O4    C1    1.260587 A    
Zn1   N4    1.973965 S    
C28   C37   1.384883 A    
C20   C22   1.408824 A    
N3    N4    1.193552 T    
C31   C37   1.416922 A    
O4    Zn2   1.947886 S    
C41   C42   1.162625 T    
O2    Zn2   1.949086 S    
O7    C4    1.278898 A    
C7    O11   1.350143 S    
C9    C17   1.402801 A    
O8    C3    1.278916 A    
C28   H8    1.084003 S    
C24   C28   1.393245 A    
C15   C29   1.401644 A    
C31   C34   1.418329 A    
C26   H6    1.084001 S    
C25   C40   1.384929 A    
C11   Cl1   1.758749 S    
C26   C39   1.384881 A    
C25   H5    1.083641 S    
C27   C38   1.384926 A    
C6    C22   1.398326 A    
