data_mof_unit_24813.cif
_audit_creation_date              2012-12-10T17:09:56-0500
_audit_creation_method            fapswitch 2.2
_symmetry_space_group_name_H-M    P1
_symmetry_Int_Tables_number       1
_space_group_crystal_system       triclinic
_cell_length_a                    10.776337
_cell_length_b                    12.987821
_cell_length_c                    11.675194
_cell_angle_alpha                 99.46851
_cell_angle_beta                  93.546373
_cell_angle_gamma                 90.451755
_cell_volume                      1608.45382958

loop_
_atom_site_label
_atom_site_type_symbol
_atom_type_description
_atom_site_fract_x
_atom_site_fract_y
_atom_site_fract_z
_atom_type_partial_charge
C1    C     C_R   0.496366 0.299525 0.479089 0.782379
C2    C     C_R   0.406364 0.131651 0.378606 -0.218536
C3    C     C_R   0.545218 0.136352 0.551040 -0.254421
C4    C     C_R   0.262466 0.496813 0.500181 0.781583
C5    C     C_R   0.529228 0.029121 0.544505 0.124865
C6    C     C_R   0.449623 0.972046 0.454462 0.139076
C7    C     C_R   0.433430 0.863798 0.448973 0.176605
C8    C     C_R   0.576734 0.871879 0.621127 -0.241182
C9    C     C_R   0.590823 0.978835 0.627771 -0.217276
C10   C     C_R   0.379658 0.404656 0.023114 -0.335199
C11   C     C_R   0.391374 0.413633 0.145091 0.092303
C12   C     C_R   0.068261 0.414720 0.552888 0.096638
C13   C     C_R   0.553212 0.540088 0.156206 0.006863
C14   C     C_R   0.544202 0.534168 0.033653 0.065779
C15   C     C_R   0.456344 0.465304 0.966290 0.066949
C16   C     C_R   0.498916 0.700659 0.520838 0.813020
C17   C     C_R   0.447711 0.459058 0.843682 0.031403
C18   C     C_R   0.608206 0.586733 0.854986 0.096260
C19   C     C_R   0.620367 0.595286 0.976904 -0.336954
C20   C     C_R   0.737391 0.496348 0.499124 0.792141
C21   C     C_R   0.134699 0.337890 0.602966 -0.190654
C22   C     C_R   0.072272 0.263374 0.652370 -0.137809
C23   C     C_R   0.128713 0.490065 0.500020 -0.095851
C24   C     C_R   0.943104 0.262793 0.651288 -0.136580
C25   C     C_R   0.875577 0.336743 0.600815 -0.175832
C26   C     C_R   0.936951 0.414079 0.551673 0.097612
C27   C     C_3   0.381114 0.780123 0.247536 -0.653642
C28   C     C_R   0.060730 0.559412 0.442508 -0.202170
C29   C     C_R   0.932676 0.558733 0.441236 -0.205461
C30   C     C_R   0.870835 0.488725 0.497515 -0.098044
C31   C     C_R   0.500471 0.813873 0.531544 -0.112675
C32   C     C_R   0.484473 0.187243 0.468025 -0.034847
C33   C     C_R   0.387416 0.025080 0.372764 -0.186841
Cu1   Cu    Cu3+1 0.509250 0.507730 0.615930 0.931430
Cu2   Cu    Cu3+1 0.490750 0.492270 0.384070 0.933415
H1    H     H_    0.107345 0.615834 0.400339 0.143758
H2    H     H_    0.620408 0.592931 0.208912 0.125656
H3    H     H_    0.234742 0.333063 0.602558 0.140709
H4    H     H_    0.124302 0.204995 0.690305 0.134125
H5    H     H_    0.894864 0.203944 0.688350 0.128859
H6    H     H_    0.775333 0.331092 0.598784 0.143829
H7    H     H_    0.881565 0.614904 0.398582 0.144546
H8    H     H_    0.628383 0.833816 0.684455 0.160643
H9    H     H_    0.323722 0.985297 0.304283 0.172344
H10   H     H_    0.293346 0.749955 0.394636 0.248968
H11   H     H_    0.381894 0.694047 0.222013 0.241948
H12   H     H_    0.651369 0.022054 0.697090 0.142517
H13   H     H_    0.474872 0.812407 0.236924 0.221864
H14   H     H_    0.312435 0.811160 0.187756 0.215425
H15   H     H_    0.357025 0.171270 0.315307 0.148000
H16   H     H_    0.605190 0.180326 0.620461 0.138342
H17   H     H_    0.380764 0.406002 0.790972 0.118715
H18   H     H_    0.667335 0.634136 0.812123 0.124177
H19   H     H_    0.311042 0.350852 0.973782 0.139198
H20   H     H_    0.688758 0.649277 0.026263 0.137383
H21   H     H_    0.331735 0.366694 0.188024 0.124288
N1    N     N_R   0.523180 0.519350 0.790130 -0.181861
N2    N     N_R   0.476820 0.480650 0.209890 -0.183333
N3    N     N_2   0.344253 0.807199 0.365966 -0.441799
O1    O     O_R   0.506570 0.354460 0.582000 -0.600247
O2    O     O_R   0.490940 0.341410 0.386200 -0.582449
O3    O     O_R   0.327470 0.506530 0.597920 -0.583880
O4    O     O_R   0.311840 0.493480 0.402120 -0.588916
O5    O     O_R   0.509060 0.658590 0.613800 -0.585273
O6    O     O_R   0.493430 0.645540 0.418000 -0.574756
O7    O     O_R   0.688160 0.506520 0.597880 -0.589987
O8    O     O_R   0.672530 0.493470 0.402080 -0.577138

loop_
_geom_bond_atom_site_label_1
_geom_bond_atom_site_label_2
_ccdc_geom_bond_type
C27   H13   S    
Cu1   N1    S    
Cu2   O4    S    
C8    H8    S    
C5    C9    A    
C6    C7    A    
C13   N2    A    
C29   H7    S    
C11   N2    A    
C16   O5    A    
C18   N1    A    
C13   H2    S    
C4    O4    A    
C6    C33   A    
Cu2   O8    S    
Cu1   Cu2   S    
Cu1   O7    S    
Cu1   O5    S    
C2    C33   A    
C3    C32   A    
Cu2   O2    S    
C20   C30   S    
C13   C14   A    
C16   C31   S    
Cu1   O1    S    
C33   H9    S    
C12   C23   A    
C29   C30   A    
C11   H21   S    
Cu2   N2    S    
C22   H4    S    
C12   C21   A    
C27   H11   S    
C7    N3    S    
C28   C29   A    
C24   H5    S    
H10   N3    S    
C9    H12   S    
C10   C15   A    
C17   H17   S    
C12   C26   A    
C5    C6    A    
C10   H19   S    
C22   C24   A    
C7    C31   A    
C10   C11   A    
Cu2   O6    S    
C20   O8    A    
C19   H20   S    
C4    O3    A    
Cu1   O3    S    
C24   C25   A    
C28   H1    S    
C2    C32   A    
C18   C19   A    
C1    O1    A    
C20   O7    A    
C15   C17   A    
C4    C23   S    
C3    H16   S    
C14   C15   A    
C25   H6    S    
C27   N3    S    
C16   O6    A    
C2    H15   S    
C18   H18   S    
C25   C26   A    
C21   C22   A    
C8    C31   A    
C14   C19   A    
C1    C32   S    
C23   C28   A    
C21   H3    S    
C27   H14   S    
C17   N1    A    
C8    C9    A    
C3    C5    A    
C26   C30   A    
C1    O2    A    
