data_mof_unit_28728.cif
_audit_creation_date              2013-03-05T16:03:51-0500
_audit_creation_method            fapswitch 2.2
_symmetry_space_group_name_H-M    P1
_symmetry_Int_Tables_number       1
_space_group_crystal_system       triclinic
_cell_length_a                    6.936135
_cell_length_b                    17.653652
_cell_length_c                    19.534321
_cell_angle_alpha                 108.717769
_cell_angle_beta                  90.627152
_cell_angle_gamma                 91.007909
_cell_volume                      2264.73476074

loop_
_atom_site_label
_atom_site_type_symbol
_atom_site_description
_atom_site_fract_x
_atom_site_fract_y
_atom_site_fract_z
_atom_type_partial_charge
O1    O     O_R   0.505700 0.440210 0.561730 -0.582018
O2    O     O_R   0.169350 0.406300 0.412660 -0.594893
O3    O     O_R   0.005650 0.559790 0.438270 -0.594785
C1    C     C_R   0.336944 0.382255 0.385547 0.911708
O4    O     O_R   0.175560 0.430650 0.559600 -0.584542
O5    O     O_R   0.011900 0.584320 0.586250 -0.573552
C2    C     C_R   0.344770 0.411216 0.577351 0.952894
O6    O     O_R   0.499450 0.415680 0.413750 -0.589395
O7    O     O_3   0.341370 0.550390 0.508570 -0.266835
V1    V     V_3+5 0.063940 0.490650 0.498410 1.184291
O8    O     O_R   0.682570 0.593700 0.587340 -0.583346
C3    C     C_R   0.853954 0.617324 0.614390 0.981082
O9    O     O_R   0.676370 0.569350 0.440400 -0.591624
C4    C     C_R   0.845357 0.584118 0.418948 0.914042
V2    V     V_3+5 0.564750 0.509350 0.501590 1.188370
O10   O     O_3   0.837190 0.449610 0.491430 -0.266938
C5    C     C_R   0.933894 0.645554 0.252979 -0.088020
H1    H     H_    0.981406 0.617752 0.198146 0.135582
C6    C     C_R   0.924724 0.599673 0.299695 -0.161308
H2    H     H_    0.966946 0.537694 0.280322 0.127018
C7    C     C_R   0.857122 0.632955 0.370282 -0.113062
C8    C     C_R   0.804708 0.713447 0.394336 -0.168536
H3    H     H_    0.755395 0.740524 0.449052 0.115343
C9    C     C_R   0.819002 0.759993 0.348326 0.000592
H4    H     H_    0.780755 0.822374 0.368602 0.122524
C10   C     C_R   0.878842 0.726096 0.276405 0.162512
C11   C     C_R   0.728466 0.822705 0.218653 0.372606
C12   C     C_R   0.747050 0.870338 0.173240 -0.226779
H5    H     H_    0.627044 0.906484 0.167615 0.163971
C13   C     C_R   0.915579 0.870348 0.133792 -0.166499
C14   C     C_R   0.067660 0.821833 0.140752 -0.045908
H6    H     H_    0.198855 0.819727 0.110692 0.165621
C15   C     C_R   0.050931 0.773963 0.185389 -0.089791
H7    H     H_    0.169857 0.736473 0.188555 0.186814
C16   C     C_R   0.884298 0.774531 0.225980 -0.105624
H8    H     H_    0.522804 0.651093 0.913413 0.190163
C17   C     C_R   0.041793 0.897678 0.750986 -0.343017
C18   C     C_R   0.103139 0.908916 0.686709 0.424660
C19   C     C_R   0.096736 0.844121 0.622850 -0.217467
C20   C     C_R   0.023558 0.770094 0.622354 -0.239898
C21   C     C_R   0.956449 0.757966 0.686276 0.139219
C22   C     C_R   0.969122 0.822572 0.752342 0.086912
C23   C     C_R   0.872566 0.683591 0.684413 -0.263505
C24   C     C_R   0.799156 0.673911 0.748750 0.039549
C25   C     C_R   0.804958 0.739216 0.815001 -0.065758
C26   C     C_R   0.900265 0.812845 0.817466 -0.249940
C27   C     C_R   0.723233 0.599139 0.749806 0.163218
C28   C     C_R   0.604063 0.594945 0.805037 -0.192294
C29   C     C_R   0.596685 0.659266 0.867633 -0.184033
C30   C     C_R   0.715016 0.726810 0.876360 0.348095
H9    H     H_    0.047977 0.949018 0.799515 0.155846
H10   H     H_    0.143082 0.851270 0.572485 0.173919
H11   H     H_    0.016660 0.723104 0.570677 0.127803
H12   H     H_    0.539582 0.538281 0.804106 0.179054
H13   H     H_    0.537452 0.496445 0.204092 0.177352
C31   C     C_R   0.235014 0.216576 0.369744 -0.182956
C32   C     C_R   0.195222 0.137612 0.365493 -0.098802
C33   C     C_R   0.231433 0.075803 0.302351 -0.078101
C34   C     C_R   0.308448 0.092386 0.243005 -0.181589
C35   C     C_R   0.347609 0.172164 0.244825 0.126956
C36   C     C_R   0.309848 0.235512 0.310003 0.121040
C37   C     C_R   0.427902 0.188546 0.183830 -0.258977
C38   C     C_R   0.475369 0.270420 0.190044 -0.059580
C39   C     C_R   0.420500 0.333148 0.253760 0.120570
C40   C     C_R   0.347550 0.315975 0.314727 -0.269775
C41   C     C_R   0.574634 0.293808 0.135666 0.253395
C42   C     C_R   0.594558 0.375259 0.141318 0.225568
C43   C     C_R   0.522258 0.434005 0.200117 -0.251038
C44   C     C_R   0.439502 0.413747 0.256025 -0.189248
H14   H     H_    0.205250 0.262498 0.420249 0.107824
H15   H     H_    0.136683 0.124301 0.411607 0.134940
H16   H     H_    0.201029 0.014507 0.299491 0.166384
H17   H     H_    0.339366 0.041578 0.196270 0.114304
H18   H     H_    0.389783 0.462545 0.301315 0.138899
C45   C     C_R   0.547659 0.281179 0.682220 -0.125032
H19   H     H_    0.689377 0.265520 0.696295 0.110959
C46   C     C_R   0.534257 0.326853 0.635584 -0.123027
H20   H     H_    0.664933 0.341257 0.612390 0.150978
C47   C     C_R   0.355477 0.354265 0.619697 -0.145745
C48   C     C_R   0.188166 0.325704 0.644151 -0.136338
H21   H     H_    0.047162 0.339316 0.627948 0.150573
C49   C     C_R   0.200569 0.279122 0.690100 -0.096774
H22   H     H_    0.068283 0.259325 0.708605 0.119082
C50   C     C_R   0.381053 0.258553 0.711935 0.132682
C51   C     C_R   0.263585 0.230345 0.823149 -0.186553
H23   H     H_    0.154908 0.275092 0.828618 0.150625
C52   C     C_R   0.274127 0.190796 0.875177 0.385979
C53   C     C_R   0.419027 0.133622 0.869992 -0.239262
C54   C     C_R   0.553201 0.120013 0.814125 -0.076733
H24   H     H_    0.664940 0.076453 0.808823 0.140877
C55   C     C_R   0.540943 0.159799 0.762781 -0.032792
H25   H     H_    0.643749 0.145692 0.719449 0.123962
C56   C     C_R   0.394930 0.215103 0.766181 0.064286
O11   O     O_R   0.273230 0.084330 0.086440 -0.581092
O12   O     O_R   0.596660 0.069390 0.940470 -0.562851
O13   O     O_R   0.760270 0.915710 0.913690 -0.608755
C57   C     C_R   0.427717 0.084657 0.919227 1.018630
O14   O     O_R   0.603330 0.093680 0.087390 -0.572843
O15   O     O_R   0.766990 0.940160 0.061660 -0.579159
C58   C     C_R   0.435980 0.120421 0.113153 0.976700
O16   O     O_R   0.266510 0.059870 0.938470 -0.589986
O17   O     O_3   0.431050 0.949630 0.991510 -0.270977
V3    V     V_3+5 0.708490 0.009340 0.001580 1.284491
O18   O     O_R   0.096270 0.930570 0.059390 -0.604953
C59   C     C_R   0.928062 0.918728 0.083769 1.048005
O19   O     O_R   0.089600 0.906290 0.912460 -0.584817
C60   C     C_R   0.917758 0.881971 0.885859 1.002717
V4    V     V_3+5 0.207670 0.990600 0.998190 1.256846
O20   O     O_3   0.935250 0.050360 0.008480 -0.222487
N1    N     N_R   0.166215 0.986709 0.686064 0.227458
O21   O     O_R   0.260288 0.994800 0.631452 -0.410793
O22   O     O_R   0.118492 0.050545 0.737850 -0.451890
I1    I     I_    0.855448 0.489807 0.697228 -0.418249
N2    N     N_R   0.769473 0.771717 0.948761 0.211943
O23   O     O_R   0.639015 0.786814 0.998473 -0.412714
O24   O     O_R   0.949416 0.770456 0.967769 -0.445568
N3    N     N_R   0.680203 0.238184 0.080411 0.240517
O25   O     O_R   0.639000 0.229394 0.013248 -0.344149
O26   O     O_R   0.849097 0.217336 0.096806 -0.330670
I2    I     I_    0.749210 0.415134 0.065511 -0.212436
N4    N     N_R   0.140164 0.211280 0.933575 0.245893
O27   O     O_R   0.965709 0.231433 0.922743 -0.331605
O28   O     O_R   0.199211 0.221464 0.999454 -0.354399
N5    N     N_R   0.548037 0.821550 0.254021 0.217100
O29   O     O_R   0.479786 0.755394 0.261110 -0.435860
O30   O     O_R   0.440730 0.884400 0.271920 -0.453002

loop_
_geom_bond_atom_site_label_1
_geom_bond_atom_site_label_2
_geom_bond_distance
_ccdc_geom_bond_type
O15   V3    1.990098 S    
C52   C53   1.418245 A    
C21   C22   1.422459 A    
C6    H2    1.083560 S    
O18   V4    1.988436 S    
C1    O6    1.294817 A    
N2    O23   1.301720 A    
C46   H20   1.079954 S    
C31   C32   1.392123 A    
C28   H12   1.083247 S    
O11   V4    2.010517 S    
C37   C38   1.442927 A    
C5    C10   1.407910 A    
C4    C7    1.476122 S    
N5    O30   1.301170 A    
C12   H5    1.083418 S    
C6    C7    1.403651 A    
C9    C10   1.409294 A    
C3    C23   1.489976 S    
N3    O26   1.301140 A    
O5    C3    1.293030 A    
C18   C19   1.395596 A    
C17   H9    1.080867 S    
C45   C50   1.406810 A    
O19   C60   1.303938 A    
O14   V3    2.005446 S    
V4    O20   2.160117 S    
C35   C37   1.429498 A    
C22   C26   1.423573 A    
C17   C22   1.418473 A    
N1    O21   1.301536 A    
C5    C6    1.402413 A    
O8    V2    2.004347 S    
C27   C28   1.386137 A    
C43   C44   1.381066 A    
C41   N3    1.424020 S    
C14   C15   1.399872 A    
O17   V4    1.709984 S    
O1    V2    1.987702 S    
C54   C55   1.399597 A    
C42   I2    2.125174 S    
C34   H17   1.081423 S    
C53   C57   1.486612 S    
C24   C27   1.418953 A    
O16   V4    1.982767 S    
C46   C47   1.406157 A    
C41   C42   1.410553 A    
C38   C41   1.435396 A    
C34   C35   1.418723 A    
C7    C8    1.401970 A    
C21   C23   1.416262 A    
C51   C56   1.406911 A    
O18   C59   1.303533 A    
O12   V3    1.992828 S    
C5    H1    1.082961 S    
O4    C2    1.302710 A    
C51   C52   1.407607 A    
O15   C59   1.298861 A    
C42   C43   1.382994 A    
C9    H4    1.082880 S    
C48   C49   1.401362 A    
C19   C20   1.390681 A    
C52   N4    1.437272 S    
H13   C43   1.083032 S    
C11   C16   1.420955 A    
C33   C34   1.393144 A    
C25   C26   1.434484 A    
C49   H22   1.082494 S    
C38   C39   1.435571 A    
C35   C36   1.429710 A    
C30   N2    1.424629 S    
O2    C1    1.303285 A    
C45   H19   1.081983 S    
C17   C18   1.401990 A    
C55   C56   1.406397 A    
C14   H6    1.083114 S    
O11   C58   1.304214 A    
C13   C14   1.402902 A    
C11   N5    1.439105 S    
C26   C60   1.494566 S    
C15   H7    1.080115 S    
N4    O27   1.301315 A    
C44   H18   1.082460 S    
C31   C36   1.414432 A    
C39   C44   1.413052 A    
C32   H15   1.082597 S    
C45   C46   1.400344 A    
C51   H23   1.082676 S    
O3    C4    1.294100 A    
C37   C58   1.514607 S    
C28   C29   1.378208 A    
O13   C60   1.292916 A    
C20   H11   1.081470 S    
O6    V2    2.004851 S    
C49   C50   1.408774 A    
O9    V2    1.988492 S    
C23   C24   1.420111 A    
C8    C9    1.402131 A    
C18   N1    1.437943 S    
O2    V1    2.005497 S    
C55   H25   1.082210 S    
C24   C25   1.430111 A    
C2    C47   1.495195 S    
O7    V1    2.154167 S    
C27   I1    2.105173 S    
C20   C21   1.415087 A    
O1    C2    1.299497 A    
C48   H21   1.079244 S    
O5    V1    2.005615 S    
N2    O24   1.300879 A    
O8    C3    1.301394 A    
O12   C57   1.300086 A    
C31   H14   1.081755 S    
V3    O20   1.705587 S    
C39   C40   1.416268 A    
C12   C13   1.407140 A    
O7    V2    1.710214 S    
O4    V1    1.992809 S    
C13   C59   1.492205 S    
O3    V1    1.990146 S    
V1    O10   1.705555 S    
N3    O25   1.298685 A    
C33   H16   1.082336 S    
C32   C33   1.388409 A    
C1    C40   1.501571 S    
O19   V4    2.004451 S    
C25   C30   1.433135 A    
C15   C16   1.407132 A    
C19   H10   1.082787 S    
C50   C56   1.497521 S    
O17   V3    2.154125 S    
O14   C58   1.305018 A    
N1    O22   1.300646 A    
N4    O28   1.301360 A    
C47   C48   1.405452 A    
C36   C40   1.413105 A    
C10   C16   1.497678 S    
C53   C54   1.405924 A    
C29   C30   1.398770 A    
O13   V3    2.005439 S    
C11   C12   1.410020 A    
C8    H3    1.083384 S    
C54   H24   1.083673 S    
O9    C4    1.299058 A    
C57   O16   1.296375 A    
H8    C29   1.083244 S    
V2    O10   2.160211 S    
N5    O29   1.301173 A    
