data_mof_unit_46257.cif
_audit_creation_date              2012-12-11T14:45:26-0500
_audit_creation_method            fapswitch 2.2
_symmetry_space_group_name_H-M    P1
_symmetry_Int_Tables_number       1
_space_group_crystal_system       monoclinic
_cell_length_a                    25.007506
_cell_length_b                    7.173427
_cell_length_c                    14.324377
_cell_angle_alpha                 90.0
_cell_angle_beta                  103.312724
_cell_angle_gamma                 90.0
_cell_volume                      2500.59103116

loop_
_atom_site_label
_atom_site_type_symbol
_atom_type_description
_atom_site_fract_x
_atom_site_fract_y
_atom_site_fract_z
_atom_type_partial_charge
O1    O     O_R   0.319150 0.364170 0.330530 -0.542242
O2    O     O_R   0.680850 0.635830 0.669470 -0.531456
O3    O     O_R   0.180850 0.864170 0.169470 -0.542242
O4    O     O_R   0.819150 0.135830 0.830530 -0.531456
O5    O     O_R   0.210330 0.696850 0.354180 -0.551236
O6    O     O_R   0.789670 0.303150 0.645820 -0.530123
O7    O     O_R   0.289670 0.196850 0.145820 -0.551236
O8    O     O_R   0.710330 0.803150 0.854180 -0.530123
C1    C     C_R   0.197349 0.524621 0.378498 0.703539
C2    C     C_R   0.802413 0.475016 0.620952 0.734271
C3    C     C_R   0.302651 0.024621 0.121501 0.703539
C4    C     C_R   0.697587 0.975016 0.879048 0.734271
O9    O     O_R   0.320550 0.694110 0.341970 -0.538230
O10   O     O_R   0.679450 0.305890 0.658030 -0.538830
O11   O     O_R   0.179450 0.194110 0.158030 -0.538230
O12   O     O_R   0.820550 0.805890 0.841970 -0.538830
O13   O     O_R   0.291860 0.861000 0.157170 -0.528434
O14   O     O_R   0.708140 0.139000 0.842830 -0.547799
O15   O     O_R   0.208140 0.361000 0.342830 -0.528433
O16   O     O_R   0.791860 0.639000 0.657170 -0.547799
C5    C     C_R   0.341501 0.526274 0.363740 0.717669
C6    C     C_R   0.658090 0.474489 0.637391 0.704079
C7    C     C_R   0.158499 0.026274 0.136260 0.717670
C8    C     C_R   0.841910 0.974489 0.862609 0.704079
O17   O     O_3   0.240460 0.529330 0.189380 -0.379512
O18   O     O_3   0.759540 0.470670 0.810620 -0.379030
O19   O     O_3   0.259540 0.029330 0.310620 -0.379512
O20   O     O_3   0.740460 0.970670 0.689380 -0.379030
V1    V     V_3+5 0.251770 0.805510 0.261240 1.397977
V2    V     V_3+5 0.748230 0.194490 0.738760 1.438121
V3    V     V_3+5 0.248230 0.305510 0.238760 1.397977
V4    V     V_3+5 0.751770 0.694490 0.761240 1.438121
C9    C     C_R   0.103276 0.023618 0.070878 -0.112138
C10   C     C_R   0.897328 0.982922 0.927438 -0.124809
C11   C     C_R   0.396724 0.523618 0.429122 -0.112139
C12   C     C_R   0.602672 0.482922 0.572562 -0.124809
C13   C     C_R   0.958131 0.931524 0.084842 0.473887
C14   C     C_R   0.041673 0.100648 0.916738 0.493528
C15   C     C_R   0.541868 0.431524 0.415158 0.473887
C16   C     C_R   0.458326 0.600649 0.583262 0.493528
C17   C     C_R   0.905713 0.923661 0.022916 -0.243703
C18   C     C_R   0.094746 0.096823 0.977858 -0.271292
C19   C     C_R   0.594287 0.423661 0.477083 -0.243703
C20   C     C_R   0.405254 0.596823 0.522142 -0.271293
C21   C     C_R   0.942206 0.049343 0.893685 -0.195038
C22   C     C_R   0.057959 0.966059 0.105061 -0.211487
C23   C     C_R   0.557794 0.549343 0.606315 -0.195038
C24   C     C_R   0.442041 0.466059 0.394939 -0.211488
C25   C     C_R   0.995946 0.044549 0.952315 -0.002271
C26   C     C_R   0.004144 0.980325 0.048084 -0.003742
C27   C     C_R   0.504054 0.544549 0.547685 -0.002271
C28   C     C_R   0.495855 0.480325 0.451916 -0.003742
H1    H     H_    0.064949 0.915600 0.177450 0.135103
H2    H     H_    0.935188 0.099643 0.820794 0.185633
H3    H     H_    0.435051 0.415600 0.322549 0.135103
H4    H     H_    0.564812 0.599643 0.679206 0.185633
H5    H     H_    0.129383 0.149855 0.952478 0.120438
H6    H     H_    0.871175 0.875830 0.050228 0.131971
H7    H     H_    0.370617 0.649855 0.547522 0.120439
H8    H     H_    0.628824 0.375830 0.449772 0.131971
C29   C     C_R   0.666987 0.989190 0.955320 -0.152318
C30   C     C_R   0.336737 0.014502 0.050520 -0.131922
C31   C     C_R   0.833013 0.489190 0.544680 -0.152318
C32   C     C_R   0.163263 0.514502 0.449480 -0.131922
C33   C     C_R   0.657851 0.111259 0.108734 -0.215541
C34   C     C_R   0.343916 0.995718 0.884767 -0.208228
C35   C     C_R   0.842148 0.611260 0.391266 -0.215541
C36   C     C_R   0.156084 0.495718 0.615233 -0.208228
C37   C     C_R   0.690747 0.074805 0.044161 0.019489
C38   C     C_R   0.311294 0.006224 0.951709 0.022594
C39   C     C_R   0.809253 0.574805 0.455839 0.019489
C40   C     C_R   0.188706 0.506224 0.548291 0.022594
C41   C     C_R   0.611193 0.935366 0.934875 0.348212
C42   C     C_R   0.395005 0.001888 0.081550 0.346125
C43   C     C_R   0.888807 0.435366 0.565124 0.348212
C44   C     C_R   0.104995 0.501888 0.418450 0.346125
C45   C     C_R   0.576343 0.998907 0.994332 -0.021963
C46   C     C_R   0.427724 0.009275 0.012136 0.001969
C47   C     C_R   0.923657 0.498907 0.505668 -0.021963
C48   C     C_R   0.072276 0.509275 0.487864 0.001969
C49   C     C_R   0.601606 0.074859 0.084811 0.046859
C50   C     C_R   0.401210 0.997445 0.913698 0.050281
C51   C     C_R   0.898394 0.574859 0.415189 0.046859
C52   C     C_R   0.098790 0.497445 0.586302 0.050281
C53   C     C_R   0.517576 0.992957 0.967081 0.041029
C54   C     C_R   0.486321 0.025949 0.037302 0.063558
C55   C     C_R   0.982424 0.492957 0.532919 0.041029
C56   C     C_R   0.013679 0.525949 0.462698 0.063558
C57   C     C_R   0.514062 0.094585 0.127480 -0.129300
C58   C     C_R   0.489111 0.977132 0.870385 -0.138517
C59   C     C_R   0.985938 0.594586 0.372520 -0.129300
C60   C     C_R   0.010889 0.477132 0.629615 -0.138517
C61   C     C_R   0.570432 0.119843 0.150409 -0.199655
C62   C     C_R   0.432112 0.983613 0.844272 -0.204856
C63   C     C_R   0.929568 0.619843 0.349591 -0.199654
C64   C     C_R   0.067888 0.483613 0.655728 -0.204856
H9    H     H_    0.589806 0.178304 0.219689 0.170932
H10   H     H_    0.412025 0.975709 0.768794 0.152551
H11   H     H_    0.910194 0.678305 0.280311 0.170932
H12   H     H_    0.087974 0.475708 0.731206 0.152551
H13   H     H_    0.676097 0.175430 0.177285 0.131243
H14   H     H_    0.324239 0.982449 0.809221 0.130300
H15   H     H_    0.823903 0.675430 0.322715 0.131243
H16   H     H_    0.175760 0.482449 0.690779 0.130300
H17   H     H_    0.492463 0.147063 0.178386 0.192691
H18   H     H_    0.510132 0.973652 0.812582 0.205466
H19   H     H_    0.007537 0.647064 0.321614 0.192691
H20   H     H_    0.989868 0.473651 0.687417 0.205466
O21   O     O_3   0.963564 0.884214 0.180232 -0.579968
C65   C     C_3   0.973099 0.046869 0.237879 -0.287464
H21   H     H_    0.955452 0.025621 0.301326 0.166172
H22   H     H_    0.954265 0.175630 0.200667 0.149753
H23   H     H_    0.017704 0.070433 0.265823 0.179830
O22   O     O_3   0.033483 0.170544 0.824334 -0.556076
C66   C     C_3   0.059851 0.054350 0.769248 -0.289938
H24   H     H_    0.052432 0.903428 0.780070 0.139528
H25   H     H_    0.104584 0.084670 0.784829 0.144588
H26   H     H_    0.042832 0.084762 0.692223 0.182546
O23   O     O_3   0.536436 0.384214 0.319768 -0.579968
C67   C     C_3   0.526901 0.546869 0.262120 -0.287464
H27   H     H_    0.544548 0.525621 0.198674 0.166172
H28   H     H_    0.545735 0.675629 0.299333 0.149753
H29   H     H_    0.482296 0.570433 0.234177 0.179830
O24   O     O_3   0.466517 0.670545 0.675665 -0.556076
C68   C     C_3   0.440149 0.554350 0.730752 -0.289938
H30   H     H_    0.447567 0.403429 0.719930 0.139528
H31   H     H_    0.395415 0.584670 0.715171 0.144588
H32   H     H_    0.457168 0.584762 0.807777 0.182546
O25   O     O_3   0.419225 0.934517 0.172915 -0.567253
C69   C     C_3   0.410732 0.053774 0.246744 -0.246297
H33   H     H_    0.380186 0.991571 0.282703 0.177527
H34   H     H_    0.449696 0.064837 0.302251 0.166492
H35   H     H_    0.397871 0.196885 0.221227 0.111840
O26   O     O_3   0.592396 0.813265 0.859692 -0.561463
C70   C     C_3   0.590831 0.632768 0.898559 -0.205699
H36   H     H_    0.560998 0.624673 0.945311 0.131970
H37   H     H_    0.632334 0.587669 0.939023 0.135859
H38   H     H_    0.577009 0.531974 0.839384 0.150202
O27   O     O_3   0.080775 0.434517 0.327084 -0.567253
C71   C     C_3   0.089267 0.553774 0.253256 -0.246297
H39   H     H_    0.119813 0.491571 0.217297 0.177527
H40   H     H_    0.050304 0.564837 0.197749 0.166492
H41   H     H_    0.102129 0.696885 0.278773 0.111840
O28   O     O_3   0.907604 0.313265 0.640308 -0.561463
C72   C     C_3   0.909169 0.132768 0.601441 -0.205700
H42   H     H_    0.939002 0.124673 0.554690 0.131971
H43   H     H_    0.867666 0.087670 0.560976 0.135858
H44   H     H_    0.922990 0.031974 0.660615 0.150202
C73   C     C_3   0.249831 0.980537 0.915926 -0.354430
C74   C     C_3   0.236114 0.771564 0.907271 -0.280434
C75   C     C_3   0.174880 0.737251 0.868679 -0.805999
H45   H     H_    0.151014 0.800258 0.916960 0.238122
H46   H     H_    0.161183 0.796630 0.795479 0.225240
H47   H     H_    0.166872 0.584890 0.864952 0.215219
H48   H     H_    0.258816 0.704192 0.858048 0.188793
H49   H     H_    0.249110 0.704256 0.978815 0.212404
H50   H     H_    0.227036 0.048617 0.964593 0.149523
H51   H     H_    0.235802 0.048604 0.844676 0.168330
C76   C     C_3   0.750817 0.128182 0.074458 -0.327439
C77   C     C_3   0.780980 0.009093 0.159831 -0.325720
C78   C     C_3   0.833378 0.104906 0.213543 -0.771960
H52   H     H_    0.859177 0.141667 0.162905 0.239928
H53   H     H_    0.823280 0.234143 0.248664 0.226696
H54   H     H_    0.856474 0.009967 0.269729 0.222004
H55   H     H_    0.755046 0.983397 0.211934 0.197697
H56   H     H_    0.791295 0.871275 0.133123 0.184959
H57   H     H_    0.772471 0.112656 0.015460 0.151538
H58   H     H_    0.753102 0.278414 0.094377 0.177537
C79   C     C_3   0.250169 0.480537 0.584074 -0.354429
C80   C     C_3   0.263886 0.271564 0.592729 -0.280435
C81   C     C_3   0.325120 0.237251 0.631321 -0.805999
H59   H     H_    0.348986 0.300258 0.583040 0.238122
H60   H     H_    0.338816 0.296630 0.704520 0.225240
H61   H     H_    0.333128 0.084890 0.635048 0.215219
H62   H     H_    0.241184 0.204192 0.641952 0.188793
H63   H     H_    0.250890 0.204255 0.521185 0.212404
H64   H     H_    0.272964 0.548617 0.535407 0.149523
H65   H     H_    0.264197 0.548604 0.655324 0.168329
C82   C     C_3   0.749183 0.628182 0.425542 -0.327439
C83   C     C_3   0.719020 0.509093 0.340168 -0.325720
C84   C     C_3   0.666622 0.604906 0.286457 -0.771958
H66   H     H_    0.640823 0.641667 0.337095 0.239928
H67   H     H_    0.676720 0.734143 0.251336 0.226696
H68   H     H_    0.643526 0.509967 0.230271 0.222003
H69   H     H_    0.744954 0.483397 0.288066 0.197697
H70   H     H_    0.708705 0.371275 0.366877 0.184959
H71   H     H_    0.727529 0.612656 0.484540 0.151538
H72   H     H_    0.746898 0.778414 0.405623 0.177537

loop_
_geom_bond_atom_site_label_1
_geom_bond_atom_site_label_2
_ccdc_geom_bond_type
O17   V3    S    
C24   H3    S    
C81   H59   S    
O1    C5    A    
C50   C62   A    
C70   H38   S    
C1    C32   S    
O13   V1    S    
C79   C80   S    
C34   H14   S    
O3    C7    A    
C2    C31   S    
C71   H41   S    
C33   H13   S    
C55   C56   A    
C3    C30   S    
O15   V3    S    
C78   H54   S    
C47   C55   A    
C78   H52   S    
C35   H15   S    
C70   H36   S    
C14   C25   A    
C80   H63   S    
C84   H66   S    
C67   H27   S    
O7    C3    A    
C10   C17   A    
C9    C18   A    
O9    V1    S    
C71   H40   S    
C17   H6    S    
C14   C18   A    
C72   H42   S    
C14   O22   S    
C63   H11   S    
C84   H68   S    
O19   V1    S    
C80   C81   S    
C62   H10   S    
C20   H7    S    
C66   H24   S    
C33   C37   A    
O1    V3    S    
C76   H58   S    
C30   C38   A    
C12   C23   A    
O2    V4    S    
C1    O15   A    
C52   C64   A    
C75   H47   S    
C39   C82   S    
O3    V1    S    
C65   H21   S    
C78   H53   S    
C60   H20   S    
C2    O16   A    
C66   H25   S    
O2    C6    A    
C68   H32   S    
C75   H45   S    
O14   V2    S    
C45   C49   A    
C73   H51   S    
C16   C20   A    
C13   O21   S    
C67   H29   S    
C48   C52   A    
C46   C54   A    
O11   C7    A    
C15   C28   A    
C45   C53   A    
O12   C8    A    
C74   H49   S    
C55   C60   A    
C13   C17   A    
C9    C22   A    
C38   C73   S    
O10   V2    S    
C11   C24   A    
C18   H5    S    
C79   H64   S    
C72   H43   S    
C67   H28   S    
C58   C62   A    
O5    V1    S    
C80   H62   S    
C84   H67   S    
C60   C64   A    
C16   O24   S    
C81   H61   S    
O7    V3    S    
C27   C28   A    
C36   C52   A    
C59   H19   S    
C71   H39   S    
C58   H18   S    
C43   O28   S    
O18   V4    S    
C23   C27   A    
C82   H72   S    
C7    C9    S    
C53   C54   A    
C8    C10   S    
C36   C40   A    
O8    V4    S    
C69   H34   S    
O5    C1    A    
C34   C50   A    
C49   C61   A    
C46   C50   A    
C33   C49   A    
C76   C77   S    
C56   C59   A    
C21   C25   A    
O8    C4    A    
C66   H26   S    
C51   C63   A    
C32   C44   A    
O9    C5    A    
C10   C21   A    
C77   H55   S    
O23   C67   S    
O11   V3    S    
C11   C20   A    
C23   H4    S    
C65   H23   S    
C83   H70   S    
C19   H8    S    
O6    V2    S    
C31   C39   A    
C21   H2    S    
C77   H56   S    
C74   H48   S    
C68   H30   S    
C53   C58   A    
C69   H35   S    
C43   C47   A    
C57   H17   S    
C61   H9    S    
C79   H65   S    
C72   H44   S    
C35   C51   A    
C83   C84   S    
O25   C69   S    
O16   V4    S    
C44   O27   S    
C29   C37   A    
C70   H37   S    
C3    O13   A    
C44   C48   A    
O28   C72   S    
C54   C57   A    
O6    C2    A    
C15   C19   A    
O27   C71   S    
O22   C66   S    
O26   C70   S    
C5    C11   S    
O12   V4    S    
C16   C27   A    
C6    C12   S    
C22   C26   A    
C29   C41   A    
C77   C78   S    
O10   C6    A    
O20   V2    S    
C69   H33   S    
C48   C56   A    
C73   C74   S    
C40   C79   S    
C47   C51   A    
C4    C29   S    
C34   C38   A    
C31   C43   A    
O4    C8    A    
C15   O23   S    
C64   H12   S    
C22   H1    S    
C13   C26   A    
C37   C76   S    
C76   H57   S    
C35   C39   A    
C75   H46   S    
C57   C61   A    
C65   H22   S    
C83   H69   S    
C59   C63   A    
C82   C83   S    
C81   H60   S    
C24   C28   A    
C82   H71   S    
C41   O26   S    
C25   C26   A    
C42   C46   A    
C42   O25   S    
C4    O14   A    
C68   H31   S    
C41   C45   A    
C74   C75   S    
C30   C42   A    
C12   C19   A    
C36   H16   S    
O21   C65   S    
C73   H50   S    
O4    V2    S    
C32   C40   A    
O24   C68   S    
