data_mof_unit_47279.cif
_audit_creation_date              2013-03-05T16:12:49-0500
_audit_creation_method            fapswitch 2.2
_symmetry_space_group_name_H-M    P1
_symmetry_Int_Tables_number       1
_space_group_crystal_system       triclinic
_cell_length_a                    10.728007
_cell_length_b                    9.806729
_cell_length_c                    27.684243
_cell_angle_alpha                 91.314732
_cell_angle_beta                  89.43012
_cell_angle_gamma                 90.020081
_cell_volume                      2911.65586295

loop_
_atom_site_label
_atom_site_type_symbol
_atom_site_description
_atom_site_fract_x
_atom_site_fract_y
_atom_site_fract_z
_atom_type_partial_charge
O1    O     O_R   0.316770 0.614620 0.500000 -0.636226
O2    O     O_R   0.683230 0.385380 0.500000 -0.636296
O3    O     O_R   0.683230 0.614620 0.500000 -0.625737
O4    O     O_R   0.316770 0.385380 0.500000 -0.625817
C1    C     C_R   0.259755 0.499987 0.499978 0.887642
C2    C     C_R   0.740245 0.500013 0.500024 0.887672
O5    O     O_R   0.500030 0.614650 0.428760 -0.625746
O6    O     O_R   0.499970 0.385350 0.571240 -0.625651
O7    O     O_R   0.499970 0.614650 0.571240 -0.575312
O8    O     O_R   0.500030 0.385350 0.428760 -0.575355
C3    C     C_R   0.497710 0.498259 0.406004 0.956794
C4    C     C_R   0.502381 0.501746 0.593992 0.956771
Zn1   Zn    Zn3+2 0.500000 0.653120 0.500000 0.985094
Zn2   Zn    Zn3+2 0.500000 0.346880 0.500000 0.985062
C5    C     C_R   0.396552 0.513447 0.178640 0.642279
C6    C     C_R   0.605585 0.487700 0.821362 0.641252
O9    O     O_2   0.298280 0.556296 0.205661 -0.455439
O10   O     O_2   0.703906 0.445039 0.794332 -0.456183
N1    N     N_R   0.505005 0.482264 0.201125 -0.350033
N2    N     N_R   0.497042 0.518595 0.798887 -0.350338
C7    C     C_R   0.610115 0.444571 0.176210 0.545298
C8    C     C_R   0.391922 0.556205 0.823815 0.543990
C9    C     C_R   0.441128 0.380917 0.277431 0.473832
C10   C     C_R   0.560769 0.619208 0.722410 0.474121
C11   C     C_R   0.432816 0.388300 0.327860 0.280589
C12   C     C_R   0.568453 0.611615 0.671978 0.281227
C13   C     C_R   0.562572 0.592569 0.328041 -0.259981
C14   C     C_R   0.438183 0.407777 0.672101 -0.260163
C15   C     C_R   0.566898 0.587579 0.277913 -0.153775
C16   C     C_R   0.434400 0.412994 0.722235 -0.152860
C17   C     C_R   0.505975 0.482710 0.252663 0.125725
C18   C     C_R   0.495867 0.517766 0.747344 0.124878
C19   C     C_R   0.499300 0.475742 0.101363 -0.162513
C20   C     C_R   0.502865 0.525392 0.898649 -0.161961
C21   C     C_R   0.388664 0.503208 0.128056 -0.202037
C22   C     C_R   0.613502 0.497989 0.871949 -0.200996
C23   C     C_R   0.274139 0.511151 0.103338 0.392039
C24   C     C_R   0.728036 0.490103 0.896666 0.392039
C25   C     C_R   0.610064 0.439268 0.125424 -0.107804
C26   C     C_R   0.392058 0.561732 0.874595 -0.107511
C27   C     C_R   0.496502 0.493115 0.353323 -0.192468
C28   C     C_R   0.504186 0.506954 0.646667 -0.192887
H1    H     H_    0.611661 0.673591 0.347132 0.190279
H2    H     H_    0.388670 0.326859 0.653124 0.190156
H3    H     H_    0.616880 0.665583 0.258559 0.181918
H4    H     H_    0.384331 0.335294 0.741706 0.182049
C29   C     C_R   0.390943 0.536899 0.976042 0.048447
C30   C     C_R   0.611254 0.464307 0.023974 0.048495
C31   C     C_R   0.615471 0.489534 0.973789 -0.079162
C32   C     C_R   0.386725 0.511684 0.026224 -0.079200
C33   C     C_R   0.502994 0.516077 0.949572 0.046657
C34   C     C_R   0.499196 0.485115 0.050443 0.046798
C35   C     C_R   0.289767 0.595691 0.952313 -0.168390
C36   C     C_R   0.712425 0.405505 0.047705 -0.168346
C37   C     C_R   0.287917 0.606019 0.902404 0.449178
C38   C     C_R   0.714232 0.395059 0.097613 0.449123
O11   O     O_2   0.288227 0.586053 0.799073 -0.468237
O12   O     O_2   0.713718 0.414467 0.200966 -0.468560
C39   C     C_R   0.273440 0.502683 0.052789 0.285753
C40   C     C_R   0.728747 0.498550 0.947218 0.285857
H5    H     H_    0.212206 0.639109 0.972534 0.231848
H6    H     H_    0.790008 0.362134 0.027485 0.231880
C41   C     C_R   0.064091 0.377976 0.490367 -0.147775
C42   C     C_R   0.935908 0.622022 0.509643 -0.147548
C43   C     C_R   0.936331 0.377964 0.490440 -0.177734
C44   C     C_R   0.063668 0.622034 0.509569 -0.177669
H7    H     H_    0.112937 0.283185 0.482543 0.164745
H8    H     H_    0.887061 0.716812 0.517467 0.164848
H9    H     H_    0.887828 0.283139 0.482684 0.161919
H10   H     H_    0.112172 0.716859 0.517325 0.161922
C45   C     C_R   0.872631 0.500000 0.500053 -0.018292
C46   C     C_R   0.127368 0.500000 0.499954 -0.018325
C47   C     C_R   0.588434 0.073693 0.524767 -0.068188
C48   C     C_R   0.411568 0.926307 0.475231 -0.068172
C49   C     C_R   0.411529 0.070416 0.475257 -0.041364
C50   C     C_R   0.588478 0.929585 0.524738 -0.041424
H11   H     H_    0.658977 0.129790 0.544573 0.145363
H12   H     H_    0.341028 0.870210 0.455424 0.145410
H13   H     H_    0.340816 0.123876 0.455561 0.172517
H14   H     H_    0.659205 0.876127 0.544427 0.172742
N3    N     N_R   0.500000 0.857200 0.500000 -0.090864
N4    N     N_R   0.500000 0.142800 0.500000 -0.090857
Cl1   Cl    Cl    0.128049 0.516989 0.133899 -0.340602
Cl2   Cl    Cl    0.874120 0.484275 0.866101 -0.340793
Cl3   Cl    Cl    0.665895 0.729031 0.642146 -0.592840
Cl4   Cl    Cl    0.335152 0.270696 0.357490 -0.592563
O13   O     O_3   0.625371 0.719169 0.747805 -0.577887
C51   C     C_3   0.546772 0.833577 0.754798 0.070695
H15   H     H_    0.461547 0.805947 0.775727 0.154603
H16   H     H_    0.518755 0.875386 0.719407 0.173999
C52   C     C_3   0.617201 0.944085 0.783201 -0.257146
H17   H     H_    0.643055 0.904599 0.819072 0.240454
H18   H     H_    0.704179 0.970407 0.763335 0.265864
C53   C     C_3   0.538481 0.072729 0.790488 -0.905461
H19   H     H_    0.514064 0.115507 0.755007 0.265020
H20   H     H_    0.592116 0.150599 0.811337 0.286162
H21   H     H_    0.451604 0.049381 0.810843 0.274677
O14   O     O_3   0.377130 0.280956 0.251801 -0.578084
C54   C     C_3   0.455648 0.166292 0.245276 0.069178
H22   H     H_    0.477905 0.121481 0.280818 0.177813
H23   H     H_    0.544171 0.194418 0.226530 0.153840
C55   C     C_3   0.388540 0.058909 0.214192 -0.258607
H24   H     H_    0.297795 0.033070 0.231490 0.267057
H25   H     H_    0.369836 0.101216 0.178030 0.237567
C56   C     C_3   0.466140 0.929089 0.207949 -0.902636
H26   H     H_    0.557398 0.952169 0.190602 0.274639
H27   H     H_    0.415604 0.854144 0.184651 0.284120
H28   H     H_    0.482253 0.882773 0.243621 0.265841
Cl5   Cl    Cl    0.154019 0.682427 0.878184 -0.390630
Cl6   Cl    Cl    0.848137 0.318652 0.121828 -0.390552
Cl7   Cl    Cl    0.134450 0.444243 0.024984 -0.427395
Cl8   Cl    Cl    0.867744 0.556967 0.975022 -0.427347

loop_
_geom_bond_atom_site_label_1
_geom_bond_atom_site_label_2
_geom_bond_distance
_ccdc_geom_bond_type
O13   C51   1.412352 S    
C41   C43   1.370583 A    
C13   C15   1.387805 A    
O3    C2    1.279783 A    
N1    C17   1.426849 S    
C8    O11   1.347933 S    
C19   C34   1.414801 A    
C30   C36   1.405057 A    
C56   H27   1.111323 S    
C20   C33   1.414803 A    
C19   C25   1.417966 A    
C31   C40   1.418027 A    
O1    C1    1.279607 A    
C32   C39   1.418010 A    
C42   H8    1.083741 S    
C21   C23   1.415301 A    
C10   C12   1.398071 A    
C1    C46   1.420249 S    
C55   H25   1.112557 S    
Zn1   N3    2.001357 S    
C55   C56   1.526933 S    
C42   C45   1.397029 A    
C5    C21   1.405065 A    
O7    Zn1   2.016463 S    
C4    C28   1.458292 S    
C5    N1    1.363111 A    
C35   H5    1.080308 S    
C44   C46   1.397294 A    
C25   C38   1.413330 A    
C31   C33   1.413361 A    
C39   Cl7   1.773784 S    
O3    Zn1   2.001754 S    
C6    N2    1.363158 A    
C29   C35   1.405029 A    
C37   Cl5   1.765630 S    
O2    C2    1.279605 A    
C38   Cl6   1.765628 S    
O7    C4    1.286739 A    
C29   C32   1.416946 A    
C41   H7    1.083740 S    
C35   C37   1.388058 A    
C2    C45   1.420245 S    
C56   H28   1.111532 S    
C36   C38   1.388128 A    
C48   C49   1.413222 A    
O8    Zn2   2.016468 S    
C11   C27   1.412838 A    
C52   H17   1.111860 S    
C29   C33   1.414037 A    
C36   H6    1.080299 S    
C53   H21   1.110830 S    
C43   C45   1.397291 A    
C14   H2    1.083501 S    
C15   H3    1.082849 S    
C9    C17   1.404309 A    
O5    C3    1.291364 A    
C10   C18   1.404416 A    
C40   Cl8   1.773766 S    
C52   H18   1.111714 S    
C13   C27   1.401602 A    
C32   C34   1.413370 A    
C54   H22   1.114857 S    
C7    C25   1.405738 A    
C51   C52   1.528318 S    
C30   C34   1.414056 A    
O6    C4    1.291388 A    
C26   C37   1.413305 A    
C8    C26   1.405622 A    
C9    O14   1.383165 S    
C53   H19   1.110657 S    
C51   H15   1.114239 S    
C53   H20   1.110615 S    
C23   C39   1.400064 A    
C24   C40   1.400149 A    
C30   C31   1.417039 A    
C54   H23   1.115279 S    
C51   H16   1.114814 S    
C47   C50   1.413214 A    
C20   C26   1.417922 A    
O1    Zn1   2.001494 S    
Zn2   N4    2.001357 S    
C48   N3    1.365375 A    
C22   C24   1.415341 A    
C47   N4    1.365366 A    
C12   C28   1.412776 A    
N2    C18   1.426941 S    
C5    O9    1.348281 S    
O6    Zn2   1.999459 S    
C24   Cl2   1.773917 S    
C16   H4    1.082818 S    
C50   H14   1.081318 S    
N2    C8    1.362788 A    
O4    C1    1.279784 A    
C50   N3    1.365302 A    
C49   N4    1.365306 A    
C56   H26   1.111664 S    
C14   C16   1.387898 A    
C7    O12   1.347914 S    
C15   C17   1.396097 A    
C6    C22   1.405203 A    
C52   C53   1.526817 S    
C16   C18   1.396276 A    
C44   H10   1.083676 S    
C12   Cl3   1.768145 S    
C43   H9    1.083677 S    
C14   C28   1.401483 A    
C11   Cl4   1.768116 S    
C19   C21   1.414565 A    
C3    C27   1.458340 S    
C20   C22   1.414574 A    
C9    C11   1.398257 A    
O4    Zn2   2.001754 S    
C55   H24   1.112371 S    
O2    Zn2   2.001494 S    
C10   O13   1.383160 S    
O8    C3    1.286804 A    
C13   H1    1.083505 S    
O5    Zn1   1.999464 S    
C54   C55   1.529044 S    
C41   C46   1.397029 A    
C6    O10   1.348266 S    
O14   C54   1.412423 S    
C48   H12   1.081718 S    
C47   H11   1.081718 S    
C23   Cl1   1.773937 S    
C49   H13   1.081341 S    
C42   C44   1.370587 A    
N1    C7    1.362740 A    
