data_mof_unit_31405.cif
_audit_creation_date              2012-12-10T17:49:39-0500
_audit_creation_method            fapswitch 2.2
_symmetry_space_group_name_H-M    P1
_symmetry_Int_Tables_number       1
_space_group_crystal_system       triclinic
_cell_length_a                    14.750992
_cell_length_b                    14.656983
_cell_length_c                    15.876265
_cell_angle_alpha                 76.348647
_cell_angle_beta                  102.291508
_cell_angle_gamma                 114.959039
_cell_volume                      2998.94067642

loop_
_atom_site_label
_atom_site_type_symbol
_atom_type_description
_atom_site_fract_x
_atom_site_fract_y
_atom_site_fract_z
_atom_type_partial_charge
C1    C     C_R   0.880424 0.311853 0.515259 0.803888
C2    C     C_R   0.186838 0.798050 0.483377 -0.132324
C3    C     C_R   0.784805 0.022611 0.570419 0.268835
C4    C     C_R   0.999506 0.499997 0.659498 0.820082
C5    C     C_R   0.850674 0.126360 0.557120 -0.218951
C6    C     C_R   0.709174 0.176725 0.514427 -0.261404
C7    C     C_R   0.640792 0.075160 0.531022 0.055561
C8    C     C_R   0.679033 0.997194 0.554956 0.077463
C9    C     C_R   0.535026 0.049612 0.521616 0.092598
C10   C     C_R   0.466989 0.946137 0.523274 0.103236
C11   C     C_R   0.507318 0.870216 0.544969 -0.219326
C12   C     C_3   0.018819 0.405870 0.073713 -0.507344
C13   C     C_R   0.610594 0.895242 0.561444 -0.223046
C14   C     C_R   0.495497 0.124314 0.513370 -0.258513
C15   C     C_R   0.392703 0.099710 0.501027 -0.169576
C16   C     C_R   0.119573 0.688532 0.486053 0.827014
C17   C     C_R   0.324167 0.999672 0.495341 0.088030
C18   C     C_R   0.360958 0.922104 0.505292 0.016688
C19   C     C_R   0.219666 0.977295 0.479852 0.333529
C20   C     C_R   0.150214 0.875511 0.473834 0.151636
C21   C     C_R   0.290782 0.823236 0.495826 -0.321357
C22   C     C_R   0.707904 0.654245 0.341902 -0.322301
C23   C     C_3   0.000351 0.499437 0.083210 0.211086
C24   C     C_R   0.790188 0.626114 0.367948 0.030533
C25   C     C_R   0.718438 0.518854 0.494717 0.511035
C26   C     C_R   0.627452 0.535153 0.465572 -0.042400
C27   C     C_R   0.626533 0.609452 0.390748 0.102404
C28   C     C_R   0.000510 0.500052 0.340480 0.817350
C29   C     C_R   0.537995 0.480888 0.507945 0.104319
C30   C     C_R   0.455912 0.513569 0.483733 0.077418
C31   C     C_R   0.462535 0.594204 0.412688 -0.229252
C32   C     C_R   0.544754 0.638714 0.365673 -0.171489
C33   C     C_R   0.525015 0.390658 0.569150 -0.196080
C34   C     C_3   0.086486 0.596375 0.044869 -0.404324
C35   C     C_R   0.440860 0.340550 0.612692 -0.207610
C36   C     C_R   0.362526 0.374785 0.594463 0.133144
C37   C     C_R   0.368696 0.461755 0.529356 -0.067220
C38   C     C_R   0.276762 0.321924 0.639101 0.152593
C39   C     C_R   0.199106 0.357039 0.619118 0.005682
C40   C     C_3   0.008046 0.400244 0.975303 0.146359
C41   C     C_R   0.285965 0.491749 0.512162 -0.003053
C42   C     C_3   0.897530 0.499179 0.930621 -0.506483
C43   C     C_3   0.896285 0.493556 0.029800 0.269232
C44   C     C_1   0.001327 0.499726 0.251074 -0.166536
C45   C     C_3   0.082925 0.598465 0.946396 -0.388343
C46   C     C_3   0.998728 0.499339 0.916751 0.247336
C47   C     C_3   0.187379 0.441683 0.954762 -0.654588
C48   C     C_3   0.003628 0.866946 0.368085 -0.664447
C49   C     C_3   0.928563 0.966470 0.603796 -0.715107
C50   C     C_3   0.226080 0.139615 0.666612 -0.674804
C51   C     C_1   0.001260 0.499550 0.175557 -0.025298
C52   C     C_1   0.998192 0.499901 0.824377 -0.041301
C53   C     C_1   0.998454 0.500086 0.748870 -0.154824
C54   C     C_R   0.812964 0.202995 0.528374 -0.106831
Cu1   Cu    Cu3+1 0.081750 0.475690 0.522550 0.935471
Cu2   Cu    Cu3+1 0.918250 0.524310 0.477450 0.963870
H1    H     H_    0.963087 0.334425 0.106390 0.143156
H2    H     H_    0.461163 0.789726 0.553076 0.146567
H3    H     H_    0.542298 0.202626 0.519536 0.136129
H4    H     H_    0.544670 0.697431 0.309449 0.141488
H5    H     H_    0.283675 0.555906 0.463417 0.129498
H6    H     H_    0.132228 0.316625 0.651710 0.130279
H7    H     H_    0.437235 0.273086 0.660335 0.181965
H8    H     H_    0.707316 0.709716 0.283207 0.150613
H9    H     H_    0.851469 0.658638 0.328709 0.149671
H10   H     H_    0.887029 0.568559 0.891326 0.199771
H11   H     H_    0.403330 0.622098 0.389260 0.130649
H12   H     H_    0.094553 0.410824 0.107539 0.200982
H13   H     H_    0.576485 0.353076 0.581855 0.170021
H14   H     H_    0.832831 0.432729 0.906671 0.155290
H15   H     H_    0.837855 0.418301 0.053352 0.134844
H16   H     H_    0.158117 0.611789 0.932196 0.174646
H17   H     H_    0.067311 0.665766 0.908586 0.161420
H18   H     H_    0.160746 0.597399 0.079819 0.170757
H19   H     H_    0.076214 0.297724 0.986672 0.248145
H20   H     H_    0.235584 0.399920 0.956262 0.214593
H21   H     H_    0.215051 0.481277 0.012327 0.219354
H22   H     H_    0.195442 0.497077 0.892945 0.233235
H23   H     H_    0.081227 0.666557 0.054640 0.166847
H24   H     H_    0.017989 0.875908 0.500120 0.243349
H25   H     H_    0.037351 0.948804 0.338965 0.218950
H26   H     H_    0.920826 0.843281 0.362753 0.223335
H27   H     H_    0.018919 0.820919 0.330631 0.229122
H28   H     H_    0.791105 0.891759 0.654076 0.248370
H29   H     H_    0.940865 0.894282 0.619850 0.232080
H30   H     H_    0.973600 0.013374 0.655370 0.218174
H31   H     H_    0.953944 0.006596 0.539082 0.233539
H32   H     H_    0.115153 0.033320 0.459683 0.329803
H33   H     H_    0.755505 0.418451 0.576826 0.339915
H34   H     H_    0.635936 0.833121 0.577487 0.165858
H35   H     H_    0.229987 0.226417 0.753621 0.248118
H36   H     H_    0.222427 0.074200 0.719992 0.223137
H37   H     H_    0.274643 0.143409 0.620222 0.262386
H38   H     H_    0.148890 0.126430 0.631985 0.226503
H39   H     H_    0.913971 0.636219 0.016338 0.328681
H40   H     H_    0.315538 0.763728 0.496673 0.173138
H41   H     H_    0.367444 0.160679 0.495275 0.198457
H42   H     H_    0.931464 0.148399 0.569465 0.163750
H43   H     H_    0.682861 0.237170 0.487684 0.160368
H44   H     H_    0.934265 0.336500 0.961239 0.099114
N1    N     N_R   0.795410 0.560790 0.443550 -0.204484
N2    N     N_R   0.204590 0.439170 0.556520 -0.190338
N3    N     N_2   0.083383 0.370404 0.955994 -0.419775
N4    N     N_2   0.044388 0.850455 0.459056 -0.405769
N5    N     N_2   0.822509 0.943357 0.601117 -0.427827
N6    N     N_2   0.267113 0.232937 0.702896 -0.451994
O1    O     O_R   0.977910 0.338120 0.529720 -0.585827
O2    O     O_3   0.734477 0.473157 0.579241 -0.741493
O3    O     O_3   0.867946 0.568815 0.043724 -0.718832
O4    O     O_R   0.839850 0.379180 0.491640 -0.612698
O5    O     O_R   0.069060 0.479460 0.639610 -0.579258
O6    O     O_R   0.931000 0.520530 0.601530 -0.545521
O7    O     O_R   0.160150 0.620820 0.508360 -0.597656
O8    O     O_R   0.022090 0.661880 0.470280 -0.540062
O9    O     O_R   0.069000 0.479470 0.398470 -0.575950
O10   O     O_R   0.930940 0.520540 0.360390 -0.577609
O11   O     O_3   0.189205 0.057033 0.470521 -0.773231

loop_
_geom_bond_atom_site_label_1
_geom_bond_atom_site_label_2
_ccdc_geom_bond_type
Cu1   Cu2   S    
C38   N6    S    
C8    C13   A    
C29   C33   A    
C4    C53   S    
C18   C21   A    
C49   H31   S    
C19   C20   A    
C41   H5    S    
C1    C54   S    
C16   O7    A    
C7    C8    A    
C45   C46   S    
C3    N5    S    
C40   C46   S    
C14   H3    S    
C12   H12   S    
C12   C23   S    
C26   C27   A    
H24   N4    S    
C36   C37   A    
C6    C54   A    
C47   H20   S    
C30   C31   A    
C1    O4    A    
C48   N4    S    
C46   C52   S    
C42   H14   S    
C23   C43   S    
C48   H25   S    
C45   H17   S    
C24   N1    A    
C42   C46   S    
C28   O10   A    
C17   C19   A    
C35   C36   A    
C11   H2    S    
C2    C16   S    
C9    C10   A    
C33   H13   S    
C4    O6    A    
C45   H16   S    
H19   N3    S    
H35   N6    S    
C15   H41   S    
Cu2   O4    S    
H28   N5    S    
C47   N3    S    
C2    C20   A    
C49   H29   S    
C5    C54   A    
C3    C8    A    
H39   O3    S    
C50   H38   S    
C49   N5    S    
Cu1   O7    S    
C25   C26   A    
C28   C44   S    
C30   C37   A    
Cu1   O1    S    
C12   C40   S    
C31   H11   S    
C9    C14   A    
C40   H44   S    
C29   C30   A    
C28   O9    A    
C34   H23   S    
C23   C51   S    
C31   C32   A    
Cu1   N2    S    
C23   C34   S    
C2    C21   A    
C17   C18   A    
Cu2   O10   S    
C34   C45   S    
C24   H9    S    
C1    O1    A    
C12   H1    S    
Cu2   O8    S    
C44   C51   T    
C50   H36   S    
C4    O5    A    
C34   H18   S    
C22   C27   A    
C22   C24   A    
C13   H34   S    
C42   C43   S    
C47   H21   S    
C41   N2    A    
C52   C53   T    
C39   N2    A    
C42   H10   S    
C15   C17   A    
C39   H6    S    
C43   H15   S    
Cu1   O5    S    
C27   C32   A    
C49   H30   S    
C3    C5    A    
C16   O8    A    
Cu2   N1    S    
C50   H37   S    
C6    C7    A    
C20   N4    S    
C21   H40   S    
C48   H27   S    
C6    H43   S    
C36   C38   A    
C40   N3    S    
C11   C13   A    
C25   N1    A    
C38   C39   A    
Cu1   O9    S    
C10   C18   A    
H33   O2    S    
C33   C35   A    
C48   H26   S    
C37   C41   A    
C10   C11   A    
C22   H8    S    
C7    C9    A    
C5    H42   S    
C19   O11   S    
C26   C29   A    
C50   N6    S    
C32   H4    S    
C14   C15   A    
C35   H7    S    
C43   O3    S    
C47   H22   S    
H32   O11   S    
Cu2   O6    S    
C25   O2    S    
