data_mof_unit_60784.cif
_audit_creation_date              2012-10-26T18:19:37-0400
_audit_creation_method            fapswitch 2.2
_symmetry_space_group_name_H-M    P1
_symmetry_Int_Tables_number       1
_space_group_crystal_system       monoclinic
_cell_length_a                    18.374264
_cell_length_b                    30.661407
_cell_length_c                    30.812198
_cell_angle_alpha                 90.0
_cell_angle_beta                  89.407609
_cell_angle_gamma                 90.0
_cell_volume                      17358.0725358

loop_
_atom_site_label
_atom_site_type_symbol
_atom_type_description
_atom_site_fract_x
_atom_site_fract_y
_atom_site_fract_z
_atom_type_partial_charge
C1    C     C_R   0.499535 0.690483 0.309267 0.551113
C2    C     C_R   0.444775 0.623655 0.595262 0.028330
C3    C     C_R   0.139745 0.750150 0.249986 0.555602
C4    C     C_R   0.360255 0.250150 0.750014 0.555603
C5    C     C_R   0.360255 0.249845 0.250039 0.557479
C6    C     C_R   0.639745 0.249845 0.749961 0.557483
C7    C     C_R   0.639745 0.250150 0.249986 0.555599
C8    C     C_3   0.595568 0.902632 0.186919 -0.269300
C9    C     C_3   0.404439 0.902635 0.813079 -0.269298
C10   C     C_3   0.095533 0.402646 0.186932 -0.269292
C11   C     C_3   0.904401 0.402620 0.813093 -0.269309
C12   C     C_3   0.095532 0.902646 0.686932 -0.269294
C13   C     C_R   0.055219 0.123660 0.404742 0.028328
C14   C     C_3   0.904466 0.902646 0.313068 -0.269292
C15   C     C_3   0.595501 0.402658 0.686944 -0.269285
C16   C     C_3   0.404428 0.402630 0.313083 -0.269303
C17   C     C_R   0.500279 0.940622 0.940599 0.552219
C18   C     C_R   0.499721 0.940622 0.059401 0.552219
C19   C     C_R   0.000279 0.440622 0.940599 0.552219
C20   C     C_R   0.999721 0.440622 0.059401 0.552219
C21   C     C_R   0.000279 0.940622 0.440599 0.552217
C22   C     C_R   0.999721 0.940622 0.559401 0.552217
C23   C     C_R   0.500279 0.440622 0.440599 0.552216
C24   C     C_R   0.944768 0.123651 0.595267 0.028333
C25   C     C_R   0.499721 0.440623 0.559401 0.552218
C26   C     C_R   0.500311 0.559427 0.440469 0.548785
C27   C     C_R   0.499689 0.559427 0.559531 0.548782
C28   C     C_R   0.000311 0.059427 0.440470 0.548784
C29   C     C_R   0.999689 0.059427 0.559531 0.548782
C30   C     C_R   0.000311 0.559427 0.940469 0.548785
C31   C     C_R   0.999689 0.559427 0.059531 0.548784
C32   C     C_R   0.500311 0.059427 0.940469 0.548785
C33   C     C_R   0.499689 0.059427 0.059531 0.548783
C34   C     C_R   0.499757 0.809355 0.190723 0.551570
C35   C     C_R   0.055228 0.623654 0.904736 0.028331
C36   C     C_R   0.500243 0.809355 0.809277 0.551571
C37   C     C_R   0.999757 0.309355 0.190723 0.551571
C38   C     C_R   0.000243 0.309355 0.809277 0.551569
C39   C     C_R   0.999757 0.809355 0.690723 0.551571
C40   C     C_R   0.000243 0.809355 0.309277 0.551571
C41   C     C_R   0.499757 0.309355 0.690723 0.551572
C42   C     C_R   0.500243 0.309355 0.309277 0.551570
C43   C     C_1   0.282662 0.750427 0.250039 -0.050701
C44   C     C_1   0.282662 0.749563 0.750050 -0.053087
C45   C     C_1   0.717338 0.749563 0.249950 -0.053087
C46   C     C_R   0.944776 0.623656 0.095261 0.028330
C47   C     C_1   0.717338 0.750427 0.749961 -0.050701
C48   C     C_1   0.782662 0.250427 0.250039 -0.050701
C49   C     C_1   0.782662 0.249563 0.750050 -0.053087
C50   C     C_1   0.217338 0.249563 0.249950 -0.053086
C51   C     C_1   0.217338 0.250427 0.749961 -0.050701
C52   C     C_1   0.782662 0.750427 0.750039 -0.050701
C53   C     C_1   0.782662 0.749563 0.250050 -0.053086
C54   C     C_1   0.217338 0.749563 0.749950 -0.053086
C55   C     C_1   0.217338 0.750427 0.249961 -0.050701
C56   C     C_1   0.282662 0.250427 0.750039 -0.050700
C57   C     C_R   0.555220 0.123659 0.904741 0.028329
C58   C     C_1   0.282662 0.249563 0.250050 -0.053087
C59   C     C_1   0.717338 0.249563 0.749950 -0.053086
C60   C     C_1   0.717338 0.250427 0.249961 -0.050701
C61   C     C_R   0.554031 0.656041 0.373591 0.015465
C62   C     C_R   0.445970 0.656042 0.626408 0.015465
C63   C     C_R   0.054024 0.156045 0.373596 0.015468
C64   C     C_R   0.945962 0.156037 0.626413 0.015462
C65   C     C_R   0.054033 0.656040 0.873590 0.015464
C66   C     C_R   0.945971 0.656042 0.126407 0.015466
C67   C     C_R   0.554025 0.156045 0.873595 0.015468
C68   C     C_R   0.444768 0.123651 0.095267 0.028332
C69   C     C_R   0.445963 0.156037 0.126413 0.015463
C70   C     C_R   0.500652 0.656402 0.341766 0.019197
C71   C     C_R   0.499348 0.656402 0.658234 0.019197
C72   C     C_R   0.000653 0.156402 0.341766 0.019194
C73   C     C_R   0.999348 0.156402 0.658234 0.019201
C74   C     C_R   0.000652 0.656402 0.841766 0.019198
C75   C     C_R   0.999348 0.656402 0.158234 0.019196
C76   C     C_R   0.500653 0.156402 0.841766 0.019194
C77   C     C_R   0.499348 0.156402 0.158234 0.019200
C78   C     C_R   0.452855 0.620731 0.338881 -0.152082
C79   C     C_3   0.577110 0.654868 0.439443 -0.275133
C80   C     C_R   0.547143 0.620730 0.661120 -0.152083
C81   C     C_R   0.952864 0.120727 0.338877 -0.152083
C82   C     C_R   0.047153 0.120734 0.661116 -0.152083
C83   C     C_R   0.952852 0.620732 0.838882 -0.152082
C84   C     C_R   0.047142 0.620729 0.161120 -0.152082
C85   C     C_R   0.452863 0.120728 0.838878 -0.152082
C86   C     C_R   0.547153 0.120734 0.161116 -0.152083
C87   C     C_R   0.452547 0.588611 0.371224 -0.155977
C88   C     C_R   0.547451 0.588611 0.628777 -0.155982
C89   C     C_R   0.952556 0.088608 0.371220 -0.155978
C90   C     C_3   0.422893 0.654869 0.560556 -0.275133
C91   C     C_R   0.047461 0.088615 0.628773 -0.155981
C92   C     C_R   0.952545 0.588612 0.871224 -0.155975
C93   C     C_R   0.047450 0.588610 0.128777 -0.155979
C94   C     C_R   0.452555 0.088608 0.871221 -0.155976
C95   C     C_R   0.547460 0.088615 0.128773 -0.155979
C96   C     C_R   0.501800 0.591285 0.405714 0.016165
C97   C     C_R   0.498200 0.591285 0.594286 0.016165
C98   C     C_R   0.001800 0.091285 0.405715 0.016169
C99   C     C_R   0.998200 0.091285 0.594286 0.016161
C100  C     C_R   0.001800 0.591285 0.905714 0.016164
C101  C     C_3   0.077086 0.154875 0.439450 -0.275139
C102  C     C_R   0.998200 0.591285 0.094286 0.016166
C103  C     C_R   0.501800 0.091285 0.905715 0.016168
C104  C     C_R   0.498200 0.091285 0.094286 0.016161
C105  C     C_R   0.500465 0.690483 0.690733 0.551113
C106  C     C_3   0.922869 0.154862 0.560564 -0.275128
C107  C     C_3   0.077115 0.654867 0.939441 -0.275131
C108  C     C_3   0.922898 0.654870 0.060555 -0.275135
C109  C     C_3   0.577090 0.154874 0.939449 -0.275138
C110  C     C_3   0.422870 0.154862 0.060563 -0.275127
C111  C     C_3   0.575569 0.690483 0.405159 -0.268797
C112  C     C_3   0.424434 0.690484 0.594840 -0.268796
C113  C     C_3   0.075546 0.190489 0.405166 -0.268792
C114  C     C_3   0.924410 0.190477 0.594847 -0.268802
C115  C     C_3   0.075575 0.690481 0.905157 -0.268798
C116  C     C_R   0.999535 0.190483 0.309267 0.551113
C117  C     C_3   0.924438 0.690485 0.094839 -0.268796
C118  C     C_3   0.575550 0.190488 0.905164 -0.268794
C119  C     C_3   0.424411 0.190477 0.094847 -0.268802
C120  C     C_R   0.540419 0.879670 0.160211 0.018653
C121  C     C_R   0.459584 0.879671 0.839788 0.018653
C122  C     C_R   0.040404 0.379676 0.160216 0.018657
C123  C     C_R   0.959567 0.379665 0.839794 0.018648
C124  C     C_R   0.040404 0.879676 0.660216 0.018657
C125  C     C_R   0.959595 0.879676 0.339784 0.018657
C126  C     C_R   0.540391 0.379681 0.660221 0.018661
C127  C     C_R   0.000465 0.190483 0.690733 0.551112
C128  C     C_R   0.459579 0.379669 0.339790 0.018652
C129  C     C_R   0.497984 0.842422 0.157522 0.019835
C130  C     C_R   0.502016 0.842422 0.842478 0.019834
C131  C     C_R   0.997984 0.342422 0.157522 0.019829
C132  C     C_R   0.002016 0.342422 0.842478 0.019841
C133  C     C_R   0.997984 0.842422 0.657521 0.019829
C134  C     C_R   0.002016 0.842422 0.342478 0.019829
C135  C     C_R   0.497984 0.342422 0.657521 0.019824
C136  C     C_R   0.502016 0.342422 0.342478 0.019836
C137  C     C_R   0.453699 0.837693 0.120638 -0.151728
C138  C     C_R   0.999535 0.690483 0.809267 0.551113
C139  C     C_R   0.546298 0.837692 0.879363 -0.151728
C140  C     C_R   0.953714 0.337687 0.120632 -0.151728
C141  C     C_R   0.046315 0.337698 0.879355 -0.151729
C142  C     C_R   0.953715 0.837687 0.620632 -0.151729
C143  C     C_R   0.046286 0.837687 0.379368 -0.151729
C144  C     C_R   0.453729 0.337682 0.620626 -0.151728
C145  C     C_R   0.546303 0.337694 0.379361 -0.151729
C146  C     C_R   0.453129 0.870329 0.088393 -0.153835
C147  C     C_R   0.546868 0.870328 0.911608 -0.153835
C148  C     C_R   0.953145 0.370323 0.088387 -0.153835
C149  C     C_R   0.000465 0.690483 0.190733 0.551113
C150  C     C_R   0.046885 0.370334 0.911601 -0.153835
C151  C     C_R   0.953145 0.870323 0.588387 -0.153837
C152  C     C_R   0.046856 0.870323 0.411613 -0.153837
C153  C     C_R   0.453159 0.370318 0.588381 -0.153837
C154  C     C_R   0.546873 0.370330 0.411606 -0.153836
C155  C     C_R   0.498733 0.907130 0.092109 0.020313
C156  C     C_R   0.501267 0.907130 0.907891 0.020314
C157  C     C_R   0.998733 0.407130 0.092109 0.020320
C158  C     C_R   0.001268 0.407129 0.907891 0.020307
C159  C     C_R   0.998733 0.907130 0.592109 0.020320
C160  C     C_R   0.499535 0.190483 0.809267 0.551113
C161  C     C_R   0.001267 0.907130 0.407891 0.020319
C162  C     C_R   0.498733 0.407130 0.592109 0.020325
C163  C     C_R   0.501267 0.407130 0.407891 0.020312
C164  C     C_R   0.541943 0.910052 0.128564 0.017936
C165  C     C_R   0.458059 0.910053 0.871435 0.017936
C166  C     C_R   0.041929 0.410058 0.128569 0.017933
C167  C     C_R   0.958043 0.410046 0.871441 0.017939
C168  C     C_R   0.041928 0.910058 0.628569 0.017934
C169  C     C_R   0.958071 0.910058 0.371431 0.017934
C170  C     C_R   0.541916 0.410063 0.628574 0.017930
C171  C     C_R   0.500465 0.190483 0.190733 0.551112
C172  C     C_R   0.458055 0.410051 0.371437 0.017937
C173  C     C_3   0.596697 0.937596 0.150945 -0.273867
C174  C     C_3   0.403309 0.937599 0.849053 -0.273869
C175  C     C_3   0.096663 0.437610 0.150958 -0.273877
C176  C     C_3   0.903271 0.437583 0.849067 -0.273858
C177  C     C_3   0.096662 0.937610 0.650958 -0.273880
C178  C     C_3   0.903336 0.937610 0.349042 -0.273877
C179  C     C_3   0.596631 0.437623 0.650970 -0.273887
C180  C     C_3   0.403299 0.437594 0.349057 -0.273867
C181  C     C_R   0.360255 0.750150 0.250014 0.555600
C182  C     C_R   0.555226 0.623655 0.404737 0.028330
C183  C     C_R   0.360255 0.749845 0.750039 0.557480
C184  C     C_R   0.639745 0.749845 0.249961 0.557480
C185  C     C_R   0.639745 0.750150 0.749986 0.555601
C186  C     C_R   0.860255 0.250150 0.250014 0.555602
C187  C     C_R   0.860255 0.249845 0.750039 0.557478
C188  C     C_R   0.139745 0.249845 0.249961 0.557482
C189  C     C_R   0.139745 0.250150 0.749986 0.555598
C190  C     C_R   0.860255 0.750150 0.750014 0.555601
C191  C     C_R   0.860255 0.749845 0.250039 0.557482
C192  C     C_R   0.139745 0.749845 0.749961 0.557481
Cu1   Cu    Cu3+1 0.500000 0.780890 0.280900 0.932739
Cu2   Cu    Cu3+1 0.500000 0.719080 0.780910 0.942562
Cu3   Cu    Cu3+1 0.000000 0.219080 0.219090 0.942561
Cu4   Cu    Cu3+1 0.000000 0.219080 0.780910 0.942567
Cu5   Cu    Cu3+1 0.000000 0.719080 0.719090 0.942565
Cu6   Cu    Cu3+1 0.000000 0.719080 0.280910 0.942562
Cu7   Cu    Cu3+1 0.500000 0.219080 0.719090 0.942560
Cu8   Cu    Cu3+1 0.500000 0.219080 0.280910 0.942567
Cu9   Cu    Cu3+1 0.427490 0.999980 0.000000 0.929982
Cu10  Cu    Cu3+1 0.572510 0.999980 0.000000 0.929983
Cu11  Cu    Cu3+1 0.927490 0.499980 0.000000 0.929981
Cu12  Cu    Cu3+1 0.500000 0.780890 0.719100 0.932739
Cu13  Cu    Cu3+1 0.072510 0.499980 0.000000 0.929983
Cu14  Cu    Cu3+1 0.927490 0.999980 0.500000 0.929986
Cu15  Cu    Cu3+1 0.072510 0.999980 0.500000 0.929987
Cu16  Cu    Cu3+1 0.427490 0.499980 0.500000 0.929985
Cu17  Cu    Cu3+1 0.572510 0.499980 0.500000 0.929987
Cu18  Cu    Cu3+1 0.000000 0.280890 0.280900 0.932734
Cu19  Cu    Cu3+1 1.000000 0.280890 0.719100 0.932744
Cu20  Cu    Cu3+1 0.000000 0.780890 0.780900 0.932735
Cu21  Cu    Cu3+1 0.000000 0.780890 0.219100 0.932734
Cu22  Cu    Cu3+1 0.500000 0.280890 0.780900 0.932729
Cu23  Cu    Cu3+1 0.500000 0.280890 0.219100 0.932740
Cu24  Cu    Cu3+1 0.500000 0.719080 0.219090 0.942565
H1    H     H_    0.413589 0.618892 0.312957 0.125577
H2    H     H_    0.586801 0.562351 0.630214 0.123383
H3    H     H_    0.913211 0.062345 0.369781 0.123378
H4    H     H_    0.086818 0.062359 0.630206 0.123390
H5    H     H_    0.913192 0.562354 0.869789 0.123386
H6    H     H_    0.086799 0.562350 0.130215 0.123382
H7    H     H_    0.413209 0.062347 0.869782 0.123379
H8    H     H_    0.586816 0.062358 0.130207 0.123390
H9    H     H_    0.534560 0.658820 0.465043 0.124197
H10   H     H_    0.367316 0.648020 0.548385 0.145741
H11   H     H_    0.632687 0.648018 0.451614 0.145741
H12   H     H_    0.586408 0.618891 0.687044 0.125578
H13   H     H_    0.465444 0.658821 0.534956 0.124196
H14   H     H_    0.034530 0.158823 0.465046 0.124197
H15   H     H_    0.867291 0.148008 0.548397 0.145743
H16   H     H_    0.132662 0.148030 0.451626 0.145741
H17   H     H_    0.965412 0.158817 0.534960 0.124197
H18   H     H_    0.034567 0.658820 0.965042 0.124196
H19   H     H_    0.867321 0.648022 0.048382 0.145741
H20   H     H_    0.132693 0.648016 0.951611 0.145741
H21   H     H_    0.965450 0.658821 0.034956 0.124196
H22   H     H_    0.534534 0.158823 0.965046 0.124196
H23   H     H_    0.913605 0.118884 0.312950 0.125582
H24   H     H_    0.367291 0.148008 0.048397 0.145742
H25   H     H_    0.632666 0.148028 0.951624 0.145741
H26   H     H_    0.465413 0.158818 0.034959 0.124197
H27   H     H_    0.531996 0.715060 0.410862 0.150498
H28   H     H_    0.369743 0.704172 0.602406 0.141682
H29   H     H_    0.630261 0.704170 0.397593 0.141682
H30   H     H_    0.468008 0.715060 0.589138 0.150498
H31   H     H_    0.031966 0.215062 0.410865 0.150498
H32   H     H_    0.869716 0.204160 0.602418 0.141682
H33   H     H_    0.130236 0.204181 0.397605 0.141682
H34   H     H_    0.086425 0.118899 0.687036 0.125573
H35   H     H_    0.967975 0.215057 0.589141 0.150499
H36   H     H_    0.032004 0.715059 0.910860 0.150498
H37   H     H_    0.869747 0.704174 0.102403 0.141682
H38   H     H_    0.130267 0.704167 0.897590 0.141682
H39   H     H_    0.968013 0.715060 0.089137 0.150498
H40   H     H_    0.531971 0.215062 0.910864 0.150498
H41   H     H_    0.369718 0.204160 0.102417 0.141681
H42   H     H_    0.630240 0.204179 0.897603 0.141682
H43   H     H_    0.467977 0.215057 0.089141 0.150498
H44   H     H_    0.419212 0.809298 0.117036 0.130824
H45   H     H_    0.913585 0.618894 0.812959 0.125576
H46   H     H_    0.580782 0.809296 0.882966 0.130825
H47   H     H_    0.919240 0.309288 0.117025 0.130831
H48   H     H_    0.080813 0.309307 0.882953 0.130817
H49   H     H_    0.919241 0.809288 0.617025 0.130832
H50   H     H_    0.080761 0.809288 0.382975 0.130831
H51   H     H_    0.419265 0.309279 0.617015 0.130838
H52   H     H_    0.580791 0.309299 0.382962 0.130823
H53   H     H_    0.418376 0.866476 0.060468 0.127494
H54   H     H_    0.581619 0.866475 0.939533 0.127493
H55   H     H_    0.918404 0.366466 0.060457 0.127487
H56   H     H_    0.086406 0.618889 0.187045 0.125578
H57   H     H_    0.081649 0.366486 0.939521 0.127501
H58   H     H_    0.918405 0.866467 0.560457 0.127486
H59   H     H_    0.081597 0.866467 0.439542 0.127486
H60   H     H_    0.418429 0.366457 0.560447 0.127479
H61   H     H_    0.581627 0.366478 0.439530 0.127495
H62   H     H_    0.649140 0.939259 0.132718 0.145040
H63   H     H_    0.426233 0.969507 0.838576 0.133134
H64   H     H_    0.573777 0.969505 0.161422 0.133138
H65   H     H_    0.350865 0.939264 0.867278 0.145041
H66   H     H_    0.149112 0.439281 0.132738 0.145038
H67   H     H_    0.413602 0.118886 0.812952 0.125580
H68   H     H_    0.926175 0.469495 0.838587 0.133136
H69   H     H_    0.073726 0.469516 0.161432 0.133136
H70   H     H_    0.850834 0.439239 0.867301 0.145044
H71   H     H_    0.149110 0.939281 0.632738 0.145039
H72   H     H_    0.926273 0.969515 0.338568 0.133135
H73   H     H_    0.073725 0.969515 0.661432 0.133140
H74   H     H_    0.850887 0.939280 0.367262 0.145039
H75   H     H_    0.649086 0.439300 0.632757 0.145036
H76   H     H_    0.426216 0.469503 0.338579 0.133136
H77   H     H_    0.573679 0.469525 0.661441 0.133138
H78   H     H_    0.586423 0.118898 0.187037 0.125573
H79   H     H_    0.350857 0.439256 0.367285 0.145042
H80   H     H_    0.647218 0.883938 0.189242 0.136607
H81   H     H_    0.427519 0.914443 0.781732 0.147557
H82   H     H_    0.572491 0.914441 0.218267 0.147557
H83   H     H_    0.352788 0.883942 0.810754 0.136608
H84   H     H_    0.147189 0.383959 0.189263 0.136609
H85   H     H_    0.927461 0.414431 0.781743 0.147556
H86   H     H_    0.072439 0.414452 0.218276 0.147558
H87   H     H_    0.852757 0.383918 0.810777 0.136607
H88   H     H_    0.147187 0.883959 0.689262 0.136610
H89   H     H_    0.413196 0.562353 0.369788 0.123384
H90   H     H_    0.927559 0.914451 0.281724 0.147558
H91   H     H_    0.072438 0.914451 0.718276 0.147559
H92   H     H_    0.852810 0.883959 0.310738 0.136609
H93   H     H_    0.647163 0.383978 0.689281 0.136610
H94   H     H_    0.427502 0.414440 0.281735 0.147557
H95   H     H_    0.572392 0.414461 0.718285 0.147560
H96   H     H_    0.352779 0.383935 0.310761 0.136608
O1    O     O_R   0.500000 0.731000 0.321180 -0.513565
O2    O     O_R   0.500000 0.678810 0.731020 -0.509416
O3    O     O_R   0.000000 0.178810 0.268980 -0.509417
O4    O     O_R   0.000000 0.178810 0.731020 -0.509413
O5    O     O_R   0.000000 0.678810 0.768980 -0.509414
O6    O     O_R   0.000000 0.678810 0.231020 -0.509416
O7    O     O_R   0.500000 0.178810 0.768980 -0.509416
O8    O     O_R   0.500000 0.178810 0.231020 -0.509413
O9    O     O_R   0.394200 0.776090 0.276090 -0.502070
O10   O     O_R   0.394200 0.776090 0.723910 -0.508893
O11   O     O_R   0.605800 0.776090 0.276090 -0.508893
O12   O     O_R   0.500000 0.731000 0.678820 -0.513565
O13   O     O_R   0.605800 0.776090 0.723910 -0.502070
O14   O     O_R   0.894200 0.276090 0.276090 -0.502071
O15   O     O_R   0.894200 0.276090 0.723910 -0.508893
O16   O     O_R   0.105800 0.276090 0.276090 -0.508894
O17   O     O_R   0.105800 0.276090 0.723910 -0.502069
O18   O     O_R   0.894200 0.776090 0.776090 -0.502070
O19   O     O_R   0.894200 0.776090 0.223910 -0.508894
O20   O     O_R   0.105800 0.776090 0.776090 -0.508894
O21   O     O_R   0.105800 0.776090 0.223910 -0.502070
O22   O     O_R   0.394200 0.276090 0.776090 -0.502071
O23   O     O_R   0.000000 0.231000 0.321180 -0.513565
O24   O     O_R   0.394200 0.276090 0.223910 -0.508894
O25   O     O_R   0.605800 0.276090 0.776090 -0.508894
O26   O     O_R   0.605800 0.276090 0.223910 -0.502070
O27   O     O_R   0.394210 0.723900 0.223890 -0.508142
O28   O     O_R   0.394210 0.723900 0.776110 -0.499892
O29   O     O_R   0.605790 0.723900 0.223890 -0.499891
O30   O     O_R   0.605790 0.723900 0.776110 -0.508142
O31   O     O_R   0.894210 0.223900 0.223890 -0.508141
O32   O     O_R   0.894210 0.223900 0.776110 -0.499892
O33   O     O_R   0.105790 0.223900 0.223890 -0.499891
O34   O     O_R   0.000000 0.231000 0.678820 -0.513565
O35   O     O_R   0.105790 0.223900 0.776110 -0.508142
O36   O     O_R   0.894210 0.723900 0.723890 -0.508141
O37   O     O_R   0.894210 0.723900 0.276110 -0.499891
O38   O     O_R   0.105790 0.723900 0.723890 -0.499891
O39   O     O_R   0.105790 0.723900 0.276110 -0.508141
O40   O     O_R   0.394210 0.223900 0.723890 -0.508141
O41   O     O_R   0.394210 0.223900 0.276110 -0.499891
O42   O     O_R   0.605790 0.223900 0.723890 -0.499891
O43   O     O_R   0.605790 0.223900 0.276110 -0.508142
O44   O     O_R   0.500000 0.821170 0.231010 -0.508659
O45   O     O_R   0.000000 0.731000 0.821180 -0.513566
O46   O     O_R   0.500000 0.821170 0.768990 -0.508659
O47   O     O_R   0.000000 0.321170 0.231010 -0.508660
O48   O     O_R   0.000000 0.321170 0.768990 -0.508658
O49   O     O_R   0.000000 0.821170 0.731010 -0.508660
O50   O     O_R   0.000000 0.821170 0.268990 -0.508660
O51   O     O_R   0.500000 0.321170 0.731010 -0.508661
O52   O     O_R   0.500000 0.321170 0.268990 -0.508658
O53   O     O_R   0.500000 0.768980 0.178810 -0.513132
O54   O     O_R   0.500000 0.768980 0.821190 -0.513132
O55   O     O_R   0.000000 0.268980 0.178810 -0.513134
O56   O     O_R   0.000000 0.731000 0.178820 -0.513566
O57   O     O_R   0.000000 0.268980 0.821190 -0.513129
O58   O     O_R   0.000000 0.768980 0.678810 -0.513134
O59   O     O_R   1.000000 0.768980 0.321190 -0.513134
O60   O     O_R   0.500000 0.268980 0.678810 -0.513137
O61   O     O_R   0.500000 0.268980 0.321190 -0.513131
O62   O     O_R   0.438730 0.954890 0.954890 -0.512468
O63   O     O_R   0.438730 0.954890 0.045110 -0.509698
O64   O     O_R   0.561270 0.954890 0.954890 -0.509698
O65   O     O_R   0.561270 0.954890 0.045110 -0.512468
O66   O     O_R   0.938730 0.454890 0.954890 -0.512470
O67   O     O_R   0.500000 0.231000 0.821180 -0.513565
O68   O     O_R   0.938730 0.454890 0.045110 -0.509696
O69   O     O_R   0.061270 0.454890 0.954890 -0.509701
O70   O     O_R   0.061270 0.454890 0.045110 -0.512467
O71   O     O_R   0.938730 0.954890 0.454890 -0.512467
O72   O     O_R   0.938730 0.954890 0.545110 -0.509696
O73   O     O_R   0.061270 0.954890 0.454890 -0.509696
O74   O     O_R   0.061270 0.954890 0.545110 -0.512468
O75   O     O_R   0.438730 0.454890 0.454890 -0.512469
O76   O     O_R   0.438730 0.454890 0.545110 -0.509694
O77   O     O_R   0.561270 0.454890 0.454890 -0.509699
O78   O     O_R   0.500000 0.231000 0.178820 -0.513565
O79   O     O_R   0.561270 0.454890 0.545110 -0.512467
O80   O     O_R   0.438760 0.545060 0.454900 -0.516189
O81   O     O_R   0.438760 0.545060 0.545100 -0.503053
O82   O     O_R   0.561240 0.545060 0.454900 -0.503051
O83   O     O_R   0.561240 0.545060 0.545100 -0.516188
O84   O     O_R   0.938760 0.045060 0.454900 -0.516187
O85   O     O_R   0.938760 0.045060 0.545100 -0.503053
O86   O     O_R   0.061240 0.045060 0.454900 -0.503051
O87   O     O_R   0.061240 0.045060 0.545100 -0.516189
O88   O     O_R   0.938760 0.545060 0.954900 -0.516189
O89   O     O_R   0.500000 0.678810 0.268980 -0.509415
O90   O     O_R   0.938760 0.545060 0.045100 -0.503051
O91   O     O_R   0.061240 0.545060 0.954900 -0.503051
O92   O     O_R   0.061240 0.545060 0.045100 -0.516188
O93   O     O_R   0.438760 0.045060 0.954900 -0.516188
O94   O     O_R   0.438760 0.045060 0.045100 -0.503052
O95   O     O_R   0.561240 0.045060 0.954900 -0.503050
O96   O     O_R   0.561240 0.045060 0.045100 -0.516189

loop_
_geom_bond_atom_site_label_1
_geom_bond_atom_site_label_2
_ccdc_geom_bond_type
C61   C70   A    
C106  H17   S    
Cu6   O59   S    
Cu7   Cu22  S    
C101  C113  S    
C7    C60   S    
Cu3   O31   S    
C142  H49   S    
C74   C83   A    
C29   O85   A    
C23   O75   A    
Cu11  Cu13  S    
C21   O73   A    
C124  C133  A    
C5    O41   A    
Cu2   O2    S    
C11   H85   S    
C22   C159  S    
Cu2   O28   S    
C184  O11   A    
Cu8   Cu23  S    
C42   C136  S    
C2    C90   S    
C191  O37   A    
C131  C140  A    
C185  O13   A    
C134  C143  A    
C124  C168  A    
C57   C109  S    
C187  O15   A    
C26   O82   A    
C140  H47   S    
C171  O78   A    
C9    C121  S    
C90   H13   S    
Cu9   O63   S    
C125  C169  A    
C88   C97   A    
Cu21  O56   S    
C108  H19   S    
C4    C56   S    
Cu13  O92   S    
C109  C118  S    
C11   C123  S    
Cu10  O95   S    
C20   O68   A    
C29   C99   S    
C18   O65   A    
C137  C146  A    
C27   C97   S    
C188  O16   A    
Cu14  Cu15  S    
C69   C119  S    
C82   C91   A    
Cu14  O84   S    
C142  C151  A    
C36   C130  S    
C89   H3    S    
C181  O9    A    
C110  H26   S    
C28   O84   A    
C12   H88   S    
C164  C173  S    
C68   C110  S    
C185  O30   A    
C163  C172  A    
C118  H42   S    
C15   H93   S    
C8    H82   S    
Cu8   O41   S    
C180  H79   S    
Cu23  O26   S    
C40   O59   A    
Cu11  O88   S    
C29   O87   A    
C30   O88   A    
C36   O46   A    
C173  H62   S    
Cu20  O18   S    
C174  H65   S    
C186  O14   A    
C111  H27   S    
C187  O32   A    
C90   H10   S    
C177  H71   S    
C10   C122  S    
C105  O2    A    
C10   H86   S    
C47   C52   T    
Cu16  O76   S    
C177  H73   S    
C1    C70   S    
C79   C182  S    
C178  H72   S    
Cu20  O49   S    
C80   C88   A    
Cu2   O54   S    
C40   C134  S    
C114  H35   S    
Cu13  O70   S    
C145  H52   S    
C84   C93   A    
C151  H58   S    
Cu15  O86   S    
C35   C107  S    
C86   C95   A    
Cu16  O81   S    
C63   C113  S    
C112  H28   S    
C129  C137  A    
C108  H21   S    
C85   H67   S    
C37   O47   A    
C38   O57   A    
C76   C85   A    
C45   C184  S    
C38   C132  S    
C78   C87   A    
C20   O70   A    
C15   C179  S    
C123  C132  A    
C33   C104  S    
Cu10  O64   S    
C69   C77   A    
C121  C130  A    
C50   C188  S    
C192  O38   A    
C11   C176  S    
C54   C192  S    
C5    C58   S    
C180  H76   S    
C31   O92   A    
C40   O50   A    
Cu7   O60   S    
C147  H54   S    
C78   H1    S    
Cu17  O82   S    
C110  H24   S    
C75   C84   A    
C28   O86   A    
C30   C100  S    
Cu10  O65   S    
C113  H33   S    
C175  H69   S    
Cu15  O74   S    
C3    C55   S    
Cu8   O43   S    
C46   C108  S    
C105  O12   A    
C64   C73   A    
C101  H14   S    
C152  C161  A    
C173  H64   S    
Cu14  O72   S    
Cu20  O20   S    
C174  H63   S    
C45   C53   T    
C65   C115  S    
C67   C118  S    
Cu3   O3    S    
C141  C150  A    
C26   C96   S    
C64   C114  S    
Cu24  O29   S    
Cu21  O19   S    
C120  C129  A    
C30   O91   A    
C34   C129  S    
C34   O53   A    
C68   C69   A    
Cu9   O93   S    
C165  C174  S    
C113  H31   S    
C42   O52   A    
C43   C181  S    
C65   C74   A    
C37   C131  S    
C151  C159  A    
C19   O66   A    
C126  C170  A    
C160  O67   A    
Cu2   Cu12  S    
Cu22  O22   S    
C44   C183  S    
C14   C178  S    
C145  C154  A    
C43   C55   T    
Cu12  O46   S    
C83   H45   S    
C116  O23   A    
C24   C106  S    
Cu11  O68   S    
C122  C131  A    
C41   C135  S    
Cu5   O38   S    
C132  C141  A    
C38   O48   A    
Cu7   O40   S    
C189  O17   A    
C19   C158  S    
C108  C117  S    
C82   H34   S    
C154  H61   S    
C32   O93   A    
Cu22  O51   S    
C127  O34   A    
C110  C119  S    
C128  C172  A    
C21   O71   A    
C121  C165  A    
C49   C59   T    
C89   C98   A    
C176  H68   S    
C17   C156  S    
C13   C98   A    
C75   C149  S    
C35   C100  A    
C88   H2    S    
C62   C71   A    
C101  H16   S    
Cu1   O9    S    
C148  C157  A    
Cu23  O24   S    
C120  C164  A    
C44   C54   T    
C183  O10   A    
Cu5   O5    S    
C118  H40   S    
Cu9   O62   S    
C91   C99   A    
C19   O69   A    
C138  O45   A    
Cu15  O87   S    
C16   C180  S    
C125  C134  A    
Cu2   O30   S    
C119  H43   S    
C107  H20   S    
C178  H74   S    
Cu13  O91   S    
C181  O27   A    
C39   O58   A    
C109  H22   S    
C5    O24   A    
Cu18  O16   S    
C74   C138  S    
Cu23  O78   S    
Cu10  O96   S    
C166  C175  S    
C17   O62   A    
C92   H5    S    
C46   C66   A    
Cu12  O13   S    
C128  C136  A    
C35   C65   A    
C41   O60   A    
C168  C177  S    
C3    O21   A    
C10   C175  S    
C106  H15   S    
Cu14  O85   S    
C91   H4    S    
C39   O49   A    
C190  O18   A    
C183  O28   A    
C22   O72   A    
C114  H32   S    
C146  C155  A    
C2    C97   A    
Cu16  Cu17  S    
C66   C117  S    
C158  C167  A    
C42   O61   A    
C93   H6    S    
C175  H66   S    
C47   C185  S    
Cu11  O66   S    
C33   O96   A    
C9    H81   S    
C72   C81   A    
C51   C189  S    
C81   C89   A    
C172  C180  S    
C24   C64   A    
C188  O33   A    
C31   O90   A    
C148  H55   S    
C32   O95   A    
C25   O79   A    
C130  C139  A    
C6    C59   S    
C57   C103  A    
C16   H94   S    
C26   O80   A    
C50   C58   T    
C31   C102  S    
C7    O26   A    
Cu3   Cu18  S    
C3    O39   A    
C8    H80   S    
C73   C127  S    
Cu23  O52   S    
C81   H23   S    
Cu1   O11   S    
C190  O36   A    
Cu8   O61   S    
Cu17  O77   S    
C1    O89   A    
C49   C187  S    
C109  H25   S    
Cu4   O57   S    
Cu19  O17   S    
C133  C142  A    
C32   C103  S    
C52   C190  S    
C80   H12   S    
C147  C156  A    
C53   C191  S    
C191  O19   A    
C143  C152  A    
C119  H41   S    
C107  H18   S    
C126  C135  A    
C20   C157  S    
C71   C105  S    
C155  C164  A    
Cu7   O42   S    
Cu5   O58   S    
C179  H77   S    
C73   C82   A    
C39   C133  S    
C28   C98   S    
C150  C158  A    
C17   O64   A    
C4    O40   A    
C146  H53   S    
C14   H92   S    
C68   C104  A    
C96   C182  A    
C152  H59   S    
C93   C102  A    
C72   C116  S    
C86   H78   S    
C153  C162  A    
C143  H50   S    
Cu5   Cu20  S    
C22   O74   A    
C115  H38   S    
C156  C165  A    
C66   C75   A    
Cu3   O55   S    
Cu18  O23   S    
C13   C63   A    
Cu21  O50   S    
Cu1   O1    S    
C9    H83   S    
C10   H84   S    
Cu15  O73   S    
C62   C112  S    
C63   C72   A    
Cu4   O4    S    
C7    O43   A    
Cu6   Cu21  S    
C27   O83   A    
C18   C155  S    
Cu1   O44   S    
Cu24  O89   S    
C16   H96   S    
C4    O22   A    
C122  C166  A    
C1    O1    A    
C70   C78   A    
C24   C99   A    
C117  H39   S    
Cu9   Cu10  S    
C150  H57   S    
C90   C112  S    
C140  C148  A    
Cu6   O39   S    
Cu16  O75   S    
C112  H30   S    
C83   C92   A    
C46   C102  A    
C139  C147  A    
C184  O29   A    
C14   C125  S    
C106  C114  S    
Cu17  O79   S    
Cu11  O90   S    
C36   O54   A    
C116  O3    A    
Cu19  O15   S    
Cu22  O67   S    
C12   H91   S    
C159  C168  A    
Cu6   O6    S    
C51   C56   T    
C144  C153  A    
C41   O51   A    
Cu4   Cu19  S    
C189  O35   A    
Cu24  O27   S    
C162  C170  A    
C179  H75   S    
Cu12  O12   S    
C136  C145  A    
C77   C171  S    
C123  C167  A    
C186  O31   A    
C127  O4    A    
C171  O8    A    
C14   H90   S    
C117  H37   S    
C57   C67   A    
C79   H11   S    
C71   C80   A    
C48   C60   T    
C23   C163  S    
C37   O55   A    
C21   C161  S    
C84   H56   S    
C154  C163  A    
Cu3   O33   S    
Cu4   O35   S    
C111  H29   S    
Cu17  O83   S    
C23   O77   A    
C8    C173  S    
C115  H36   S    
C25   O76   A    
C18   O63   A    
C15   C126  S    
Cu18  O47   S    
C48   C186  S    
Cu5   O36   S    
C85   C94   A    
C11   H87   S    
C12   C124  S    
Cu22  O25   S    
C25   C162  S    
C87   C96   A    
Cu21  O21   S    
C9    C174  S    
Cu20  O45   S    
C16   C128  S    
C107  C115  S    
C27   O81   A    
Cu12  O10   S    
Cu14  O71   S    
C135  C144  A    
C77   C86   A    
Cu18  O14   S    
C94   H7    S    
C141  H48   S    
Cu19  O48   S    
C13   C101  S    
C61   C111  S    
C6    O42   A    
C169  C178  S    
Cu6   O37   S    
C95   C104  A    
C92   C100  A    
Cu1   Cu24  S    
C137  H44   S    
C8    C120  S    
C76   C160  S    
C170  C179  S    
C61   C182  A    
C157  C166  A    
C94   C103  A    
C34   O44   A    
Cu9   O94   S    
C87   H89   S    
C95   H8    S    
C79   C111  S    
C33   O94   A    
Cu7   O7    S    
C192  O20   A    
C161  C169  A    
C6    O25   A    
C149  O6    A    
Cu16  O80   S    
Cu24  O53   S    
Cu8   O8    S    
C12   C177  S    
C153  H60   S    
Cu4   O32   S    
C138  O5    A    
C144  H51   S    
C149  O56   A    
Cu13  O69   S    
C139  H46   S    
Cu19  O34   S    
C67   C76   A    
C176  H70   S    
C79   H9    S    
C2    C62   A    
C160  O7    A    
C167  C176  S    
C15   H95   S    
