data_mof_unit_25545.cif
_audit_creation_date              2012-12-10T20:25:41-0500
_audit_creation_method            fapswitch 2.2
_symmetry_space_group_name_H-M    P1
_symmetry_Int_Tables_number       1
_space_group_crystal_system       triclinic
_cell_length_a                    8.592096
_cell_length_b                    10.678326
_cell_length_c                    9.874522
_cell_angle_alpha                 89.878072
_cell_angle_beta                  98.439008
_cell_angle_gamma                 90.162642
_cell_volume                      896.165203403

loop_
_atom_site_label
_atom_site_type_symbol
_atom_type_description
_atom_site_fract_x
_atom_site_fract_y
_atom_site_fract_z
_atom_type_partial_charge
C1    C     C_R   0.504871 0.259947 0.500735 0.876245
C2    C     C_R   0.433320 0.403111 0.920660 0.217457
C3    C     C_3   0.264680 0.364026 0.895593 -0.514331
C4    C     C_R   0.201248 0.500237 0.464204 0.971684
C5    C     C_3   0.266828 0.361876 0.049425 -0.507508
C6    C     C_R   0.505303 0.740006 0.500560 0.875038
C7    C     C_R   0.798661 0.501079 0.535633 0.965456
C8    C     C_2   0.036146 0.499490 0.444704 -0.391051
C9    C     C_2   0.963520 0.504524 0.554438 -0.385296
C10   C     C_R   0.530113 0.063522 0.626775 0.141360
C11   C     C_R   0.530339 0.128575 0.504522 -0.101756
C12   C     C_R   0.561595 0.935586 0.386994 -0.228318
C13   C     C_R   0.561206 0.065126 0.387063 -0.228839
C14   C     C_R   0.531120 0.871371 0.504382 -0.099824
C15   C     C_R   0.530727 0.935751 0.626761 0.125542
C16   C     C_3   0.418571 0.927647 0.728799 -0.473892
C17   C     C_3   0.417381 0.069531 0.728356 -0.494791
C18   C     C_R   0.434073 0.402828 0.063266 0.215254
C19   C     C_R   0.577720 0.589886 0.081649 -0.134647
C20   C     C_R   0.577776 0.589874 0.937743 -0.135656
H1    H     H_    0.974792 0.493516 0.340370 0.179635
H2    H     H_    0.303431 0.885474 0.685633 0.206303
H3    H     H_    0.474380 0.887008 0.827835 0.199945
H4    H     H_    0.301675 0.109673 0.684144 0.199641
H5    H     H_    0.471981 0.110922 0.827294 0.203531
H6    H     H_    0.638056 0.663793 0.143373 0.142325
H7    H     H_    0.638193 0.663738 0.891097 0.145177
H8    H     H_    0.187225 0.438158 0.844320 0.214561
H9    H     H_    0.247798 0.269934 0.848242 0.198741
H10   H     H_    0.189010 0.433529 0.085838 0.220764
H11   H     H_    0.254951 0.266116 0.091149 0.200422
H12   H     H_    0.024574 0.511926 0.658323 0.169908
H13   H     H_    0.573882 0.114388 0.293250 0.170564
H14   H     H_    0.574451 0.886852 0.293166 0.165821
N1    N     N_R   0.498950 0.499140 0.142680 -0.106775
N2    N     N_R   0.498950 0.499180 0.857030 -0.106074
O1    O     O_R   0.500020 0.316790 0.614690 -0.616668
O2    O     O_R   0.500000 0.316760 0.385350 -0.625664
O3    O     O_R   0.271760 0.500010 0.587850 -0.613316
O4    O     O_R   0.271740 0.499970 0.358500 -0.624880
O5    O     O_R   0.500000 0.683240 0.614650 -0.623636
O6    O     O_R   0.499980 0.683210 0.385310 -0.627820
O7    O     O_R   0.728260 0.500030 0.641500 -0.626025
O8    O     O_R   0.728240 0.499990 0.412150 -0.616172
Zn1   Zn    Zn3+2 0.500010 0.500020 0.653130 0.940085
Zn2   Zn    Zn3+2 0.499990 0.499980 0.346870 0.937480

loop_
_geom_bond_atom_site_label_1
_geom_bond_atom_site_label_2
_ccdc_geom_bond_type
C13   H13   S    
C20   H7    S    
C7    O7    A    
C2    C18   A    
C11   C13   A    
C18   N1    A    
C19   C20   A    
C1    C11   S    
C4    O3    A    
C1    O1    A    
O3    Zn1   S    
C17   H5    S    
C2    C3    S    
N2    Zn1   S    
C19   N1    A    
C7    O8    A    
O4    Zn2   S    
O7    Zn1   S    
C1    O2    A    
C3    H8    S    
C12   C14   A    
C8    H1    S    
C16   H3    S    
C10   C15   A    
C6    O6    A    
O2    Zn2   S    
C17   H4    S    
C6    C14   S    
C10   C11   A    
C10   C17   S    
O1    Zn1   S    
C15   C16   S    
C20   N2    A    
C12   C13   A    
C7    C9    S    
C5    H10   S    
O6    Zn2   S    
C2    N2    A    
C4    C8    S    
C3    H9    S    
C19   H6    S    
O5    Zn1   S    
C14   C15   A    
C8    C9    D    
C16   H2    S    
C5    C18   S    
C9    H12   S    
C5    H11   S    
N1    Zn2   S    
C12   H14   S    
C4    O4    A    
O8    Zn2   S    
C16   C17   S    
C3    C5    S    
C6    O5    A    
