data_mof_unit_36816.cif
_audit_creation_date              2012-12-11T17:04:49-0500
_audit_creation_method            fapswitch 2.2
_symmetry_space_group_name_H-M    P1
_symmetry_Int_Tables_number       1
_space_group_crystal_system       triclinic
_cell_length_a                    17.388962
_cell_length_b                    24.169801
_cell_length_c                    15.084029
_cell_angle_alpha                 89.962545
_cell_angle_beta                  125.588759
_cell_angle_gamma                 89.980575
_cell_volume                      5155.48093254

loop_
_atom_site_label
_atom_site_type_symbol
_atom_type_description
_atom_site_fract_x
_atom_site_fract_y
_atom_site_fract_z
_atom_type_partial_charge
C1    C     C_R   0.852724 0.653641 0.908433 -0.092082
C2    C     C_R   0.920793 0.502602 0.628926 -0.012066
C3    C     C_R   0.751256 0.046929 0.305777 0.041294
C4    C     C_R   0.851851 0.348532 0.909902 -0.135559
C5    C     C_R   0.188959 0.375730 0.089381 -0.116547
C6    C     C_R   0.351854 0.848570 0.909749 -0.130662
C7    C     C_R   0.689606 0.876592 0.089980 -0.119115
C8    C     C_R   0.942596 0.653945 0.088471 -0.126948
C9    C     C_R   0.100458 0.623515 0.910045 -0.142974
C10   C     C_R   0.442691 0.154182 0.087730 -0.126153
C11   C     C_R   0.600464 0.123406 0.909972 -0.143349
C12   C     C_R   0.880342 0.685498 0.997836 0.050418
C13   C     C_R   0.477503 0.000880 0.303564 -0.021615
C14   C     C_R   0.190062 0.636132 0.001544 0.067999
C15   C     C_R   0.380611 0.185577 0.996522 0.048791
C16   C     C_R   0.690302 0.135735 0.001494 0.069232
C17   C     C_R   0.420490 0.002699 0.628805 -0.009523
C18   C     C_R   0.673848 0.500934 0.718454 0.006551
C19   C     C_R   0.305295 0.498822 0.362152 0.023847
C20   C     C_R   0.173273 0.999703 0.710581 0.009454
C21   C     C_R   0.799150 0.001297 0.367019 0.022230
C22   C     C_3   0.500847 0.454145 0.614052 -0.158894
C23   C     C_3   0.469719 0.450841 0.494663 -0.153429
C24   C     C_3   0.010237 0.946486 0.574755 -0.159002
C25   C     C_R   0.192101 0.623840 0.092812 -0.134999
C26   C     C_3   0.970419 0.974357 0.463759 -0.140897
C27   C     C_3   0.426015 0.500510 0.581110 -0.191735
C28   C     C_3   0.542921 0.495289 0.518121 -0.204122
C29   C     C_3   0.930677 0.973458 0.578185 -0.196307
C30   C     C_3   0.032955 0.025657 0.520278 -0.233995
C31   C     C_3   0.397691 0.497433 0.463840 0.151275
C32   C     C_3   0.572904 0.499111 0.636436 0.132256
C33   C     C_3   0.892624 0.001773 0.468308 0.152485
C34   C     C_3   0.072035 0.998121 0.630976 0.154777
C35   C     C_3   0.470798 0.540898 0.488231 0.056917
C36   C     C_R   0.353120 0.153534 0.907519 -0.088934
C37   C     C_3   0.499824 0.544343 0.604365 0.026322
C38   C     C_3   0.955954 0.052060 0.525862 0.034415
C39   C     C_3   0.994681 0.024547 0.635043 0.041769
C40   C     C_R   0.883231 0.236072 0.101125 0.092206
C41   C     C_R   0.234602 0.313740 0.892923 0.106073
C42   C     C_R   0.382980 0.736495 0.100719 0.094070
C43   C     C_R   0.736836 0.814933 0.894717 0.109191
C44   C     C_R   0.859226 0.258620 0.002563 0.034640
C45   C     C_R   0.258182 0.336408 0.991586 0.035413
C46   C     C_R   0.359479 0.758686 0.002240 0.034619
C47   C     C_R   0.692369 0.123407 0.092765 -0.137651
C48   C     C_R   0.760040 0.837598 0.993219 0.034538
C49   C     C_R   0.794753 0.230369 0.904810 -0.195692
C50   C     C_R   0.345724 0.321430 0.087813 -0.196290
C51   C     C_R   0.294929 0.730412 0.904543 -0.194497
C52   C     C_R   0.846840 0.821909 0.089831 -0.196959
C53   C     C_R   0.944334 0.348088 0.091044 -0.121536
C54   C     C_R   0.098401 0.380045 0.907420 -0.172619
C55   C     C_R   0.444467 0.848057 0.090922 -0.121185
C56   C     C_R   0.599444 0.880974 0.908073 -0.173157
C57   C     C_R   0.247444 0.684127 0.904808 -0.204375
C58   C     C_R   0.882328 0.316421 0.000623 0.055609
C59   C     C_R   0.894945 0.775120 0.090424 -0.200809
C60   C     C_R   0.747669 0.183853 0.904973 -0.204758
C61   C     C_R   0.394520 0.275127 0.088205 -0.201942
C62   C     C_R   0.263469 0.665839 0.002696 0.071626
C63   C     C_R   0.856011 0.743847 0.994474 0.044424
C64   C     C_R   0.763993 0.165245 0.002823 0.070538
C65   C     C_R   0.355440 0.243671 0.992455 0.046188
C66   C     C_R   0.335641 0.690166 0.100600 0.062256
C67   C     C_R   0.782178 0.767521 0.896211 0.072829
C68   C     C_R   0.836459 0.189351 0.100928 0.063987
C69   C     C_R   0.186456 0.364574 0.996987 0.068183
C70   C     C_R   0.280785 0.266906 0.894183 0.074804
C71   C     C_3   0.425158 0.663416 0.192054 -0.216889
C72   C     C_3   0.692842 0.742930 0.799363 -0.230939
C73   C     C_3   0.926483 0.162459 0.191464 -0.216810
C74   C     C_3   0.192293 0.242282 0.796143 -0.230277
C75   C     C_3   0.977867 0.213471 0.191909 -0.238265
C76   C     C_3   0.141806 0.294431 0.792544 -0.250007
C77   C     C_3   0.477311 0.713834 0.192001 -0.242383
C78   C     C_3   0.643725 0.795863 0.794661 -0.252055
C79   C     C_R   0.992623 0.538523 0.546764 0.160844
C80   C     C_R   0.382525 0.816429 0.000392 0.054894
C81   C     C_R   0.009943 0.536365 0.470176 0.126825
C82   C     C_R   0.490800 0.039157 0.545185 0.160285
C83   C     C_R   0.507939 0.036936 0.468421 0.126961
C84   C     C_R   0.920937 0.506549 0.535477 0.059229
C85   C     C_R   0.955346 0.502778 0.379950 0.041490
C86   C     C_R   0.419904 0.006741 0.534784 0.057639
C87   C     C_R   0.453874 0.002920 0.378733 0.041215
C88   C     C_R   0.858542 0.476870 0.439634 -0.209944
C89   C     C_R   0.875622 0.475366 0.360135 -0.211945
C90   C     C_R   0.357955 0.976565 0.439447 -0.208482
C91   C     C_R   0.687780 0.865767 0.997964 0.068320
C92   C     C_R   0.374771 0.975054 0.359682 -0.212111
C93   C     C_3   0.114907 0.536592 0.553039 -0.515213
C94   C     C_3   0.095687 0.539565 0.638699 -0.471409
C95   C     C_3   0.612928 0.037903 0.551037 -0.513541
C96   C     C_3   0.593918 0.040955 0.636862 -0.472619
C97   C     C_R   0.997709 0.546709 0.266169 0.041687
C98   C     C_R   0.941879 0.547140 0.694636 0.020106
C99   C     C_R   0.496659 0.046703 0.265162 0.038325
C100  C     C_R   0.441601 0.047234 0.694618 0.019452
C101  C     C_R   0.730774 0.454584 0.749236 -0.161420
C102  C     C_R   0.978797 0.500864 0.304729 -0.022886
C103  C     C_R   0.257747 0.453633 0.299978 -0.187126
C104  C     C_R   0.230640 0.953764 0.743602 -0.157475
C105  C     C_R   0.755159 0.955125 0.304236 -0.193805
C106  C     C_R   0.000220 0.454644 0.269398 0.042105
C107  C     C_R   0.941847 0.456166 0.691806 0.031207
C108  C     C_R   0.499599 0.954659 0.268849 0.043374
C109  C     C_R   0.441744 0.956230 0.691722 0.030697
C110  C     C_R   0.729898 0.547031 0.741222 0.061877
C111  C     C_R   0.255728 0.545335 0.304957 0.056117
C112  C     C_R   0.229561 0.046461 0.741148 0.059803
H1    H     H_    0.813216 0.334658 0.826373 0.081841
H2    H     H_    0.251316 0.628646 0.176959 0.112915
H3    H     H_    0.708907 0.086925 0.387256 0.102967
H4    H     H_    0.992193 0.670198 0.169305 0.101094
H5    H     H_    0.075223 0.627684 0.826096 0.106169
H6    H     H_    0.492026 0.170568 0.168528 0.100787
H7    H     H_    0.574948 0.127675 0.825911 0.105916
H8    H     H_    0.322951 0.169005 0.826446 0.103438
H9    H     H_    0.751942 0.127715 0.176937 0.104278
H10   H     H_    0.515758 0.418448 0.668233 0.115584
H11   H     H_    0.455708 0.412175 0.447833 0.108749
H12   H     H_    0.034121 0.902840 0.595650 0.107994
H13   H     H_    0.959385 0.953433 0.391634 0.116352
H14   H     H_    0.517893 0.595351 0.425993 0.081621
H15   H     H_    0.439808 0.622420 0.445047 0.097603
H16   H     H_    0.535813 0.625758 0.637217 0.097815
H17   H     H_    0.247471 0.369045 0.173219 0.089880
H18   H     H_    0.565288 0.587434 0.746484 0.118229
H19   H     H_    0.930021 0.121438 0.436088 0.099955
H20   H     H_    0.980437 0.133855 0.568483 0.079557
H21   H     H_    0.944422 0.068302 0.706060 0.104109
H22   H     H_    0.056805 0.082992 0.755011 0.093769
H23   H     H_    0.775031 0.246156 0.827121 0.120182
H24   H     H_    0.370674 0.340676 0.164909 0.122737
H25   H     H_    0.275494 0.746025 0.826859 0.119946
H26   H     H_    0.871482 0.840974 0.166977 0.121551
H27   H     H_    0.193108 0.665879 0.827345 0.118492
H28   H     H_    0.313251 0.834719 0.826215 0.080545
H29   H     H_    0.955453 0.760367 0.167941 0.120496
H30   H     H_    0.693234 0.165708 0.827436 0.118484
H31   H     H_    0.455801 0.260823 0.165564 0.120699
H32   H     H_    0.516152 0.600453 0.223557 0.110991
H33   H     H_    0.448282 0.619379 0.091492 0.130280
H34   H     H_    0.586509 0.691859 0.768539 0.109168
H35   H     H_    0.668516 0.701647 0.901673 0.130819
H36   H     H_    0.017903 0.100281 0.220185 0.109974
H37   H     H_    0.948719 0.119980 0.088629 0.131153
H38   H     H_    0.089410 0.185765 0.756170 0.099121
H39   H     H_    0.748144 0.870600 0.174158 0.090684
H40   H     H_    0.159582 0.200163 0.890356 0.130760
H41   H     H_    0.426545 0.658291 0.266082 0.143934
H42   H     H_    0.694941 0.735513 0.728035 0.139228
H43   H     H_    0.928902 0.156192 0.266136 0.134880
H44   H     H_    0.195642 0.236268 0.725346 0.137510
H45   H     H_    0.026794 0.206539 0.167988 0.150602
H46   H     H_    0.085143 0.286949 0.804282 0.151143
H47   H     H_    0.526280 0.706180 0.168381 0.151438
H48   H     H_    0.586722 0.789331 0.806149 0.151645
H49   H     H_    0.972677 0.252385 0.310965 0.115055
H50   H     H_    0.376073 0.502986 0.604249 0.119102
H51   H     H_    0.077398 0.223173 0.355627 0.107789
H52   H     H_    0.164908 0.334276 0.688007 0.117074
H53   H     H_    0.054848 0.309149 0.628517 0.115831
H54   H     H_    0.472187 0.754011 0.310072 0.115060
H55   H     H_    0.576460 0.723823 0.355743 0.107522
H56   H     H_    0.667857 0.833776 0.689400 0.116923
H57   H     H_    0.557100 0.809957 0.630397 0.115593
H58   H     H_    0.800664 0.453382 0.428825 0.129038
H59   H     H_    0.830134 0.451303 0.286642 0.139705
H60   H     H_    0.300684 0.952681 0.429271 0.129844
H61   H     H_    0.591575 0.493568 0.492993 0.117264
H62   H     H_    0.329652 0.950602 0.286663 0.140166
H63   H     H_    0.148917 0.574644 0.549625 0.185454
H64   H     H_    0.119113 0.502047 0.691152 0.199648
H65   H     H_    0.646149 0.076122 0.546830 0.185108
H66   H     H_    0.618220 0.003684 0.690044 0.199796
H67   H     H_    0.992687 0.332440 0.172547 0.125597
H68   H     H_    0.075501 0.381552 0.824325 0.138444
H69   H     H_    0.492905 0.832415 0.172395 0.125966
H70   H     H_    0.577134 0.883024 0.825217 0.138167
H71   H     H_    0.148695 0.497137 0.554693 0.196410
H72   H     H_    0.887032 0.952971 0.600506 0.117378
H73   H     H_    0.117160 0.579567 0.683343 0.183265
H74   H     H_    0.647433 0.998634 0.553305 0.196986
H75   H     H_    0.614679 0.081165 0.680751 0.182903
H76   H     H_    0.929442 0.610369 0.278572 0.106780
H77   H     H_    0.048659 0.611004 0.371574 0.089180
H78   H     H_    0.836041 0.599293 0.591164 0.089921
H79   H     H_    0.909456 0.624061 0.717062 0.093807
H80   H     H_    0.425893 0.109988 0.274318 0.108493
H81   H     H_    0.544828 0.111688 0.368920 0.087483
H82   H     H_    0.334378 0.098561 0.590639 0.091938
H83   H     H_    0.073757 0.046352 0.494277 0.117301
H84   H     H_    0.406043 0.123261 0.716686 0.099295
H85   H     H_    0.708527 0.411830 0.734800 0.109756
H86   H     H_    0.271280 0.410880 0.326065 0.099501
H87   H     H_    0.209536 0.910839 0.728024 0.102874
H88   H     H_    0.770166 0.912552 0.331458 0.105295
H89   H     H_    0.993709 0.396933 0.363455 0.109321
H90   H     H_    0.082723 0.389182 0.351130 0.089482
H91   H     H_    0.833390 0.405637 0.589256 0.089814
H92   H     H_    0.912198 0.377708 0.710190 0.095929
H93   H     H_    0.492268 0.896933 0.362292 0.108996
H94   H     H_    0.822842 0.669979 0.828311 0.094861
H95   H     H_    0.582075 0.889305 0.351322 0.088962
H96   H     H_    0.333597 0.905346 0.590125 0.090759
H97   H     H_    0.413806 0.877429 0.710602 0.095645
H98   H     H_    0.754560 0.616208 0.687344 0.076424
H99   H     H_    0.648059 0.592296 0.604754 0.086613
H100  H     H_    0.200801 0.620775 0.295974 0.094618
H101  H     H_    0.255720 0.590043 0.417515 0.095663
H102  H     H_    0.196836 0.103981 0.627738 0.076051
H103  H     H_    0.133210 0.108497 0.679358 0.098601
H104  H     H_    0.697883 0.124134 0.287004 0.094755
N1    N     N_R   0.892620 0.603790 0.941770 -0.046392
N2    N     N_R   0.973690 0.529110 0.793240 -0.059035
N3    N     N_R   0.526310 0.029110 0.206760 -0.058833
N4    N     N_R   0.473690 0.029110 0.793240 -0.059149
N5    N     N_R   0.818570 0.472310 0.793020 -0.049390
N6    N     N_R   0.181430 0.472310 0.206980 -0.040902
N7    N     N_R   0.318570 0.972310 0.793020 -0.049109
N8    N     N_R   0.681430 0.972310 0.206980 -0.040352
N9    N     N_R   0.026930 0.472300 0.207330 -0.058602
N10   N     N_R   0.973070 0.472300 0.792670 -0.061292
N11   N     N_R   0.526930 0.972300 0.207330 -0.057628
N12   N     N_R   0.107380 0.603790 0.058230 -0.044352
N13   N     N_R   0.473070 0.972300 0.792670 -0.061974
N14   N     N_R   0.817960 0.529130 0.792460 -0.057765
N15   N     N_R   0.182040 0.529130 0.207540 -0.053206
N16   N     N_R   0.317960 0.029130 0.792460 -0.052497
N17   N     N_R   0.682040 0.029130 0.207540 -0.052459
N18   N     N_R   0.894850 0.397640 0.943830 -0.037494
N19   N     N_R   0.105150 0.397640 0.056170 -0.038030
N20   N     N_R   0.394850 0.897640 0.943830 -0.037775
N21   N     N_R   0.605150 0.897640 0.056170 -0.038030
N22   N     N_R   0.950040 0.603780 0.055950 -0.039347
N23   N     N_R   0.392620 0.103790 0.941770 -0.044569
N24   N     N_R   0.049960 0.603780 0.944050 -0.043097
N25   N     N_R   0.450040 0.103780 0.055950 -0.039482
N26   N     N_R   0.549960 0.103780 0.944050 -0.043213
N27   N     N_3   0.454881 0.587316 0.417410 -0.217140
N28   N     N_3   0.512288 0.594746 0.664094 -0.225847
N29   N     N_3   0.928938 0.110167 0.502264 -0.215732
N30   N     N_3   0.008849 0.050602 0.730604 -0.214412
N31   N     N_3   0.447654 0.612232 0.159531 -0.197445
N32   N     N_3   0.659344 0.694940 0.827484 -0.201023
N33   N     N_3   0.949033 0.111985 0.157064 -0.200664
N34   N     N_R   0.607380 0.103790 0.058230 -0.044669
N35   N     N_3   0.159508 0.193004 0.821852 -0.201884
N36   N     N_3   0.021109 0.246116 0.291918 -0.220770
N37   N     N_3   0.110425 0.329475 0.697814 -0.209832
N38   N     N_3   0.520786 0.746885 0.291563 -0.220841
N39   N     N_3   0.613287 0.830173 0.699339 -0.209604
N40   N     N_3   0.994047 0.603350 0.290179 -0.225743
N41   N     N_3   0.907557 0.602156 0.656136 -0.226152
N42   N     N_3   0.491211 0.103394 0.287451 -0.225504
N43   N     N_3   0.405640 0.102017 0.656095 -0.226262
N44   N     N_3   0.010961 0.399089 0.307834 -0.222717
N45   N     N_R   0.952270 0.397640 0.058010 -0.039036
N46   N     N_3   0.906099 0.401958 0.649023 -0.216684
N47   N     N_3   0.510222 0.899119 0.307302 -0.222710
N48   N     N_3   0.406504 0.901945 0.649048 -0.216985
N49   N     N_3   0.699207 0.599514 0.687255 -0.222220
N50   N     N_3   0.260710 0.597619 0.352766 -0.228576
N51   N     N_3   0.200369 0.101258 0.699131 -0.224709
N52   N     N_3   0.742838 0.096859 0.350516 -0.219300
N53   N     N_R   0.047730 0.397640 0.941990 -0.041569
N54   N     N_R   0.452270 0.897640 0.058010 -0.039160
N55   N     N_R   0.547730 0.897640 0.941990 -0.041992
N56   N     N_R   0.026310 0.529110 0.206760 -0.059064
Ni1   Ni    Ni4+2 0.934160 0.565860 0.869070 0.192821
Ni2   Ni    Ni4+2 0.065840 0.565860 0.130930 0.201022
Ni3   Ni    Ni4+2 0.434160 0.065860 0.869070 0.198060
Ni4   Ni    Ni4+2 0.565840 0.065860 0.130930 0.199318
Ni5   Ni    Ni4+2 0.067260 0.435560 0.132230 0.205037
Ni6   Ni    Ni4+2 0.932740 0.435560 0.867770 0.193279
Ni7   Ni    Ni4+2 0.567260 0.935560 0.132230 0.204754
Ni8   Ni    Ni4+2 0.432740 0.935560 0.867770 0.193943

loop_
_geom_bond_atom_site_label_1
_geom_bond_atom_site_label_2
_ccdc_geom_bond_type
C44   C49   A    
C83   C87   A    
C35   N27   S    
C93   C94   S    
N18   Ni6   S    
C29   H72   S    
N23   Ni3   S    
C38   N29   S    
C9    H5    S    
C41   C45   A    
H57   N39   S    
C2    C84   S    
C95   C96   S    
H78   N41   S    
C94   H73   S    
C71   N31   S    
C9    C14   A    
C11   H7    S    
C15   C65   S    
C74   N35   S    
H91   N46   S    
H38   N35   S    
C40   C44   A    
C93   H71   S    
H3    N52   S    
C43   C78   S    
N1    Ni1   S    
C10   N25   A    
C57   H27   S    
H36   N33   S    
C90   H60   S    
C49   C60   A    
C22   C32   S    
N4    N13   A    
C78   N39   S    
C64   C68   A    
N25   Ni4   S    
H51   N36   S    
N21   Ni7   S    
C24   C26   S    
N26   Ni3   S    
H82   N43   S    
C10   C15   A    
C103  N6    A    
C42   C46   A    
C38   C39   S    
C101  H85   S    
H20   N29   S    
C47   H9    S    
C21   C33   S    
C65   C70   A    
C14   C62   S    
C107  N10   A    
H34   N32   S    
C2    C107  A    
C24   H12   S    
C54   N53   A    
C53   N45   A    
N24   Ni1   S    
C30   C38   S    
C108  N47   S    
C67   C72   S    
N10   Ni6   S    
C24   C29   S    
H104  N52   S    
C47   N34   A    
C5    C69   A    
C110  N14   A    
C60   H30   S    
H32   N31   S    
C20   C112  A    
C19   C103  A    
C73   H43   S    
C95   H65   S    
C56   C91   A    
C83   C95   S    
C7    N21   A    
C28   C35   S    
C44   C58   S    
C48   C91   S    
N5    N14   A    
C70   C74   S    
C52   H26   S    
C96   H66   S    
C51   C57   A    
N34   Ni4   S    
C107  N46   S    
H19   N29   S    
C43   C48   A    
C104  N7    A    
H18   N28   S    
C97   C102  A    
H21   N30   S    
C20   C34   S    
C1    H94   S    
C75   H45   S    
C36   N23   A    
C5    H17   S    
C49   H23   S    
C100  N43   S    
C19   C31   S    
C29   C33   S    
C37   N28   S    
C87   C92   A    
N4    Ni3   S    
C106  N44   S    
C73   C75   S    
C96   H75   S    
C29   C39   S    
N5    Ni6   S    
C1    C12   A    
C109  N13   A    
C13   C108  A    
C36   H8    S    
C53   H67   S    
C16   C47   A    
C61   H31   S    
C22   H10   S    
C73   N33   S    
C105  H88   S    
N56   Ni2   S    
H37   N33   S    
C63   C67   A    
N45   Ni5   S    
C82   C96   S    
C30   C34   S    
C45   C69   S    
C17   C86   S    
N19   Ni5   S    
C84   C88   A    
C4    H1    S    
C28   C32   S    
C62   C66   A    
C72   H42   S    
C89   H59   S    
C79   C94   S    
N23   N25   A    
C86   C90   A    
N18   N45   A    
C79   C81   A    
C12   C63   S    
H92   N46   S    
H22   N30   S    
C23   H11   S    
N7    Ni8   S    
H93   N47   S    
C88   H58   S    
C57   C62   A    
C68   C73   S    
C82   C86   A    
N8    Ni7   S    
C27   C31   S    
C46   C51   A    
C93   H63   S    
H96   N48   S    
C24   C34   S    
C34   C39   S    
N15   Ni2   S    
C109  N48   S    
C103  H86   S    
C23   C31   S    
N54   Ni7   S    
C13   C99   A    
H84   N43   S    
N8    N17   A    
N9    N56   A    
C10   H6    S    
C52   C59   A    
H90   N44   S    
C76   H46   S    
C39   N30   S    
C81   C93   S    
C11   C16   A    
C26   C33   S    
C90   C92   A    
C30   H83   S    
H76   N40   S    
C111  N15   A    
C8    C12   A    
C7    C91   A    
H14   N27   S    
C13   C87   S    
C9    N24   A    
N20   N54   A    
H81   N42   S    
C55   H69   S    
C106  N9    A    
H15   N27   S    
N21   N55   A    
C55   N54   A    
C32   C37   S    
N6    Ni5   S    
C26   H13   S    
H99   N49   S    
C112  N51   S    
N16   Ni3   S    
C74   C76   S    
C66   C71   S    
C77   H47   S    
C97   N40   S    
C7    H39   S    
H102  N51   S    
C98   N41   S    
N3    Ni4   S    
N55   Ni8   S    
C99   N3    A    
N6    N15   A    
C26   C30   S    
H98   N49   S    
C8    N22   A    
C22   C27   S    
C98   N2    A    
N14   Ni1   S    
C5    N19   A    
C6    C80   A    
H16   N28   S    
C104  H87   S    
C31   C35   S    
C3    C21   A    
C23   C28   S    
C4    C58   A    
C75   N36   S    
C51   H25   S    
C15   C36   A    
C71   C77   S    
N7    N16   A    
H97   N48   S    
C42   C66   A    
C101  N5    A    
C50   C61   A    
C6    N20   A    
C110  N49   S    
C85   C89   A    
C3    N52   S    
N13   Ni8   S    
C35   C37   S    
N20   Ni8   S    
C4    N18   A    
C77   N38   S    
C18   C110  A    
C111  N50   S    
H80   N42   S    
C17   C109  A    
H35   N32   S    
H49   N36   S    
C53   C58   A    
C97   N56   A    
N12   N24   A    
C20   C104  A    
C108  N11   A    
C19   C111  A    
N19   N53   A    
C105  N8    A    
H95   N47   S    
C25   N12   A    
C59   C63   A    
C33   C38   S    
C112  N16   A    
C40   C75   S    
C60   C64   A    
C92   H62   S    
N2    Ni1   S    
C72   N32   S    
H52   N37   S    
H89   N44   S    
H103  N51   S    
C27   H50   S    
C50   H24   S    
C25   H2    S    
C3    N17   A    
C41   C76   S    
C46   C80   S    
C55   C80   A    
H56   N39   S    
C79   C84   A    
C54   C69   A    
C56   H70   S    
N17   Ni4   S    
C27   C37   S    
H101  N50   S    
C2    C98   A    
H54   N38   S    
C54   H68   S    
N53   Ni6   S    
C102  C106  A    
H77   N40   S    
H53   N37   S    
C78   H48   S    
H79   N41   S    
C14   C25   A    
C6    H28   S    
C28   H61   S    
C17   C100  A    
C81   C85   A    
C100  N4    A    
N26   N34   A    
C8    H4    S    
H100  N50   S    
C61   C65   A    
C48   C52   A    
C18   C32   S    
C88   C89   A    
C59   H29   S    
C42   C77   S    
C43   C67   A    
C82   C83   A    
C40   C68   A    
N12   Ni2   S    
C72   C78   S    
H33   N31   S    
H55   N38   S    
C11   N26   A    
N9    Ni5   S    
C22   C23   S    
C74   H44   S    
C1    N1    A    
C45   C50   A    
C16   C64   S    
N3    N11   A    
N22   Ni2   S    
C56   N55   A    
N11   Ni7   S    
N1    N22   A    
N2    N10   A    
H40   N35   S    
C21   C105  A    
C85   C102  S    
C76   N37   S    
C95   H74   S    
C94   H64   S    
C41   C70   A    
C18   C101  A    
C99   N42   S    
C71   H41   S    
