data_mof_unit_32276.cif
_audit_creation_date              2013-03-05T16:00:27-0500
_audit_creation_method            fapswitch 2.2
_symmetry_space_group_name_H-M    P1
_symmetry_Int_Tables_number       1
_space_group_crystal_system       triclinic
_cell_length_a                    6.968085
_cell_length_b                    28.809187
_cell_length_c                    32.038069
_cell_angle_alpha                 101.092508
_cell_angle_beta                  89.837082
_cell_angle_gamma                 90.24454
_cell_volume                      6311.25294906

loop_
_atom_site_label
_atom_site_type_symbol
_atom_site_description
_atom_site_fract_x
_atom_site_fract_y
_atom_site_fract_z
_atom_type_partial_charge
O1    O     O_R   0.494350 0.453160 0.452490 -0.593167
O2    O     O_R   0.820990 0.455850 0.538220 -0.601348
O3    O     O_R   0.994300 0.546840 0.547510 -0.590662
C1    C     C_R   0.652175 0.446237 0.552098 0.955041
O4    O     O_R   0.823860 0.447580 0.452250 -0.599063
O5    O     O_R   0.997190 0.538510 0.460920 -0.592734
C2    C     C_R   0.655140 0.434889 0.436387 0.951826
O6    O     O_R   0.491450 0.461490 0.539080 -0.566693
O7    O     O_3   0.661790 0.529840 0.502950 -0.275032
V1    V     V_3+5 0.935470 0.494460 0.499450 1.142050
O8    O     O_R   0.327090 0.544150 0.461780 -0.580277
C3    C     C_R   0.158351 0.554702 0.448802 0.957950
O9    O     O_R   0.324210 0.552420 0.547750 -0.593160
C4    C     C_R   0.153816 0.565918 0.563323 0.939433
V2    V     V_3+5 0.435840 0.505540 0.500550 1.150886
O10   O     O_3   0.159650 0.470160 0.497050 -0.267878
C5    C     C_R   0.956287 0.617336 0.622137 0.104324
C6    C     C_R   0.948351 0.646456 0.663043 0.145736
C7    C     C_R   0.110761 0.673638 0.679328 0.046926
C8    C     C_R   0.282850 0.665624 0.656323 -0.165616
C9    C     C_R   0.297330 0.629600 0.620242 -0.220503
C10   C     C_R   0.135948 0.604616 0.602211 -0.208725
N1    N     N_R   0.256949 0.739866 0.731120 -0.077622
N2    N     N_R   0.248156 0.774559 0.765319 -0.076612
C11   C     C_R   0.084055 0.782622 0.788586 0.104817
N3    N     N_R   0.929312 0.754695 0.776017 -0.072693
N4    N     N_R   0.937968 0.720336 0.741689 -0.052371
C12   C     C_R   0.101971 0.711791 0.718482 0.128910
C13   C     C_R   0.929211 0.820251 0.857538 -0.210960
H1    H     H_    0.829139 0.790874 0.854009 0.129249
C14   C     C_R   0.913809 0.856790 0.893455 0.170708
C15   C     C_R   0.044274 0.895258 0.899070 -0.175133
C16   C     C_R   0.187114 0.896004 0.868127 -0.200472
C17   C     C_R   0.201793 0.859351 0.832549 -0.138020
C18   C     C_R   0.072374 0.821169 0.826731 0.101212
C19   C     C_R   0.123484 0.654944 0.281695 0.494019
N5    N     N_R   0.132490 0.675418 0.324127 -0.177281
C20   C     C_R   0.144053 0.723788 0.336321 0.476212
C21   C     C_R   0.151655 0.752884 0.305701 -0.059559
C22   C     C_R   0.128509 0.732549 0.262508 -0.009830
C23   C     C_R   0.109723 0.683207 0.250438 -0.062581
C24   C     C_R   0.179606 0.801829 0.317523 -0.203227
C25   C     C_R   0.190629 0.830582 0.286888 0.204642
C26   C     C_R   0.159111 0.810677 0.243318 -0.109262
C27   C     C_R   0.122305 0.761606 0.231484 -0.070865
C28   C     C_R   0.077431 0.741555 0.188818 -0.102422
C29   C     C_R   0.059303 0.691619 0.176794 0.210431
C30   C     C_R   0.077914 0.663168 0.207551 -0.211186
C31   C     C_R   0.160592 0.838092 0.211102 0.509810
N6    N     N_R   0.096833 0.819365 0.170817 -0.166398
C32   C     C_R   0.047731 0.772399 0.159993 0.505733
O11   O     O_2   0.127061 0.607434 0.269673 -0.554005
O12   O     O_2   0.145830 0.743925 0.377989 -0.558353
O13   O     O_2   0.224042 0.883198 0.219862 -0.553633
O14   O     O_2   0.966039 0.755947 0.121879 -0.547588
C33   C     C_R   0.175064 0.840052 0.100401 0.131809
C34   C     C_R   0.157659 0.871048 0.071152 0.049577
C35   C     C_R   0.042693 0.911976 0.081191 -0.253215
C36   C     C_R   0.940092 0.921185 0.119865 0.043183
C37   C     C_R   0.956443 0.890334 0.149145 0.134846
C38   C     C_R   0.076176 0.850026 0.139857 0.101430
C39   C     C_R   0.277157 0.651710 0.387046 -0.229517
C40   C     C_R   0.285841 0.623499 0.418095 0.171991
C41   C     C_R   0.148391 0.587353 0.418085 -0.178811
C42   C     C_R   0.998277 0.582480 0.388261 -0.336884
C43   C     C_R   0.985705 0.611911 0.357971 0.265455
C44   C     C_R   0.131419 0.646018 0.356296 0.165763
C45   C     C_R   0.662816 0.226044 0.840848 0.451843
N7    N     N_R   0.624863 0.178635 0.827841 -0.183544
C46   C     C_R   0.608948 0.158993 0.785472 0.483682
C47   C     C_R   0.618933 0.187538 0.754478 -0.039139
C48   C     C_R   0.650671 0.236593 0.767254 -0.044801
C49   C     C_R   0.674772 0.256480 0.810876 -0.108453
C50   C     C_R   0.594022 0.168180 0.711068 -0.112814
C51   C     C_R   0.596850 0.197077 0.680716 -0.122340
C52   C     C_R   0.626741 0.246056 0.692893 -0.043845
C53   C     C_R   0.656268 0.265764 0.736200 -0.008222
C54   C     C_R   0.689921 0.314611 0.748421 -0.067431
C55   C     C_R   0.717974 0.334102 0.791561 -0.220358
C56   C     C_R   0.707308 0.306028 0.822829 0.210212
C57   C     C_R   0.625243 0.275975 0.662830 0.466758
N8    N     N_R   0.655147 0.323748 0.675334 -0.172449
C58   C     C_R   0.691525 0.343097 0.717180 0.505656
O15   O     O_2   0.685832 0.243561 0.882682 -0.532995
O16   O     O_2   0.581706 0.111934 0.773361 -0.548466
O17   O     O_2   0.591289 0.257488 0.621530 -0.554707
O18   O     O_2   0.728746 0.389810 0.728612 -0.565505
C59   C     C_R   0.501893 0.388803 0.646135 0.155214
C60   C     C_R   0.501207 0.419469 0.616184 0.085203
C61   C     C_R   0.644464 0.414771 0.584042 -0.187624
C62   C     C_R   0.785745 0.379858 0.582705 -0.220554
C63   C     C_R   0.785558 0.349749 0.611995 -0.136007
C64   C     C_R   0.646425 0.354071 0.644108 0.171486
C65   C     C_R   0.414747 0.127475 0.863960 0.248494
C66   C     C_R   0.396533 0.096835 0.893436 -0.282002
C67   C     C_R   0.553213 0.088033 0.918491 -0.126247
C68   C     C_R   0.727762 0.111209 0.914369 -0.182888
C69   C     C_R   0.747090 0.141562 0.885602 -0.136417
C70   C     C_R   0.594607 0.149298 0.859370 0.205184
C71   C     C_R   0.484935 0.393343 0.370608 -0.246724
C72   C     C_R   0.476691 0.359303 0.332709 0.197080
C73   C     C_R   0.629162 0.326659 0.321655 -0.005406
C74   C     C_R   0.790417 0.330085 0.349326 0.155988
C75   C     C_R   0.797288 0.365409 0.386256 -0.217281
C76   C     C_R   0.645297 0.397153 0.397429 -0.169705
N9    N     N_R   0.446192 0.265550 0.271878 -0.059652
N10   N     N_R   0.433223 0.231550 0.237218 -0.076176
C77   C     C_R   0.588642 0.219046 0.211856 0.122352
N11   N     N_R   0.756257 0.242668 0.222212 -0.057886
N12   N     N_R   0.768703 0.276803 0.256707 -0.082791
C78   C     C_R   0.614860 0.288670 0.282639 0.120234
C79   C     C_R   0.408248 0.174018 0.149522 -0.238924
C80   C     C_R   0.391685 0.138282 0.112669 0.178783
C81   C     C_R   0.545760 0.106388 0.100640 -0.216270
C82   C     C_R   0.714623 0.112987 0.125011 -0.284115
C83   C     C_R   0.730760 0.148414 0.161784 0.205904
C84   C     C_R   0.576379 0.179807 0.174068 0.049248
O19   O     O_R   0.699050 0.038480 0.960880 -0.597941
O20   O     O_R   0.366680 0.052470 0.047720 -0.599932
O21   O     O_R   0.193410 0.961530 0.039110 -0.586519
C85   C     C_R   0.535422 0.066290 0.062951 0.960529
O22   O     O_R   0.369510 0.044100 0.961740 -0.593238
O23   O     O_R   0.196260 0.953110 0.952520 -0.593108
C86   C     C_R   0.538895 0.054594 0.948575 0.938449
O24   O     O_R   0.696210 0.046900 0.047470 -0.586664
O25   O     O_3   0.528780 0.970170 0.997070 -0.263427
V3    V     V_3+5 0.255080 0.005530 0.000540 1.150836
O26   O     O_R   0.866350 0.947520 0.952280 -0.581869
C87   C     C_R   0.035036 0.934401 0.936853 0.944975
O27   O     O_R   0.863520 0.955880 0.038260 -0.585599
C88   C     C_R   0.032215 0.945465 0.051238 1.028645
V4    V     V_3+5 0.754720 0.994440 0.999470 1.157612
O28   O     O_3   0.030880 0.029830 0.002930 -0.281585
N13   N     N_2   0.781488 0.605924 0.599879 -0.129683
H2    H     H_    0.740917 0.570854 0.594219 0.188560
C89   C     C_3   0.749587 0.631632 0.565742 -0.852788
H3    H     H_    0.724654 0.669597 0.579308 0.233230
H4    H     H_    0.622031 0.617137 0.547054 0.259876
H5    H     H_    0.873728 0.628695 0.543609 0.245346
N14   N     N_2   0.221410 0.879966 0.300713 -0.071649
H6    H     H_    0.119042 0.895577 0.322154 0.168248
C90   C     C_3   0.414136 0.892559 0.315507 -0.814199
H7    H     H_    0.432932 0.931490 0.320070 0.247567
H8    H     H_    0.521448 0.875421 0.291890 0.246919
H9    H     H_    0.440127 0.881430 0.346341 0.224558
N15   N     N_2   0.030837 0.669244 0.133610 -0.076183
H10   H     H_    0.949692 0.638690 0.129958 0.162308
C91   C     C_3   0.205625 0.662511 0.108716 -0.795392
H11   H     H_    0.302125 0.637539 0.120900 0.222525
H12   H     H_    0.281461 0.696739 0.109924 0.263889
H13   H     H_    0.170153 0.647636 0.075022 0.240109
H14   H     H_    0.065461 0.625138 0.197641 0.173943
N16   N     N_2   0.282550 0.797359 0.089193 -0.093147
H15   H     H_    0.281500 0.781808 0.057432 0.191315
C92   C     C_3   0.470152 0.797913 0.108294 -0.911167
H16   H     H_    0.542540 0.763585 0.096639 0.275045
H17   H     H_    0.456204 0.802421 0.143270 0.254145
H18   H     H_    0.559776 0.826697 0.099721 0.252993
N17   N     N_2   0.253593 0.860988 0.031068 -0.097898
H19   H     H_    0.387400 0.845947 0.031438 0.181342
C93   C     C_3   0.134239 0.837661 0.996341 -0.946495
H20   H     H_    0.088795 0.802208 0.001538 0.252542
H21   H     H_    0.215351 0.833239 0.966018 0.246049
H22   H     H_    0.004908 0.859142 0.993522 0.244069
N18   N     N_2   0.820221 0.961783 0.129312 -0.099907
H23   H     H_    0.693187 0.956526 0.144345 0.182533
C94   C     C_3   0.918925 0.004635 0.148997 -0.940336
H24   H     H_    0.997091 0.999489 0.177924 0.255032
H25   H     H_    0.812245 0.033080 0.158587 0.248636
H26   H     H_    0.022249 0.015713 0.126308 0.243465
N19   N     N_2   0.860460 0.900968 0.189229 -0.094200
H27   H     H_    0.848080 0.936354 0.202448 0.197375
C95   C     C_3   0.685692 0.874752 0.192086 -0.897743
H28   H     H_    0.627214 0.884331 0.224768 0.274258
H29   H     H_    0.714639 0.836201 0.185375 0.250578
H30   H     H_    0.577225 0.883709 0.169600 0.262949
H31   H     H_    0.382750 0.679371 0.387587 0.160869
N20   N     N_2   0.427294 0.633657 0.450545 -0.100180
H32   H     H_    0.554699 0.646164 0.440370 0.173844
C96   C     C_3   0.357427 0.663346 0.489200 -0.865560
H33   H     H_    0.300979 0.697151 0.482384 0.261424
H34   H     H_    0.476371 0.671875 0.512323 0.241667
H35   H     H_    0.242419 0.644869 0.503800 0.226284
H36   H     H_    0.889211 0.555625 0.388597 0.147117
N21   N     N_2   0.778142 0.647174 0.687818 -0.114691
H37   H     H_    0.654936 0.641486 0.670135 0.178974
C97   C     C_3   0.784944 0.616027 0.718239 -0.895183
H38   H     H_    0.792970 0.578544 0.701381 0.244967
H39   H     H_    0.652994 0.620679 0.738102 0.255968
H40   H     H_    0.911073 0.624331 0.739546 0.258845
N22   N     N_2   0.825918 0.606749 0.329628 -0.084517
H41   H     H_    0.748613 0.575878 0.328372 0.176933
C98   C     C_3   0.704380 0.647947 0.332733 -0.894735
H42   H     H_    0.559459 0.637062 0.320054 0.251592
H43   H     H_    0.763081 0.672665 0.313368 0.248281
H44   H     H_    0.691685 0.666654 0.366318 0.237717
H45   H     H_    0.569467 0.130628 0.700402 0.172760
H46   H     H_    0.574618 0.180878 0.647670 0.173247
H47   H     H_    0.742717 0.371761 0.801539 0.175683
N23   N     N_2   0.725666 0.328537 0.866222 -0.073604
H48   H     H_    0.830938 0.354293 0.871277 0.161016
C99   C     C_3   0.545857 0.345575 0.886026 -0.773320
H49   H     H_    0.487984 0.374321 0.871038 0.214658
H50   H     H_    0.569576 0.359698 0.920383 0.241995
H51   H     H_    0.438922 0.316380 0.882943 0.261660
N24   N     N_2   0.363636 0.394065 0.679616 -0.099063
H52   H     H_    0.313214 0.427634 0.691268 0.191623
C100  C     C_3   0.222112 0.356739 0.677607 -0.910596
H53   H     H_    0.076644 0.371242 0.674646 0.259912
H54   H     H_    0.227885 0.342480 0.707383 0.260943
H55   H     H_    0.246915 0.327274 0.650155 0.255978
N25   N     N_2   0.357306 0.454861 0.618285 -0.100786
H56   H     H_    0.222819 0.444824 0.626831 0.175864
C101  C     C_3   0.414356 0.501246 0.640953 -0.889358
H57   H     H_    0.295980 0.526670 0.640049 0.242396
H58   H     H_    0.543007 0.513954 0.625927 0.233651
H59   H     H_    0.446660 0.500261 0.674704 0.244428
H60   H     H_    0.896752 0.375520 0.558540 0.154618
H61   H     H_    0.896545 0.323230 0.610102 0.148213
N26   N     N_2   0.254451 0.134110 0.838006 -0.098050
H62   H     H_    0.144079 0.110191 0.838334 0.173798
C102  C     C_3   0.186580 0.182229 0.841358 -0.896569
H63   H     H_    0.046048 0.181888 0.825064 0.238757
H64   H     H_    0.284250 0.203310 0.825126 0.245164
H65   H     H_    0.170197 0.199747 0.875238 0.257329
H66   H     H_    0.407768 0.687014 0.666697 0.135306
H67   H     H_    0.260441 0.079406 0.896364 0.133008
H68   H     H_    0.850688 0.105989 0.933547 0.145312
H69   H     H_    0.882769 0.158903 0.883648 0.147141
H70   H     H_    0.367251 0.417996 0.378360 0.138114
N27   N     N_2   0.314814 0.358770 0.305573 -0.115683
H71   H     H_    0.190468 0.370943 0.321474 0.165229
C103  C     C_3   0.348222 0.380807 0.269252 -0.885797
H72   H     H_    0.379221 0.419125 0.279976 0.249695
H73   H     H_    0.218219 0.376814 0.248889 0.252748
H74   H     H_    0.470215 0.363798 0.249836 0.256963
N28   N     N_2   0.945685 0.297622 0.341904 -0.119858
H75   H     H_    0.008606 0.293605 0.312351 0.187207
C104  C     C_3   0.912593 0.253539 0.356027 -0.870276
H76   H     H_    0.045982 0.232182 0.351895 0.250454
H77   H     H_    0.796496 0.232996 0.337054 0.247436
H78   H     H_    0.872725 0.260440 0.390269 0.256924
H79   H     H_    0.921826 0.367416 0.406723 0.150149
H80   H     H_    0.290017 0.197960 0.159081 0.152126
N29   N     N_2   0.221120 0.133934 0.087694 -0.101104
H81   H     H_    0.130910 0.107192 0.092787 0.172870
C105  C     C_3   0.124466 0.176575 0.081826 -0.894250
H82   H     H_    0.022235 0.167705 0.054931 0.256584
H83   H     H_    0.229877 0.202752 0.074131 0.261711
H84   H     H_    0.041777 0.192127 0.110775 0.238626
H85   H     H_    0.834214 0.089483 0.116020 0.148188
H86   H     H_    0.433854 0.622349 0.605556 0.171742
N30   N     N_2   0.902554 0.151761 0.186273 -0.114859
H87   H     H_    0.022051 0.138545 0.169037 0.169004
C106  C     C_3   0.887202 0.134198 0.225568 -0.890502
H88   H     H_    0.857725 0.095595 0.218808 0.246052
H89   H     H_    0.771261 0.152497 0.246115 0.255315
H90   H     H_    0.024443 0.140706 0.243305 0.254420
N31   N     N_2   0.772493 0.853423 0.924801 -0.121019
H91   H     H_    0.769642 0.820753 0.933493 0.162692
C107  C     C_3   0.583237 0.867961 0.914429 -0.817614
H92   H     H_    0.521592 0.841627 0.887883 0.229103
H93   H     H_    0.588848 0.903224 0.905268 0.255130
H94   H     H_    0.488831 0.870609 0.942688 0.249899
H95   H     H_    0.287448 0.925287 0.871353 0.136918
H96   H     H_    0.313339 0.861224 0.809324 0.132540
H97   H     H_    0.197040 0.818082 0.350723 0.178418

loop_
_geom_bond_atom_site_label_1
_geom_bond_atom_site_label_2
_geom_bond_distance
_ccdc_geom_bond_type
C26   C31   1.415172 A    
C105  H83   1.111196 S    
C58   O18   1.349215 S    
N19   H27   1.029787 S    
C106  H89   1.109502 S    
N29   C105  1.447317 S    
N18   H23   1.031002 S    
O23   C87   1.303253 A    
C92   H17   1.107006 S    
O21   C88   1.299644 A    
O2    C1    1.303732 A    
C7    C8    1.402261 A    
C91   H13   1.110227 S    
C1    O6    1.303335 A    
O26   C87   1.302820 A    
C39   H31   1.080028 S    
N26   C102  1.450847 S    
C93   H20   1.110636 S    
C34   C35   1.412846 A    
O21   V3    1.978265 S    
C94   H25   1.107050 S    
C53   C54   1.405102 A    
C96   H33   1.111959 S    
C98   H42   1.110723 S    
N19   C95   1.442220 S    
C71   C76   1.402560 A    
C72   C73   1.420164 A    
C40   N20   1.422775 S    
C99   H50   1.110228 S    
C39   C44   1.403861 A    
C19   N5    1.375350 A    
C91   H12   1.110882 S    
C107  H93   1.110892 S    
C6    C7    1.415885 A    
C100  H55   1.112226 S    
N17   H19   1.030888 S    
O5    C3    1.300826 A    
C107  H92   1.111063 S    
C3    C41   1.488380 S    
N24   C100  1.448338 S    
N21   C97   1.447242 S    
C82   H85   1.079024 S    
N9    N10   1.334902 A    
C31   O13   1.348465 S    
C56   N23   1.422331 S    
O20   V3    1.982277 S    
N28   H75   1.028588 S    
C8    H66   1.079881 S    
C77   N11   1.358620 A    
C17   C18   1.404126 A    
O22   V3    1.983433 S    
C61   C62   1.405087 A    
N12   C78   1.358328 A    
N26   H62   1.031825 S    
C97   H40   1.111055 S    
C48   C53   1.420876 A    
C73   C74   1.424530 A    
C59   C64   1.415261 A    
C81   C85   1.503573 S    
O8    V2    1.974468 S    
C54   C58   1.411127 A    
C49   C56   1.422345 A    
C104  H76   1.110342 S    
N23   H48   1.031849 S    
C98   H43   1.106993 S    
C99   H51   1.111544 S    
C45   N7    1.373892 A    
N10   C77   1.359606 A    
C2    C76   1.490707 S    
C46   C47   1.407294 A    
O1    V2    1.980357 S    
N16   C92   1.443687 S    
C13   H1    1.083448 S    
C103  H72   1.111653 S    
N15   C91   1.447090 S    
C57   O17   1.349047 S    
C36   N18   1.424058 S    
C96   H35   1.111042 S    
C83   N30   1.425876 S    
C95   H29   1.109115 S    
C43   C44   1.418025 A    
C34   N17   1.426048 S    
C106  H90   1.110475 S    
C36   C37   1.416056 A    
N18   C94   1.445832 S    
N8    C64   1.450746 S    
C9    C10   1.397541 A    
C67   C68   1.403076 A    
C92   H18   1.111457 S    
C59   N24   1.426362 S    
C5    N13   1.418270 S    
C90   H9    1.111249 S    
C19   C23   1.410646 A    
C65   C66   1.416423 A    
C9    H86   1.063648 S    
C89   H5    1.110098 S    
O26   V4    1.983405 S    
C79   C80   1.413982 A    
C93   H21   1.108759 S    
C96   H34   1.108055 S    
C68   C69   1.393048 A    
C21   C24   1.400799 A    
C1    C61   1.492784 S    
N9    C78   1.360551 A    
O20   C85   1.305248 A    
C24   H97   1.083507 S    
C73   C78   1.497849 S    
C22   C27   1.418195 A    
C105  H84   1.110046 S    
C92   H16   1.110404 S    
C55   H47   1.083630 S    
C50   C51   1.396538 A    
C67   C86   1.490925 S    
N22   H41   1.031998 S    
C45   O15   1.347967 S    
N20   H32   1.032016 S    
C20   C21   1.408377 A    
N14   H6    1.031523 S    
C48   C49   1.414955 A    
C104  H77   1.111062 S    
C99   H49   1.111767 S    
C15   C87   1.488638 S    
C94   H24   1.110828 S    
N30   C106  1.447841 S    
N24   H52   1.030199 S    
V4    O28   2.166960 S    
N13   C89   1.452070 S    
C102  H65   1.111290 S    
N6    C32   1.372688 A    
C45   C49   1.421518 A    
C95   H28   1.107191 S    
C28   C32   1.415495 A    
N8    C58   1.373170 A    
C57   N8    1.372581 A    
N15   H10   1.031867 S    
C55   C56   1.404990 A    
C16   H95   1.083056 S    
C37   C38   1.416695 A    
C52   C57   1.410780 A    
C63   H61   1.082766 S    
O27   V4    1.974088 S    
C51   C52   1.404541 A    
N22   C98   1.448605 S    
C85   O24   1.307241 A    
N5    C20   1.375035 A    
C47   C50   1.406216 A    
C69   H69   1.074703 S    
O23   V3    1.979849 S    
C29   C30   1.404286 A    
C50   H45   1.083023 S    
O25   V4    1.715818 S    
C35   C88   1.488063 S    
C74   N28   1.422446 S    
C98   H44   1.110281 S    
C43   N22   1.427837 S    
C8    C9    1.400756 A    
C39   C40   1.401984 A    
C65   N26   1.429620 S    
C5    C6    1.414665 A    
N3    N4    1.331996 A    
C25   N14   1.421874 S    
C72   N27   1.424317 S    
O19   C86   1.301418 A    
N1    C12   1.361371 A    
N2    C11   1.359397 A    
C102  H64   1.103826 S    
C7    C12   1.501680 S    
C103  H73   1.110419 S    
C100  H53   1.109258 S    
O3    C4    1.298097 A    
C11   C18   1.487075 S    
C94   H26   1.110387 S    
N7    C70   1.450843 S    
C89   H4    1.107484 S    
C22   C23   1.405167 A    
N27   H71   1.031795 S    
N25   C101  1.447357 S    
C31   N6    1.373890 A    
O6    V2    1.973360 S    
N28   C104  1.445273 S    
O9    V2    1.982992 S    
C29   N15   1.423480 S    
C90   H8    1.109789 S    
C35   C36   1.409557 A    
C24   C25   1.402592 A    
O22   C86   1.305981 A    
C106  H88   1.109750 S    
O2    V1    1.983654 S    
C74   C75   1.405126 A    
C93   H22   1.109051 S    
C26   C27   1.413954 A    
C79   H80   1.081858 S    
O4    C2    1.304742 A    
C80   C81   1.419576 A    
O7    V1    2.158617 S    
C51   H46   1.083016 S    
C101  H57   1.109585 S    
C33   C34   1.419064 A    
C28   C29   1.421089 A    
O1    C2    1.302222 A    
C37   N19   1.426828 S    
C77   C84   1.491332 S    
C17   H96   1.082838 S    
C14   C15   1.415142 A    
V3    O28   1.710142 S    
N29   H81   1.029030 S    
C33   N16   1.427978 S    
N31   C107  1.444186 S    
C101  H59   1.110838 S    
C19   O11   1.348993 S    
C75   C76   1.402245 A    
O5    V1    1.978472 S    
C107  H94   1.108464 S    
N20   C96   1.447358 S    
C105  H82   1.110151 S    
C81   C82   1.405889 A    
N13   H2    1.030029 S    
N14   C90   1.446737 S    
C75   H79   1.083786 S    
C13   C18   1.405067 A    
C6    N21   1.423270 S    
C5    C10   1.420714 A    
C79   C84   1.404241 A    
C41   C42   1.406990 A    
C4    C10   1.508815 S    
C62   H60   1.083284 S    
C30   H14   1.083605 S    
N17   C93   1.447037 S    
C11   N3    1.357393 A    
C101  H58   1.109944 S    
O4    V1    1.981787 S    
C13   C14   1.406383 A    
O3    V1    1.979971 S    
V1    O10   1.710005 S    
N11   N12   1.333292 A    
C15   C16   1.405819 A    
C52   C53   1.409711 A    
C54   C55   1.402056 A    
O24   V4    1.980567 S    
C60   N25   1.425306 S    
N21   H37   1.025039 S    
N30   H87   1.030753 S    
C20   O12   1.349389 S    
C65   C70   1.419643 A    
C25   C26   1.420641 A    
O25   V3    2.158511 S    
C80   N29   1.426192 S    
V2    O10   2.166967 S    
N5    C44   1.454454 S    
C71   H70   1.083728 S    
C63   C64   1.399996 A    
C95   H30   1.110460 S    
C23   C30   1.402071 A    
C16   C17   1.400647 A    
C83   C84   1.413848 A    
O27   C88   1.303249 A    
C104  H78   1.111329 S    
C32   O14   1.348594 S    
C91   H11   1.111646 S    
C42   C43   1.409265 A    
O7    V2    1.716226 S    
N7    C46   1.371077 A    
C103  H74   1.110364 S    
C66   H67   1.083397 S    
C97   H39   1.110487 S    
O19   V4    1.974663 S    
N27   C103  1.446656 S    
N1    N2    1.334887 A    
C40   C41   1.411767 A    
C21   C22   1.404532 A    
C27   C28   1.413182 A    
C47   C48   1.410293 A    
C68   H68   1.083284 S    
C59   C60   1.423913 A    
C97   H38   1.112137 S    
C100  H54   1.109742 S    
C69   C70   1.401450 A    
N4    C12   1.358865 A    
C90   H7    1.110054 S    
N6    C38   1.457320 S    
C33   C38   1.418564 A    
C89   H3    1.110677 S    
C71   C72   1.407497 A    
C82   C83   1.406914 A    
C60   C61   1.420167 A    
O9    C4    1.317495 A    
C46   O16   1.349221 S    
C102  H63   1.110109 S    
N23   C99   1.447138 S    
C66   C67   1.409342 A    
C62   C63   1.395061 A    
N31   H91   1.031716 S    
O8    C3    1.304700 A    
N25   H56   1.031241 S    
N16   H15   1.029939 S    
C42   H36   1.083709 S    
C14   N31   1.420785 S    
