data_mof_unit_26553.cif
_audit_creation_date              2012-12-10T17:25:15-0500
_audit_creation_method            fapswitch 2.2
_symmetry_space_group_name_H-M    P1
_symmetry_Int_Tables_number       1
_space_group_crystal_system       triclinic
_cell_length_a                    27.736549
_cell_length_b                    10.795969
_cell_length_c                    9.610493
_cell_angle_alpha                 88.95486
_cell_angle_beta                  89.852239
_cell_angle_gamma                 91.828654
_cell_volume                      2875.83562634

loop_
_atom_site_label
_atom_site_type_symbol
_atom_type_description
_atom_site_fract_x
_atom_site_fract_y
_atom_site_fract_z
_atom_type_partial_charge
C1    C     C_R   0.506554 0.263792 0.501471 0.889482
C2    C     C_R   0.283508 0.353623 0.515245 -0.048111
C3    C     C_R   0.254248 0.455034 0.490659 0.253063
C4    C     C_R   0.101975 0.433400 0.479152 -0.043763
C5    C     C_R   0.126669 0.387813 0.596180 -0.026567
C6    C     C_R   0.100326 0.341575 0.711051 -0.134555
C7    C     C_R   0.128560 0.477483 0.362530 -0.028177
C8    C     C_R   0.354984 0.489155 0.499614 -0.150052
C9    C     C_R   0.645480 0.499499 0.499031 -0.048946
C10   C     C_R   0.973039 0.385826 0.592183 0.040729
C11   C     C_R   0.976224 0.507553 0.372353 0.040843
C12   C     C_R   0.407714 0.500386 0.500021 0.876171
C13   C     C_R   0.949431 0.451348 0.483990 0.071556
C14   C     C_R   0.944348 0.322423 0.694272 -0.203439
C15   C     C_R   0.894325 0.328318 0.693498 -0.141357
C16   C     C_R   0.871020 0.399055 0.592315 -0.038114
C17   C     C_R   0.898496 0.461302 0.487796 -0.046764
C18   C     C_R   0.874967 0.533644 0.387116 -0.016504
C19   C     C_R   0.824787 0.545353 0.395163 0.513815
C20   C     C_R   0.820593 0.407971 0.592279 0.591102
C21   C     C_R   0.720101 0.455158 0.381118 -0.156109
C22   C     C_R   0.670090 0.461477 0.380426 -0.165627
C23   C     C_R   0.497909 0.738076 0.499184 0.811666
C24   C     C_R   0.671842 0.535542 0.616823 -0.249573
C25   C     C_R   0.722411 0.535024 0.616205 0.306389
C26   C     C_R   0.746758 0.491463 0.498175 0.310778
C27   C     C_R   0.024282 0.386123 0.594828 0.040488
C28   C     C_R   0.050809 0.436595 0.479432 0.072793
C29   C     C_R   0.026769 0.491865 0.365005 0.041186
C30   C     C_R   0.050155 0.339943 0.710320 -0.206236
C31   C     C_R   0.104246 0.522285 0.245758 -0.131956
C32   C     C_R   0.951531 0.580180 0.273301 -0.206760
C33   C     C_R   0.901949 0.593561 0.281370 -0.140246
C34   C     C_R   0.592471 0.500713 0.499792 0.836711
C35   C     C_R   0.054337 0.529885 0.246922 -0.207330
C36   C     C_R   0.519050 0.106291 0.764749 0.353685
C37   C     C_R   0.494486 0.053816 0.879597 -0.234101
C38   C     C_R   0.463897 0.950012 0.863989 0.345322
C39   C     C_R   0.463776 0.888106 0.737521 -0.178067
C40   C     C_R   0.489375 0.939437 0.621632 0.009964
C41   C     C_R   0.508059 0.061168 0.631058 -0.121803
C42   C     C_R   0.516496 0.129940 0.506724 -0.175483
C43   C     C_R   0.527828 0.065640 0.385456 0.382611
C44   C     C_R   0.518915 0.937771 0.382717 -0.262020
C45   C     C_R   0.177383 0.393188 0.597211 0.558407
C46   C     C_R   0.498644 0.873934 0.498608 -0.115437
C47   C     C_R   0.564925 0.660279 0.140370 -0.132989
C48   C     C_R   0.597562 0.736351 0.066744 -0.146576
C49   C     C_R   0.597321 0.737619 0.923483 -0.171955
C50   C     C_R   0.564901 0.661311 0.852921 -0.153975
C51   C     C_R   0.532016 0.578796 0.923531 0.238928
C52   C     C_R   0.532084 0.578368 0.073024 0.264718
C53   C     C_R   0.469080 0.426449 0.075535 0.052284
C54   C     C_R   0.469145 0.426296 0.927769 -0.025655
C55   C     C_R   0.179125 0.477222 0.365965 0.555517
C56   C     C_R   0.275569 0.573648 0.472067 -0.142988
C57   C     C_R   0.325728 0.591783 0.473829 0.388162
C58   C     C_R   0.333518 0.370866 0.520785 -0.267534
Cu1   Cu    Cu3+1 0.500000 0.499990 0.640660 0.996827
Cu2   Cu    Cu3+1 0.500000 0.500010 0.359340 1.043684
H1    H     H_    0.355662 0.291356 0.539410 0.171630
H2    H     H_    0.252607 0.651767 0.455528 0.192061
H3    H     H_    0.123781 0.553939 0.153340 0.195180
H4    H     H_    0.969811 0.631608 0.190564 0.143938
H5    H     H_    0.653271 0.566964 0.708300 0.159154
H6    H     H_    0.884803 0.650943 0.203490 0.187354
H7    H     H_    0.038221 0.563935 0.152325 0.143339
H8    H     H_    0.500550 0.090315 0.981459 0.248564
H9    H     H_    0.267541 0.261382 0.529127 0.181837
H10   H     H_    0.443115 0.801997 0.730745 0.211586
H11   H     H_    0.529462 0.887355 0.291802 0.209008
H12   H     H_    0.443879 0.365591 0.131952 0.149926
H13   H     H_    0.566863 0.670704 0.249659 0.174629
H14   H     H_    0.623047 0.795412 0.121601 0.162573
H15   H     H_    0.622341 0.798600 0.866241 0.171197
H16   H     H_    0.567481 0.671514 0.743270 0.184966
H17   H     H_    0.444082 0.365162 0.874080 0.142408
H18   H     H_    0.118417 0.306984 0.802971 0.193021
H19   H     H_    0.650651 0.434214 0.287767 0.215780
H20   H     H_    0.738300 0.421556 0.290084 0.179095
H21   H     H_    0.873987 0.277929 0.773879 0.188325
H22   H     H_    0.959455 0.264594 0.774536 0.142978
H23   H     H_    0.032675 0.305968 0.804376 0.142621
N1    N     N_R   0.202585 0.438955 0.483681 -0.456873
N2    N     N_R   0.798499 0.482281 0.496185 -0.456590
N3    N     N_R   0.500460 0.501210 0.147910 -0.186132
N4    N     N_R   0.500480 0.501290 0.852040 -0.196960
O1    O     O_R   0.500000 0.319640 0.618810 -0.564328
O2    O     O_2   0.793854 0.341925 0.686717 -0.512185
O3    O     O_2   0.204719 0.516012 0.252805 -0.503980
O4    O     O_2   0.802460 0.619920 0.303155 -0.547475
O5    O     O_R   0.500000 0.319660 0.381240 -0.538328
O6    O     O_R   0.430260 0.500010 0.618770 -0.589263
O7    O     O_R   0.430270 0.500030 0.381200 -0.542422
O8    O     O_R   0.500000 0.680340 0.618760 -0.627296
O9    O     O_R   0.500000 0.680360 0.381190 -0.571501
O10   O     O_R   0.569730 0.499970 0.618800 -0.558395
O11   O     O_R   0.569740 0.499990 0.381230 -0.601748
O12   O     O_2   0.201212 0.355749 0.711963 -0.514692
N5    N     N_2   0.748482 0.577314 0.734543 -0.399567
H24   H     H_    0.729442 0.568147 0.826742 0.270559
C59   C     C_3   0.770977 0.699353 0.717201 -0.657806
H25   H     H_    0.791929 0.722649 0.812008 0.240201
H26   H     H_    0.743019 0.769710 0.701241 0.223764
H27   H     H_    0.796171 0.702398 0.627208 0.243252
S1    S     S_3+6 0.564461 0.136157 0.253437 0.035230
O13   O     O_2   0.534913 0.215620 0.159371 -0.239131
O14   O     O_2   0.602948 0.216628 0.319090 -0.312711
O15   O     O_3   0.590655 0.027847 0.158319 -0.497509
H28   H     H_    0.618418 0.001330 0.214870 0.339779
S2    S     S_3+6 0.574036 0.189717 0.795686 0.066576
O16   O     O_2   0.564956 0.302207 0.879833 -0.218829
O17   O     O_2   0.606627 0.107536 0.877860 -0.234016
O18   O     O_3   0.602431 0.233352 0.647096 -0.517929
H29   H     H_    0.617187 0.157242 0.612913 0.355716
S3    S     S_3+6 0.428786 0.892130 0.004853 0.047794
O19   O     O_2   0.433390 0.977376 0.126341 -0.271042
O20   O     O_2   0.376777 0.882218 0.961678 -0.214780
O21   O     O_3   0.447211 0.751015 0.052609 -0.506515
H30   H     H_    0.434043 0.694551 0.981010 0.342530
S4    S     S_3+6 0.350100 0.743702 0.447616 0.032245
O22   O     O_2   0.312260 0.827972 0.392071 -0.238146
O23   O     O_2   0.367862 0.791254 0.584634 -0.320078
O24   O     O_3   0.396133 0.742887 0.333987 -0.465251
H31   H     H_    0.410918 0.827387 0.337744 0.404553

loop_
_geom_bond_atom_site_label_1
_geom_bond_atom_site_label_2
_ccdc_geom_bond_type
C10   C27   A    
C21   C26   A    
C41   C42   A    
S2    O16   D    
C7    C55   A    
O18   H29   S    
C15   H21   S    
C53   C54   A    
C23   O9    A    
C40   C46   A    
C59   H27   S    
C36   C37   A    
C22   H19   S    
C55   O3    S    
Cu2   O11   S    
C38   C39   A    
C9    C22   A    
C6    H18   S    
S1    O13   D    
C15   C16   A    
C37   H8    S    
C34   O10   A    
C56   C57   A    
C44   H11   S    
C18   C19   A    
C30   H23   S    
Cu1   O1    S    
S4    O24   S    
C8    C58   A    
S3    O20   D    
C16   C17   A    
C49   H15   S    
C53   N3    A    
C2    H9    S    
C16   C20   A    
C54   H17   S    
C1    O1    A    
Cu1   Cu2   S    
C23   C46   S    
C21   C22   A    
C27   C30   A    
C12   O7    A    
C36   C41   A    
Cu1   O8    S    
C4    C7    A    
C4    C28   A    
C44   C46   A    
C33   H6    S    
C17   C18   A    
Cu2   O5    S    
C7    C31   A    
C51   C52   A    
C48   H14   S    
C24   C25   A    
C32   H4    S    
C10   C14   A    
C51   N4    A    
C39   C40   A    
Cu2   N3    S    
C25   C26   A    
C5    C45   A    
C43   S1    S    
C43   C44   A    
C37   C38   A    
C50   H16   S    
C8    C57   A    
C38   S3    S    
C3    C56   A    
C25   N5    S    
C47   C48   A    
C35   H7    S    
C8    C12   S    
C20   N2    A    
C36   S2    S    
N5    C59   S    
C50   C51   A    
S2    O17   D    
C59   H26   S    
C47   H13   S    
S4    O22   D    
C24   H5    S    
C54   N4    A    
Cu2   O9    S    
C40   C41   A    
C6    C30   A    
C11   C32   A    
C1    O5    A    
C45   O12   S    
C9    C34   S    
Cu1   O10   S    
C31   C35   A    
C12   O6    A    
C45   N1    A    
C42   C43   A    
C14   H22   S    
C3    N1    S    
C28   C29   A    
C4    C5    A    
C19   N2    A    
C10   C13   A    
O21   H30   S    
C2    C58   A    
C9    C24   A    
C47   C52   A    
C31   H3    S    
C20   O2    S    
C29   C35   A    
S3    O21   S    
C13   C17   A    
C32   C33   A    
C52   N3    A    
C2    C3    A    
O15   H28   S    
C11   C13   A    
C5    C6    A    
S1    O14   D    
C58   H1    S    
C26   N2    S    
C48   C49   A    
C21   H20   S    
N5    H24   S    
C34   O11   A    
C39   H10   S    
C23   O8    A    
S3    O19   D    
S2    O18   S    
C56   H2    S    
C59   H25   S    
C18   C33   A    
Cu1   N4    S    
S4    O23   D    
C19   O4    S    
C57   S4    S    
C1    C42   S    
C11   C29   A    
C49   C50   A    
C27   C28   A    
C14   C15   A    
Cu1   O6    S    
C55   N1    A    
C53   H12   S    
O24   H31   S    
S1    O15   S    
Cu2   O7    S    
