data_mof_unit_64787.cif
_audit_creation_date              2012-12-10T17:48:31-0500
_audit_creation_method            fapswitch 2.2
_symmetry_space_group_name_H-M    P1
_symmetry_Int_Tables_number       1
_space_group_crystal_system       triclinic
_cell_length_a                    26.232464
_cell_length_b                    27.646996
_cell_length_c                    27.645628
_cell_angle_alpha                 89.976831
_cell_angle_beta                  89.956207
_cell_angle_gamma                 90.077317
_cell_volume                      20049.9335268

loop_
_atom_site_label
_atom_site_type_symbol
_atom_type_description
_atom_site_fract_x
_atom_site_fract_y
_atom_site_fract_z
_atom_type_partial_charge
C1    C     C_R   0.391429 0.000459 0.249527 1.033541
C2    C     C_R   0.891337 0.998070 0.248040 0.816445
C3    C     C_R   0.749994 0.999978 0.620857 0.839688
C4    C     C_R   0.749995 0.499973 0.379160 0.838472
C5    C     C_R   0.750018 0.499996 0.620839 0.823664
C6    C     C_R   0.249991 0.499990 0.379145 0.811850
C7    C     C_R   0.249994 0.499978 0.620857 0.839690
C8    C     C_R   0.749995 0.999973 0.879160 0.838468
C9    C     C_R   0.750018 0.999996 0.120839 0.823660
C10   C     C_R   0.249991 0.999990 0.879144 0.811848
C11   C     C_R   0.249994 0.999978 0.120857 0.839691
C12   C     C_R   0.249995 0.499973 0.879160 0.838469
C13   C     C_R   0.108556 0.999087 0.750742 0.767097
C14   C     C_R   0.250018 0.499996 0.120839 0.823647
C15   C     C_R   0.749991 0.499990 0.879144 0.811847
C16   C     C_R   0.749994 0.499978 0.120857 0.839692
C17   C     C_R   0.250012 0.129147 0.250008 0.841147
C18   C     C_R   0.250014 0.129157 0.749979 0.830794
C19   C     C_R   0.750014 0.129157 0.249979 0.830797
C20   C     C_R   0.750012 0.129147 0.750008 0.841148
C21   C     C_R   0.750012 0.629147 0.250008 0.841145
C22   C     C_R   0.750014 0.629157 0.749979 0.830794
C23   C     C_R   0.250014 0.629157 0.249979 0.830804
C24   C     C_R   0.108582 0.999441 0.249801 1.039506
C25   C     C_R   0.250012 0.629147 0.750008 0.841148
C26   C     C_R   0.249978 0.870814 0.250015 0.846362
C27   C     C_R   0.249997 0.870823 0.749985 0.817786
C28   C     C_R   0.749997 0.870823 0.249985 0.817788
C29   C     C_R   0.749978 0.870814 0.750015 0.846361
C30   C     C_R   0.749978 0.370814 0.250015 0.846360
C31   C     C_R   0.749997 0.370823 0.749985 0.817789
C32   C     C_R   0.249997 0.370823 0.249985 0.817783
C33   C     C_R   0.249978 0.370814 0.750015 0.846363
C34   C     C_1   0.249944 0.819016 0.250034 -0.067729
C35   C     C_R   0.391429 0.500459 0.749527 1.033540
C36   C     C_1   0.249992 0.819019 0.749967 -0.083001
C37   C     C_1   0.749992 0.819019 0.249968 -0.082999
C38   C     C_1   0.749944 0.819016 0.750034 -0.067730
C39   C     C_1   0.749944 0.319016 0.250034 -0.067724
C40   C     C_1   0.749992 0.319019 0.749968 -0.083001
C41   C     C_1   0.249992 0.319019 0.249967 -0.082995
C42   C     C_1   0.249944 0.319016 0.750034 -0.067730
C43   C     C_1   0.249961 0.775472 0.250011 0.056374
C44   C     C_1   0.250008 0.775472 0.749978 0.048973
C45   C     C_1   0.750008 0.775472 0.249978 0.048975
C46   C     C_R   0.391337 0.498070 0.248040 0.816445
C47   C     C_1   0.749961 0.775472 0.750011 0.056373
C48   C     C_1   0.749961 0.275472 0.250011 0.056377
C49   C     C_1   0.750008 0.275472 0.749978 0.048974
C50   C     C_1   0.250008 0.275472 0.249978 0.048976
C51   C     C_1   0.249961 0.275472 0.750011 0.056374
C52   C     C_1   0.250006 0.724502 0.249970 0.055807
C53   C     C_1   0.250029 0.724498 0.750002 0.054492
C54   C     C_1   0.750029 0.724498 0.250002 0.054493
C55   C     C_1   0.750006 0.724502 0.749970 0.055806
C56   C     C_1   0.750006 0.224502 0.249970 0.055808
C57   C     C_R   0.608556 0.499088 0.750742 0.767096
C58   C     C_1   0.750029 0.224498 0.750002 0.054493
C59   C     C_1   0.250029 0.224498 0.250002 0.054493
C60   C     C_1   0.250006 0.224502 0.749970 0.055806
C61   C     C_1   0.250033 0.680957 0.249952 -0.079457
C62   C     C_1   0.250035 0.680951 0.750016 -0.067510
C63   C     C_1   0.750035 0.680951 0.250016 -0.067511
C64   C     C_1   0.750033 0.680957 0.749952 -0.079461
C65   C     C_1   0.750033 0.180957 0.249952 -0.079459
C66   C     C_1   0.750035 0.180951 0.750016 -0.067510
C67   C     C_1   0.250035 0.180951 0.250016 -0.067510
C68   C     C_R   0.608582 0.499441 0.249801 1.039505
C69   C     C_1   0.250033 0.180957 0.749952 -0.079460
C70   C     C_3   0.030342 0.950475 0.278268 0.095476
C71   C     C_3   0.030014 0.971040 0.702524 0.091263
C72   C     C_3   0.969679 0.954270 0.283053 0.080692
C73   C     C_3   0.969584 0.965255 0.706727 0.101273
C74   C     C_3   0.530342 0.450475 0.278268 0.095476
C75   C     C_3   0.530014 0.471042 0.702523 0.091262
C76   C     C_3   0.469679 0.454270 0.283053 0.080691
C77   C     C_3   0.469583 0.465256 0.706726 0.101269
C78   C     C_3   0.530342 0.950478 0.778272 0.095477
C79   C     C_3   0.029892 0.045822 0.274375 0.127065
C80   C     C_3   0.530015 0.971034 0.202529 0.091270
C81   C     C_3   0.469679 0.954273 0.783057 0.080691
C82   C     C_3   0.469584 0.965249 0.206732 0.101273
C83   C     C_3   0.030342 0.450475 0.778268 0.095476
C84   C     C_3   0.030015 0.471004 0.202547 0.091290
C85   C     C_3   0.969679 0.454270 0.783053 0.080691
C86   C     C_3   0.969584 0.465222 0.206751 0.101291
C87   C     C_2   0.047610 0.903436 0.253498 0.494133
C88   C     C_2   0.054841 0.921181 0.691013 0.582495
C89   C     C_2   0.945997 0.903312 0.279293 0.505919
C90   C     C_3   0.030750 0.054117 0.751024 0.184859
C91   C     C_2   0.953883 0.912125 0.715214 0.530451
C92   C     C_2   0.547610 0.403436 0.253499 0.494135
C93   C     C_2   0.554841 0.421184 0.691010 0.582500
C94   C     C_2   0.445997 0.403312 0.279293 0.505920
C95   C     C_2   0.453883 0.412127 0.715212 0.530451
C96   C     C_2   0.547610 0.903436 0.753506 0.494136
C97   C     C_2   0.554841 0.921173 0.191025 0.582477
C98   C     C_2   0.445998 0.903314 0.779301 0.505920
C99   C     C_2   0.453883 0.912121 0.215226 0.530446
C100  C     C_2   0.047610 0.403436 0.753498 0.494135
C101  C     C_3   0.969440 0.048864 0.266351 0.161742
C102  C     C_2   0.054842 0.421136 0.191073 0.582404
C103  C     C_2   0.945997 0.403312 0.779292 0.505921
C104  C     C_2   0.953881 0.412100 0.215273 0.530432
C105  C     C_2   0.045304 0.046357 0.327891 0.617396
C106  C     C_2   0.059440 0.087478 0.716043 0.515800
C107  C     C_2   0.941018 0.067690 0.311016 0.496812
C108  C     C_2   0.954509 0.073091 0.692515 0.597737
C109  C     C_2   0.545304 0.546357 0.327890 0.617395
C110  C     C_2   0.559439 0.587479 0.716045 0.515804
C111  C     C_2   0.441018 0.567691 0.311015 0.496813
C112  C     C_R   0.391337 0.998070 0.748040 0.816435
C113  C     C_3   0.970298 0.054129 0.742378 0.145528
C114  C     C_2   0.454509 0.573092 0.692518 0.597736
C115  C     C_2   0.545304 0.046364 0.827887 0.617393
C116  C     C_2   0.559440 0.087472 0.216031 0.515799
C117  C     C_2   0.441018 0.067696 0.811010 0.496816
C118  C     C_2   0.454509 0.073082 0.192505 0.597745
C119  C     C_2   0.045304 0.546356 0.827891 0.617394
C120  C     C_2   0.059441 0.587451 0.215982 0.515779
C121  C     C_2   0.941018 0.567690 0.811016 0.496811
C122  C     C_2   0.954510 0.573048 0.192464 0.597763
C123  C     C_2   0.046612 0.041372 0.165268 0.591268
C124  C     C_3   0.529892 0.545822 0.274375 0.127066
C125  C     C_2   0.055968 0.985450 0.846889 0.412129
C126  C     C_2   0.946399 0.017347 0.151500 0.348556
C127  C     C_2   0.954017 0.014750 0.843081 0.578805
C128  C     C_2   0.546612 0.541372 0.165267 0.591268
C129  C     C_2   0.555968 0.485447 0.846888 0.412129
C130  C     C_2   0.446399 0.517346 0.151500 0.348554
C131  C     C_2   0.454018 0.514748 0.843082 0.578802
C132  C     C_2   0.546612 0.041366 0.665264 0.591270
C133  C     C_2   0.555967 0.985463 0.346892 0.412119
C134  C     C_2   0.446399 0.017339 0.651498 0.348554
C135  C     C_3   0.530750 0.554118 0.751026 0.184859
C136  C     C_2   0.454017 0.014762 0.343079 0.578816
C137  C     C_2   0.046612 0.541373 0.665268 0.591268
C138  C     C_2   0.055961 0.485515 0.346905 0.412108
C139  C     C_2   0.946399 0.517347 0.651500 0.348554
C140  C     C_2   0.954015 0.514810 0.343072 0.578858
C141  C     C_2   0.058730 0.955681 0.161644 0.541053
C142  C     C_2   0.049219 0.918056 0.797436 0.320964
C143  C     C_2   0.949078 0.937136 0.176165 0.463164
C144  C     C_2   0.940656 0.933084 0.820715 0.495401
C145  C     C_2   0.558730 0.455680 0.161644 0.541053
C146  C     C_3   0.469440 0.548864 0.266351 0.161742
C147  C     C_2   0.549219 0.418055 0.797433 0.320966
C148  C     C_2   0.449078 0.437136 0.176165 0.463165
C149  C     C_2   0.440656 0.433083 0.820712 0.495399
C150  C     C_2   0.558731 0.955674 0.661647 0.541040
C151  C     C_2   0.549220 0.918063 0.297448 0.320984
C152  C     C_2   0.449078 0.937131 0.676169 0.463163
C153  C     C_2   0.440656 0.933093 0.320722 0.495409
C154  C     C_2   0.058730 0.455681 0.661643 0.541056
C155  C     C_2   0.049221 0.418087 0.297496 0.321017
C156  C     C_2   0.949078 0.437136 0.676165 0.463164
C157  C     C_3   0.470297 0.554129 0.742380 0.145530
C158  C     C_2   0.940654 0.433128 0.320756 0.495441
C159  C     C_3   0.529892 0.045824 0.774372 0.127068
C160  C     C_3   0.530750 0.054117 0.251017 0.184860
C161  C     C_3   0.469440 0.048866 0.766347 0.161744
C162  C     C_3   0.470297 0.054127 0.242371 0.145520
C163  C     C_3   0.029892 0.545822 0.774376 0.127067
C164  C     C_R   0.608557 0.999087 0.250742 0.767093
C165  C     C_3   0.030750 0.554115 0.250987 0.184861
C166  C     C_3   0.969440 0.548864 0.766351 0.161743
C167  C     C_3   0.970298 0.554121 0.242341 0.145492
C168  C     C_3   0.031726 0.994341 0.192513 -0.224954
C169  C     C_3   0.030003 0.970535 0.799324 -0.205819
C170  C     C_3   0.970095 0.986589 0.192274 -0.231515
C171  C     C_3   0.968419 0.978762 0.802486 -0.216619
C172  C     C_3   0.531726 0.494341 0.192513 -0.224952
C173  C     C_3   0.530003 0.470534 0.799322 -0.205819
C174  C     C_3   0.470095 0.486589 0.192275 -0.231514
C175  C     C_R   0.608582 0.999442 0.749801 1.039502
C176  C     C_3   0.468419 0.478761 0.802486 -0.216620
C177  C     C_3   0.531726 0.994337 0.692514 -0.224950
C178  C     C_3   0.530003 0.970542 0.299328 -0.205820
C179  C     C_3   0.470095 0.986585 0.692275 -0.231514
C180  C     C_3   0.468419 0.978769 0.302489 -0.216626
C181  C     C_3   0.031726 0.494341 0.692513 -0.224953
C182  C     C_3   0.030002 0.470567 0.299346 -0.205820
C183  C     C_3   0.970095 0.486589 0.692274 -0.231513
C184  C     C_3   0.968418 0.478795 0.302501 -0.216637
C185  C     C_3   0.051083 0.997414 0.248606 -0.265595
C186  C     C_R   0.891429 0.500458 0.249527 1.033534
C187  C     C_3   0.050888 0.998534 0.751114 -0.306078
C188  C     C_3   0.948968 0.996934 0.246992 -0.238830
C189  C     C_3   0.948953 0.999517 0.750412 -0.278055
C190  C     C_3   0.551083 0.497414 0.248606 -0.265596
C191  C     C_3   0.550888 0.498534 0.751114 -0.306083
C192  C     C_3   0.448968 0.496934 0.246992 -0.238831
C193  C     C_3   0.448953 0.499518 0.750412 -0.278056
C194  C     C_3   0.551083 0.997414 0.748606 -0.265598
C195  C     C_3   0.550888 0.998534 0.251115 -0.306084
C196  C     C_3   0.448968 0.996934 0.746992 -0.238829
C197  C     C_R   0.891337 0.498070 0.748040 0.816446
C198  C     C_3   0.448952 0.999517 0.250412 -0.278063
C199  C     C_3   0.051083 0.497413 0.748606 -0.265595
C200  C     C_3   0.050888 0.498532 0.251117 -0.306069
C201  C     C_3   0.948968 0.496934 0.746992 -0.238830
C202  C     C_3   0.948953 0.499516 0.250412 -0.278083
C203  C     C_1   0.249987 0.999965 0.069045 -0.069585
C204  C     C_1   0.249972 0.999985 0.930957 -0.083798
C205  C     C_1   0.750046 0.000004 0.069035 -0.081992
C206  C     C_1   0.749990 0.999950 0.930964 -0.068711
C207  C     C_1   0.749987 0.499965 0.069045 -0.069588
C208  C     C_R   0.108557 0.499085 0.250744 0.767083
C209  C     C_1   0.749972 0.499985 0.930957 -0.083799
C210  C     C_1   0.250046 0.500004 0.069035 -0.081996
C211  C     C_1   0.249990 0.499950 0.930964 -0.068712
C212  C     C_1   0.749987 0.999965 0.569045 -0.069584
C213  C     C_1   0.749972 0.999985 0.430957 -0.083800
C214  C     C_1   0.250046 0.000004 0.569035 -0.081992
C215  C     C_1   0.249990 0.999950 0.430964 -0.068713
C216  C     C_1   0.249987 0.499965 0.569045 -0.069585
C217  C     C_1   0.249972 0.499985 0.430957 -0.083803
C218  C     C_1   0.750046 0.500004 0.569035 -0.081992
C219  C     C_R   0.108582 0.499441 0.749801 1.039507
C220  C     C_1   0.749990 0.499950 0.430964 -0.068715
C221  C     C_1   0.249975 0.999966 0.025493 0.054638
C222  C     C_1   0.249967 0.999976 0.974510 0.050956
C223  C     C_1   0.750039 0.999986 0.025486 0.053556
C224  C     C_1   0.750011 0.999960 0.974512 0.054905
C225  C     C_1   0.749975 0.499966 0.025493 0.054636
C226  C     C_1   0.749967 0.499976 0.974510 0.050954
C227  C     C_1   0.250039 0.499987 0.025486 0.053553
C228  C     C_1   0.250011 0.499960 0.974512 0.054903
C229  C     C_1   0.749975 0.999966 0.525493 0.054638
C230  C     C_R   0.891429 0.000459 0.749527 1.033536
C231  C     C_1   0.749967 0.999976 0.474510 0.050954
C232  C     C_1   0.250039 0.999987 0.525486 0.053555
C233  C     C_1   0.250011 0.999960 0.474512 0.054904
C234  C     C_1   0.249975 0.499966 0.525493 0.054638
C235  C     C_1   0.249967 0.499976 0.474510 0.050953
C236  C     C_1   0.750039 0.499987 0.525486 0.053556
C237  C     C_1   0.750011 0.499960 0.474512 0.054904
C238  C     C_R   0.249995 0.999973 0.379160 0.838469
C239  C     C_R   0.250018 0.999996 0.620839 0.823663
C240  C     C_R   0.749991 0.999990 0.379145 0.811848
Cl1   Cl    Cl    0.057876 0.942331 0.338749 -0.435200
Cl2   Cl    Cl    0.547995 0.006556 0.149377 -0.522567
Cl3   Cl    Cl    0.449961 0.967001 0.844847 -0.569254
Cl4   Cl    Cl    0.439886 0.979055 0.148174 -0.413768
Cl5   Cl    Cl    0.057876 0.442331 0.838748 -0.435198
Cl6   Cl    Cl    0.048000 0.506495 0.149375 -0.522526
Cl7   Cl    Cl    0.949962 0.466993 0.844845 -0.569251
Cl8   Cl    Cl    0.939891 0.478997 0.148183 -0.413732
Cl9   Cl    Cl    0.060982 0.101095 0.253499 -0.456536
Cl10  Cl    Cl    0.048326 0.084980 0.806610 -0.515027
Cl11  Cl    Cl    0.951807 0.097272 0.225469 -0.530019
Cl12  Cl    Cl    0.047995 0.006570 0.649378 -0.522579
Cl13  Cl    Cl    0.940574 0.099940 0.780658 -0.420880
Cl14  Cl    Cl    0.560982 0.601095 0.253498 -0.456535
Cl15  Cl    Cl    0.548326 0.584978 0.806612 -0.515027
Cl16  Cl    Cl    0.451807 0.597272 0.225468 -0.530021
Cl17  Cl    Cl    0.440574 0.599940 0.780661 -0.420876
Cl18  Cl    Cl    0.560981 0.101096 0.753491 -0.456529
Cl19  Cl    Cl    0.548326 0.084988 0.306598 -0.515036
Cl20  Cl    Cl    0.451807 0.097270 0.725460 -0.530015
Cl21  Cl    Cl    0.440573 0.099944 0.280645 -0.420898
Cl22  Cl    Cl    0.060982 0.601095 0.753499 -0.456536
Cl23  Cl    Cl    0.949962 0.966993 0.344845 -0.569250
Cl24  Cl    Cl    0.048327 0.585018 0.306550 -0.515062
Cl25  Cl    Cl    0.951807 0.597272 0.725469 -0.530023
Cl26  Cl    Cl    0.940571 0.599957 0.280589 -0.420963
Cl27  Cl    Cl    0.939885 0.979069 0.648172 -0.413777
Cl28  Cl    Cl    0.557876 0.442332 0.338749 -0.435198
Cl29  Cl    Cl    0.547994 0.506574 0.649378 -0.522581
Cl30  Cl    Cl    0.449962 0.466994 0.344845 -0.569249
Cl31  Cl    Cl    0.439884 0.479073 0.648172 -0.413780
Cl32  Cl    Cl    0.557876 0.942339 0.838754 -0.435195
H1    H     H_    0.023206 0.884009 0.229060 0.098921
H2    H     H_    0.548891 0.889665 0.213270 -0.016507
H3    H     H_    0.462346 0.874678 0.801293 0.125087
H4    H     H_    0.471046 0.891051 0.243555 0.073707
H5    H     H_    0.023205 0.384008 0.729060 0.098919
H6    H     H_    0.048892 0.389641 0.213336 -0.016485
H7    H     H_    0.962345 0.374674 0.801281 0.125082
H8    H     H_    0.971045 0.391044 0.243611 0.073700
H9    H     H_    0.018443 0.038547 0.356504 0.136172
H10   H     H_    0.094706 0.076298 0.698962 0.085436
H11   H     H_    0.905823 0.051250 0.323323 0.088675
H12   H     H_    0.048891 0.889670 0.713253 -0.016511
H13   H     H_    0.981458 0.077993 0.663367 0.133735
H14   H     H_    0.518443 0.538547 0.356503 0.136172
H15   H     H_    0.594706 0.576299 0.698964 0.085436
H16   H     H_    0.405823 0.551250 0.323323 0.088675
H17   H     H_    0.481458 0.577995 0.663369 0.133736
H18   H     H_    0.518442 0.038557 0.856501 0.136171
H19   H     H_    0.594707 0.076289 0.198952 0.085434
H20   H     H_    0.405822 0.051256 0.823319 0.088672
H21   H     H_    0.481458 0.077979 0.163356 0.133737
H22   H     H_    0.018443 0.538546 0.856504 0.136170
H23   H     H_    0.962346 0.874674 0.301281 0.125081
H24   H     H_    0.094710 0.576259 0.198912 0.085429
H25   H     H_    0.905823 0.551250 0.823324 0.088674
H26   H     H_    0.981459 0.577927 0.163312 0.133737
H27   H     H_    0.023761 0.073502 0.167864 0.170589
H28   H     H_    0.089754 0.007579 0.848080 0.158828
H29   H     H_    0.916986 0.043768 0.157026 0.193388
H30   H     H_    0.980391 0.041435 0.856360 0.171986
H31   H     H_    0.523761 0.573501 0.167864 0.170588
H32   H     H_    0.589754 0.507577 0.848079 0.158828
H33   H     H_    0.416986 0.543768 0.157026 0.193387
H34   H     H_    0.971046 0.891052 0.743540 0.073708
H35   H     H_    0.480393 0.541432 0.856361 0.171985
H36   H     H_    0.523761 0.073495 0.667857 0.170589
H37   H     H_    0.589751 0.007595 0.348080 0.158845
H38   H     H_    0.416984 0.043760 0.657023 0.193383
H39   H     H_    0.480391 0.041451 0.356351 0.171982
H40   H     H_    0.023761 0.573502 0.667864 0.170587
H41   H     H_    0.089741 0.507652 0.348086 0.158891
H42   H     H_    0.916986 0.543769 0.657026 0.193387
H43   H     H_    0.980383 0.541515 0.356320 0.171976
H44   H     H_    0.043907 0.947735 0.125853 0.169237
H45   H     H_    0.523206 0.384009 0.229060 0.098920
H46   H     H_    0.087294 0.911217 0.783714 0.069162
H47   H     H_    0.907918 0.932584 0.175217 0.104665
H48   H     H_    0.953293 0.916555 0.854256 0.180200
H49   H     H_    0.543907 0.447734 0.125854 0.169236
H50   H     H_    0.587294 0.411216 0.783711 0.069163
H51   H     H_    0.407918 0.432583 0.175217 0.104665
H52   H     H_    0.453293 0.416552 0.854254 0.180199
H53   H     H_    0.543908 0.947726 0.625857 0.169240
H54   H     H_    0.587296 0.911223 0.283728 0.069148
H55   H     H_    0.407918 0.932578 0.675222 0.104663
H56   H     H_    0.548891 0.389672 0.713250 -0.016513
H57   H     H_    0.453293 0.916568 0.354266 0.180201
H58   H     H_    0.043907 0.447735 0.625853 0.169236
H59   H     H_    0.087298 0.411241 0.283784 0.069099
H60   H     H_    0.907918 0.432584 0.675216 0.104665
H61   H     H_    0.953290 0.416618 0.354308 0.180211
H62   H     H_    0.462346 0.374674 0.301282 0.125082
H63   H     H_    0.471046 0.391053 0.743537 0.073709
H64   H     H_    0.523207 0.884010 0.729066 0.098921
O1    O     O_3   0.250000 0.999990 0.250000 -0.558336
O2    O     O_R   0.366860 0.972110 0.777870 -0.556868
O3    O     O_R   0.133150 0.027840 0.222150 -0.584894
O4    O     O_R   0.366850 0.527840 0.777850 -0.565818
O5    O     O_R   0.366850 0.527840 0.222150 -0.653643
O6    O     O_R   0.633150 0.527840 0.777850 -0.626022
O7    O     O_R   0.633150 0.527840 0.222150 -0.584894
O8    O     O_2   0.089909 0.886247 0.260415 -0.452280
O9    O     O_2   0.081167 0.914573 0.655071 -0.426223
O10   O     O_2   0.908897 0.893150 0.254778 -0.571744
O11   O     O_2   0.922510 0.891387 0.689898 -0.435012
O12   O     O_2   0.589908 0.386247 0.260416 -0.452280
O13   O     O_R   0.633140 0.972110 0.222130 -0.608201
O14   O     O_2   0.581168 0.414577 0.655069 -0.426224
O15   O     O_2   0.408897 0.393150 0.254778 -0.571745
O16   O     O_2   0.422510 0.391389 0.689896 -0.435011
O17   O     O_2   0.589907 0.886245 0.760428 -0.452271
O18   O     O_2   0.581168 0.914560 0.155085 -0.426220
O19   O     O_2   0.408899 0.893149 0.754785 -0.571743
O20   O     O_2   0.422507 0.891380 0.189915 -0.435013
O21   O     O_2   0.089909 0.386247 0.760414 -0.452281
O22   O     O_2   0.081167 0.414500 0.155135 -0.426206
O23   O     O_2   0.908897 0.393150 0.754777 -0.571745
O24   O     O_R   0.633140 0.972110 0.777870 -0.552956
O25   O     O_2   0.922502 0.391348 0.189975 -0.435016
O26   O     O_2   0.089477 0.053773 0.339963 -0.527978
O27   O     O_2   0.045629 0.129240 0.709747 -0.495744
O28   O     O_2   0.955008 0.104570 0.331536 -0.487958
O29   O     O_2   0.909882 0.082245 0.683618 -0.534530
O30   O     O_2   0.589477 0.553774 0.339963 -0.527976
O31   O     O_2   0.545629 0.629241 0.709750 -0.495745
O32   O     O_2   0.455008 0.604570 0.331536 -0.487958
O33   O     O_2   0.409882 0.582247 0.683620 -0.534530
O34   O     O_2   0.589476 0.053781 0.839959 -0.527979
O35   O     O_R   0.866860 0.472110 0.222130 -0.571218
O36   O     O_2   0.545629 0.129233 0.209728 -0.495745
O37   O     O_2   0.455007 0.104577 0.831527 -0.487959
O38   O     O_2   0.409882 0.082235 0.183607 -0.534532
O39   O     O_2   0.089477 0.553773 0.839963 -0.527979
O40   O     O_2   0.045630 0.629208 0.209654 -0.495745
O41   O     O_2   0.955008 0.604570 0.831537 -0.487959
O42   O     O_2   0.909884 0.582199 0.183560 -0.534534
O43   O     O_2   0.083839 0.043953 0.138609 -0.515073
O44   O     O_2   0.040859 0.969302 0.885543 -0.535744
O45   O     O_2   0.959895 0.011326 0.109547 -0.535717
O46   O     O_R   0.866860 0.472110 0.777870 -0.556869
O47   O     O_2   0.911869 0.014587 0.862138 -0.526042
O48   O     O_2   0.583839 0.543952 0.138609 -0.515075
O49   O     O_2   0.540860 0.469298 0.885541 -0.535745
O50   O     O_2   0.459895 0.511326 0.109547 -0.535717
O51   O     O_2   0.411869 0.514586 0.862137 -0.526041
O52   O     O_2   0.583840 0.043944 0.638607 -0.515080
O53   O     O_2   0.540859 0.969319 0.385547 -0.535740
O54   O     O_2   0.459896 0.011317 0.609546 -0.535716
O55   O     O_2   0.411870 0.014599 0.362139 -0.526036
O56   O     O_2   0.083839 0.543953 0.638609 -0.515075
O57   O     O_R   0.133140 0.472110 0.222130 -0.608152
O58   O     O_2   0.040852 0.469388 0.385567 -0.535725
O59   O     O_2   0.959895 0.511327 0.609547 -0.535716
O60   O     O_2   0.911875 0.514646 0.362145 -0.526020
O61   O     O_2   0.099481 0.937576 0.172783 -0.585749
O62   O     O_2   0.027229 0.883887 0.816060 -0.534138
O63   O     O_2   0.974694 0.903523 0.161379 -0.576254
O64   O     O_2   0.901756 0.917247 0.802367 -0.599669
O65   O     O_2   0.599481 0.437576 0.172784 -0.585751
O66   O     O_2   0.527229 0.383886 0.816056 -0.534137
O67   O     O_2   0.474694 0.403522 0.161379 -0.576256
O68   O     O_R   0.133140 0.472110 0.777870 -0.552954
O69   O     O_2   0.401756 0.417246 0.802364 -0.599667
O70   O     O_2   0.599480 0.937569 0.672789 -0.585758
O71   O     O_2   0.527228 0.883896 0.316074 -0.534146
O72   O     O_2   0.474694 0.903517 0.661384 -0.576251
O73   O     O_2   0.401755 0.917254 0.302377 -0.599674
O74   O     O_2   0.099481 0.437577 0.672783 -0.585749
O75   O     O_2   0.027227 0.383929 0.316136 -0.534164
O76   O     O_2   0.974694 0.403523 0.661379 -0.576258
O77   O     O_2   0.901752 0.417282 0.302419 -0.599701
O78   O     O_R   0.866860 0.972110 0.722130 -0.571227
O79   O     O_R   0.866860 0.972110 0.277870 -0.556868
O80   O     O_R   0.133140 0.972110 0.722130 -0.608216
O81   O     O_3   0.250000 0.999990 0.750000 -0.520145
O82   O     O_R   0.133140 0.972110 0.277870 -0.552955
O83   O     O_R   0.366860 0.472110 0.722130 -0.571226
O84   O     O_R   0.366860 0.472110 0.277870 -0.556868
O85   O     O_R   0.633140 0.472110 0.722130 -0.608216
O86   O     O_R   0.633140 0.472110 0.277870 -0.552955
O87   O     O_R   0.280630 0.027850 0.356260 -0.605741
O88   O     O_R   0.280630 0.027850 0.643740 -0.640288
O89   O     O_R   0.719370 0.027850 0.356260 -0.631607
O90   O     O_R   0.719370 0.027850 0.643740 -0.606723
O91   O     O_R   0.780630 0.527850 0.356260 -0.605742
O92   O     O_3   0.750000 0.999990 0.250000 -0.520145
O93   O     O_R   0.780630 0.527850 0.643740 -0.640289
O94   O     O_R   0.219370 0.527850 0.356260 -0.631623
O95   O     O_R   0.219370 0.527850 0.643740 -0.606724
O96   O     O_R   0.780630 0.027850 0.856260 -0.605740
O97   O     O_R   0.780630 0.027850 0.143740 -0.640288
O98   O     O_R   0.219370 0.027850 0.856260 -0.631603
O99   O     O_R   0.219370 0.027850 0.143740 -0.606723
O100  O     O_R   0.280630 0.527850 0.856260 -0.605741
O101  O     O_R   0.280630 0.527850 0.143740 -0.640287
O102  O     O_R   0.719370 0.527850 0.856260 -0.631602
O103  O     O_3   0.750000 0.999990 0.750000 -0.558336
O104  O     O_R   0.719370 0.527850 0.143740 -0.606722
O105  O     O_R   0.280630 0.106260 0.277850 -0.609698
O106  O     O_R   0.280630 0.106260 0.722150 -0.612858
O107  O     O_R   0.719370 0.106260 0.277850 -0.613084
O108  O     O_R   0.719370 0.106260 0.722150 -0.613698
O109  O     O_R   0.780630 0.606260 0.277850 -0.609702
O110  O     O_R   0.780630 0.606260 0.722150 -0.612860
O111  O     O_R   0.219370 0.606260 0.277850 -0.613077
O112  O     O_R   0.219370 0.606260 0.722150 -0.613699
O113  O     O_R   0.780630 0.106260 0.777850 -0.609696
O114  O     O_3   0.750000 0.499990 0.250000 -0.558334
O115  O     O_R   0.780630 0.106260 0.222150 -0.612859
O116  O     O_R   0.219370 0.106260 0.777850 -0.613085
O117  O     O_R   0.219370 0.106260 0.222150 -0.613697
O118  O     O_R   0.280630 0.606260 0.777850 -0.609696
O119  O     O_R   0.280630 0.606260 0.222150 -0.612862
O120  O     O_R   0.719370 0.606260 0.777850 -0.613085
O121  O     O_R   0.719370 0.606260 0.222150 -0.613697
O122  O     O_R   0.280650 0.893700 0.222130 -0.606378
O123  O     O_R   0.280650 0.893700 0.777870 -0.599950
O124  O     O_R   0.719350 0.893700 0.222130 -0.631535
O125  O     O_3   0.750000 0.499990 0.750000 -0.520144
O126  O     O_R   0.719350 0.893700 0.777870 -0.600406
O127  O     O_R   0.780650 0.393700 0.222130 -0.606376
O128  O     O_R   0.780650 0.393700 0.777870 -0.599949
O129  O     O_R   0.219350 0.393700 0.222130 -0.631514
O130  O     O_R   0.219350 0.393700 0.777870 -0.600407
O131  O     O_R   0.780650 0.893700 0.722130 -0.606380
O132  O     O_R   0.780650 0.893700 0.277870 -0.599951
O133  O     O_R   0.219350 0.893700 0.722130 -0.631541
O134  O     O_R   0.219350 0.893700 0.277870 -0.600408
O135  O     O_R   0.280650 0.393700 0.722130 -0.606380
O136  O     O_3   0.250000 0.499990 0.250000 -0.520148
O137  O     O_R   0.280650 0.393700 0.277870 -0.599954
O138  O     O_R   0.719350 0.393700 0.722130 -0.631542
O139  O     O_R   0.719350 0.393700 0.277870 -0.600407
O140  O     O_R   0.219370 0.972130 0.356260 -0.609927
O141  O     O_R   0.219370 0.972130 0.643740 -0.593804
O142  O     O_R   0.780630 0.972130 0.356260 -0.612158
O143  O     O_R   0.780630 0.972130 0.643740 -0.607491
O144  O     O_R   0.719370 0.472130 0.356260 -0.609924
O145  O     O_R   0.719370 0.472130 0.643740 -0.593803
O146  O     O_R   0.280630 0.472130 0.356260 -0.612156
O147  O     O_3   0.250000 0.499990 0.750000 -0.558336
O148  O     O_R   0.280630 0.472130 0.643740 -0.607491
O149  O     O_R   0.719370 0.972130 0.856260 -0.609927
O150  O     O_R   0.719370 0.972130 0.143740 -0.593804
O151  O     O_R   0.280630 0.972130 0.856260 -0.612157
O152  O     O_R   0.280630 0.972130 0.143740 -0.607492
O153  O     O_R   0.219370 0.472130 0.856260 -0.609927
O154  O     O_R   0.219370 0.472130 0.143740 -0.593808
O155  O     O_R   0.780630 0.472130 0.856260 -0.612158
O156  O     O_R   0.780630 0.472130 0.143740 -0.607494
O157  O     O_R   0.366850 0.027840 0.277850 -0.565826
O158  O     O_R   0.366860 0.972110 0.222130 -0.571223
O159  O     O_R   0.366850 0.027840 0.722150 -0.653639
O160  O     O_R   0.633150 0.027840 0.277850 -0.626028
O161  O     O_R   0.633150 0.027840 0.722150 -0.584894
O162  O     O_R   0.866850 0.527840 0.277850 -0.565852
O163  O     O_R   0.866850 0.527840 0.722150 -0.653644
O164  O     O_R   0.133150 0.527840 0.277850 -0.626043
O165  O     O_R   0.133150 0.527840 0.722150 -0.584894
O166  O     O_R   0.866850 0.027840 0.777850 -0.565820
O167  O     O_R   0.866850 0.027840 0.222150 -0.653643
O168  O     O_R   0.133150 0.027840 0.777850 -0.626021
Zn1   Zn    Zn3+2 0.206230 0.960180 0.289800 1.126981
Zn2   Zn    Zn3+2 0.706230 0.960180 0.210200 1.042302
Zn3   Zn    Zn3+2 0.293770 0.960180 0.789800 1.057753
Zn4   Zn    Zn3+2 0.293770 0.960180 0.210200 1.120971
Zn5   Zn    Zn3+2 0.206230 0.460180 0.789800 1.126981
Zn6   Zn    Zn3+2 0.206230 0.460180 0.210200 1.042327
Zn7   Zn    Zn3+2 0.793770 0.460180 0.789800 1.057755
Zn8   Zn    Zn3+2 0.793770 0.460180 0.210200 1.120977
Zn9   Zn    Zn3+2 0.293770 0.039800 0.289800 1.112771
Zn10  Zn    Zn3+2 0.293770 0.039800 0.710200 1.016322
Zn11  Zn    Zn3+2 0.706230 0.039800 0.289800 1.022536
Zn12  Zn    Zn3+2 0.206230 0.960180 0.710200 1.042292
Zn13  Zn    Zn3+2 0.706230 0.039800 0.710200 1.106932
Zn14  Zn    Zn3+2 0.793770 0.539800 0.289800 1.112761
Zn15  Zn    Zn3+2 0.793770 0.539800 0.710200 1.016320
Zn16  Zn    Zn3+2 0.206230 0.539800 0.289800 1.022518
Zn17  Zn    Zn3+2 0.206230 0.539800 0.710200 1.106932
Zn18  Zn    Zn3+2 0.793770 0.039800 0.789800 1.112774
Zn19  Zn    Zn3+2 0.793770 0.039800 0.210200 1.016322
Zn20  Zn    Zn3+2 0.206230 0.039800 0.789800 1.022541
Zn21  Zn    Zn3+2 0.206230 0.039800 0.210200 1.106934
Zn22  Zn    Zn3+2 0.293770 0.539800 0.789800 1.112775
Zn23  Zn    Zn3+2 0.793770 0.960180 0.289800 1.057754
Zn24  Zn    Zn3+2 0.293770 0.539800 0.210200 1.016318
Zn25  Zn    Zn3+2 0.706230 0.539800 0.789800 1.022542
Zn26  Zn    Zn3+2 0.706230 0.539800 0.210200 1.106934
Zn27  Zn    Zn3+2 0.793770 0.960180 0.710200 1.120966
Zn28  Zn    Zn3+2 0.706230 0.460180 0.289800 1.126985
Zn29  Zn    Zn3+2 0.706230 0.460180 0.710200 1.042294
Zn30  Zn    Zn3+2 0.293770 0.460180 0.289800 1.057753
Zn31  Zn    Zn3+2 0.293770 0.460180 0.710200 1.120968
Zn32  Zn    Zn3+2 0.706230 0.960180 0.789800 1.126980

loop_
_geom_bond_atom_site_label_1
_geom_bond_atom_site_label_2
_ccdc_geom_bond_type
O81   Zn10  S    
C101  C107  S    
C159  C194  S    
O122  Zn4   S    
C20   O108  A    
C71   Cl12  S    
C118  H21   S    
C21   O109  A    
C1    C198  S    
C215  C233  T    
C104  H8    S    
C155  C182  S    
O103  Zn32  S    
C130  C174  S    
C121  C166  S    
C90   Cl10  S    
O103  Zn18  S    
C157  C193  S    
C50   C59   S    
O5    Zn24  S    
C20   C66   S    
C154  H58   S    
C84   C86   S    
C42   C51   T    
C82   C198  S    
O92   Zn19  S    
C52   C61   T    
C155  O75   D    
C54   C63   T    
C153  O73   D    
O120  Zn25  S    
C88   H12   S    
C20   O113  A    
C186  C202  S    
O146  Zn30  S    
C74   C92   S    
O88   Zn10  S    
C197  O163  A    
C144  H48   S    
C70   C185  S    
C76   C94   S    
C74   C190  S    
C145  H49   S    
C44   C53   S    
C223  C224  S    
C152  H55   S    
C78   C96   S    
C72   Cl23  S    
C105  H9    S    
C159  C161  S    
C3    O90   A    
C239  O88   A    
O128  Zn7   S    
C134  C179  S    
C28   O132  A    
C101  C188  S    
C125  C169  S    
C86   C202  S    
O125  Zn7   S    
O96   Zn18  S    
C26   O134  A    
O124  Zn2   S    
C112  O159  A    
C153  C180  S    
C200  C208  S    
O135  Zn31  S    
C109  O30   D    
C26   C34   S    
C119  H22   S    
O24   Zn32  S    
C143  O63   D    
C10   O151  A    
C156  C183  S    
O99   Zn21  S    
O148  Zn31  S    
O104  Zn26  S    
C94   O15   D    
C107  H11   S    
O114  Zn26  S    
C183  C201  S    
O2    Zn3   S    
C169  C187  S    
C147  H50   S    
O1    Zn1   S    
C71   C73   S    
C162  Cl21  S    
C172  C190  S    
C240  O142  A    
C164  O13   A    
C173  C191  S    
C148  C174  S    
C161  C196  S    
C24   C185  S    
C108  C113  S    
C87   O8    D    
C114  C157  S    
C19   O115  A    
C93   O14   D    
O129  Zn6   S    
C6    C217  S    
O147  Zn22  S    
O103  Zn27  S    
C227  C228  S    
C77   C193  S    
C147  C173  S    
C120  H24   S    
C134  H38   S    
O81   Zn12  S    
C22   O120  A    
C130  O50   D    
C83   C100  S    
C117  H20   S    
C89   H23   S    
C36   C44   T    
C57   O85   A    
C209  C226  T    
O113  Zn18  S    
C37   C45   T    
C139  O59   D    
C75   C93   S    
C118  C162  S    
C141  C168  S    
C122  C167  S    
C12   O100  A    
O114  Zn14  S    
C123  H27   S    
C71   C187  S    
C85   C103  S    
C164  O160  A    
C164  C195  S    
C99   H4    S    
C116  C160  S    
C122  O42   D    
C162  C198  S    
C46   O5    A    
O111  Zn16  S    
C189  C230  S    
C167  Cl26  S    
C158  H61   S    
C81   Cl3   S    
C126  H29   S    
O138  Zn29  S    
C138  O58   D    
O92   Zn2   S    
C29   O131  A    
C25   C62   S    
C149  H52   S    
C83   C85   S    
C138  C182  S    
O118  Zn22  S    
C180  C198  S    
O94   Zn16  S    
C208  O57   A    
C10   O98   A    
C239  O141  A    
O145  Zn29  S    
C175  O24   A    
O87   Zn9   S    
O147  Zn31  S    
C18   O106  A    
O100  Zn22  S    
C232  C233  S    
C129  H32   S    
C13   C187  S    
C117  O37   D    
C80   C97   S    
C84   C102  S    
C86   C104  S    
C217  C235  T    
O147  Zn5   S    
C144  C171  S    
O107  Zn11  S    
C74   C76   S    
C126  C170  S    
C33   C42   S    
O98   Zn20  S    
C133  C178  S    
C137  C181  S    
C127  C171  S    
C40   C49   T    
O125  Zn25  S    
C131  C176  S    
C14   O101  A    
C236  C237  S    
C84   Cl6   S    
C167  C202  S    
O139  Zn28  S    
C143  H47   S    
C59   C67   T    
C157  Cl17  S    
C206  C224  T    
C177  C179  S    
C29   C38   S    
C111  H16   S    
C123  O43   D    
O46   Zn7   S    
C176  C193  S    
C105  O26   D    
C240  O89   A    
C213  C231  T    
O153  Zn5   S    
O101  Zn24  S    
C18   C69   S    
C145  C172  S    
C163  C199  S    
O68   Zn5   S    
C165  C167  S    
C169  C171  S    
C5    O93   A    
O92   Zn23  S    
C70   C87   S    
C6    O146  A    
C172  C174  S    
C97   O18   D    
C154  O74   D    
C21   C63   S    
C142  H46   S    
C208  O164  A    
C199  C219  S    
O136  Zn16  S    
C80   C82   S    
C111  C146  S    
C15   O155  A    
C92   O12   D    
C125  H28   S    
C128  H31   S    
O125  Zn15  S    
C89   O10   D    
O103  Zn13  S    
C140  H43   S    
C124  C146  S    
C160  Cl19  S    
C71   C88   S    
C30   O139  A    
C106  H10   S    
C160  C162  S    
C75   C191  S    
C221  C222  S    
C76   C192  S    
C145  O65   D    
C83   Cl5   S    
C115  H18   S    
C23   O111  A    
C75   C77   S    
C151  H54   S    
C150  C177  S    
O164  Zn16  S    
C123  C168  S    
O137  Zn30  S    
C211  C228  T    
C91   O11   D    
O116  Zn20  S    
C7    O148  A    
C109  H14   S    
O117  Zn21  S    
C115  O34   D    
C137  O56   D    
C23   O119  A    
O115  Zn19  S    
C57   O6    A    
C156  O76   D    
C131  H35   S    
C110  O31   D    
O158  Zn4   S    
O136  Zn30  S    
C34   C43   T    
C12   C211  S    
C2    O79   A    
C7    O95   A    
C45   C54   S    
C219  O165  A    
C17   O117  A    
C129  C173  S    
O149  Zn32  S    
C32   O137  A    
C230  O166  A    
C1    O157  A    
O167  Zn19  S    
C132  O52   D    
C137  H40   S    
C46   O84   A    
C133  O53   D    
C212  C229  T    
O83   Zn31  S    
C28   C37   S    
O106  Zn10  S    
C127  O47   D    
C168  C170  S    
C144  O64   D    
C30   C39   S    
C129  O49   D    
O112  Zn17  S    
O160  Zn11  S    
C182  C184  S    
C148  O67   D    
C18   O116  A    
C156  H60   S    
C90   C187  S    
C170  C188  S    
C85   Cl7   S    
C119  O39   D    
C39   C48   T    
C51   C60   S    
C87   H1    S    
C4    O144  A    
C125  O44   D    
C35   O83   A    
C29   O126  A    
C174  C192  S    
C181  C199  S    
C2    O167  A    
C149  O69   D    
C216  C234  T    
C82   C99   S    
O159  Zn10  S    
C99   O20   D    
C80   Cl2   S    
C238  O140  A    
C16   C207  S    
C214  C232  T    
C96   O17   D    
C127  H30   S    
C124  C190  S    
O78   Zn27  S    
C168  C185  S    
C136  O55   D    
C140  C184  S    
O90   Zn13  S    
C135  C157  S    
C219  O68   A    
C57   C191  S    
C126  O45   D    
C153  H57   S    
C70   Cl1   S    
C103  O23   D    
C100  H5    S    
C11   O99   A    
C81   C98   S    
O81   Zn20  S    
C154  C181  S    
C14   O154  A    
C9    O97   A    
C31   C40   S    
C102  O22   D    
C78   C194  S    
C175  O161  A    
C112  C196  S    
C110  H15   S    
C4    C220  S    
C25   O112  A    
C76   Cl30  S    
C121  H25   S    
C35   O4    A    
C77   Cl31  S    
O152  Zn4   S    
O7    Zn26  S    
C78   Cl32  S    
O141  Zn12  S    
C97   H2    S    
C148  H51   S    
C85   C201  S    
C146  Cl16  S    
C181  C183  S    
O84   Zn30  S    
C101  Cl11  S    
C132  H36   S    
C133  H37   S    
C120  C165  S    
C179  C196  S    
O79   Zn23  S    
C28   O124  A    
C113  Cl13  S    
C177  C194  S    
O6    Zn25  S    
C163  C166  S    
C182  C200  S    
C143  C170  S    
C124  Cl14  S    
C17   O105  A    
C151  O71   D    
O108  Zn13  S    
C112  O2    A    
C93   H56   S    
C166  C201  S    
C68   O86   A    
O110  Zn15  S    
C19   O107  A    
O130  Zn5   S    
C4    O91   A    
C5    C218  S    
C68   C190  S    
O1    Zn21  S    
C33   O135  A    
C165  Cl24  S    
O126  Zn32  S    
C134  O54   D    
C11   C203  S    
O92   Zn11  S    
C8    C206  S    
C90   C106  S    
C160  C195  S    
O123  Zn3   S    
O142  Zn23  S    
C136  H39   S    
O105  Zn9   S    
C128  O48   D    
O133  Zn12  S    
O157  Zn9   S    
O131  Zn27  S    
C220  C237  T    
C106  O27   D    
C41   C50   T    
C138  H41   S    
C108  O29   D    
C27   O133  A    
C80   C195  S    
C86   Cl8   S    
C120  O40   D    
C204  C222  T    
O1    Zn9   S    
O165  Zn17  S    
C46   C192  S    
C94   H62   S    
C158  O77   D    
C178  C180  S    
C116  O36   D    
O168  Zn20  S    
C130  H33   S    
C27   C36   S    
C22   O110  A    
C113  C189  S    
C13   O80   A    
C121  O41   D    
O132  Zn23  S    
C149  C176  S    
C230  O78   A    
C152  C179  S    
C214  C239  S    
O155  Zn7   S    
C229  C231  S    
C78   C81   S    
C163  Cl22  S    
C104  O25   D    
C166  Cl25  S    
O114  Zn8   S    
C19   C65   S    
C43   C52   S    
C2    C188  S    
O93   Zn15  S    
C98   H3    S    
C35   C193  S    
C22   C64   S    
C21   O121  A    
C23   C61   S    
O143  Zn27  S    
C92   H45   S    
C79   C105  S    
C115  C159  S    
C186  O162  A    
C9    C205  S    
C6    O94   A    
C135  Cl15  S    
C158  C184  S    
O136  Zn24  S    
C73   C189  S    
C9    O150  A    
C118  O38   D    
C141  O61   D    
C8    O149  A    
C103  H7    S    
O151  Zn3   S    
C84   C200  S    
C171  C189  S    
C11   O152  A    
C60   C69   T    
O82   Zn1   S    
O97   Zn19  S    
C95   H63   S    
C131  O51   D    
C147  O66   D    
C56   C65   T    
C139  H42   S    
C33   O130  A    
O80   Zn12  S    
C114  O33   D    
C203  C221  T    
C90   C113  S    
O3    Zn21  S    
C72   C188  S    
C3    O143  A    
C108  H13   S    
C150  H53   S    
C74   Cl28  S    
C58   C66   T    
O35   Zn8   S    
C95   O16   D    
C197  O46   A    
C150  O70   D    
C8    O96   A    
C111  O32   D    
C197  C201  S    
C73   Cl27  S    
C238  O87   A    
O154  Zn6   S    
C175  C194  S    
O57   Zn6   S    
O121  Zn26  S    
C165  C200  S    
C141  H44   S    
O161  Zn13  S    
O140  Zn1   S    
C32   O129  A    
C79   Cl9   S    
C146  C192  S    
C110  C135  S    
C12   O153  A    
O163  Zn15  S    
C102  H6    S    
C30   O127  A    
C100  O21   D    
C17   C67   S    
C5    O145  A    
O162  Zn14  S    
O144  Zn28  S    
C24   O82   A    
C96   H64   S    
C184  C202  S    
C14   C210  S    
C13   O168  A    
C88   O9    D    
C73   C91   S    
C98   O19   D    
C119  C163  S    
O81   Zn3   S    
C68   O7    A    
O147  Zn17  S    
C151  C178  S    
C75   Cl29  S    
C117  C161  S    
C77   C95   S    
C49   C58   S    
C122  H26   S    
O91   Zn14  S    
O127  Zn8   S    
C53   C62   T    
C210  C227  T    
C32   C41   S    
C135  C191  S    
C55   C64   T    
O134  Zn1   S    
C225  C226  S    
C82   Cl4   S    
C215  C238  S    
O156  Zn8   S    
O86   Zn28  S    
C38   C47   T    
C213  C240  S    
C207  C225  T    
O102  Zn25  S    
C155  H59   S    
C24   O3    A    
C16   O104  A    
C128  C172  S    
C159  Cl18  S    
C205  C223  T    
C142  C169  S    
C1    O158  A    
C27   O123  A    
O1    Zn4   S    
C83   C199  S    
C15   O102  A    
C139  C183  S    
O13   Zn2   S    
C161  Cl20  S    
C47   C55   S    
C173  C176  S    
C3    C212  S    
C48   C56   S    
C114  H17   S    
O136  Zn6   S    
C25   O118  A    
C79   C185  S    
C26   O122  A    
C79   C101  S    
C7    C216  S    
O85   Zn29  S    
C107  O28   D    
C142  O62   D    
C109  C124  S    
C132  C177  S    
C140  O60   D    
C178  C195  S    
C136  C180  S    
C116  H19   S    
O114  Zn28  S    
O4    Zn22  S    
C31   O138  A    
O150  Zn2   S    
C15   C209  S    
O166  Zn18  S    
C81   C196  S    
C72   C89   S    
O95   Zn17  S    
O109  Zn14  S    
C186  O35   A    
C218  C236  T    
C91   H34   S    
C31   O128  A    
C234  C235  S    
O125  Zn29  S    
O89   Zn11  S    
C16   O156  A    
C70   C72   S    
C152  O72   D    
C10   C204  S    
O119  Zn24  S    
