data_mof_unit_8095.cif
_audit_creation_date              2013-03-05T16:04:42-0500
_audit_creation_method            fapswitch 2.2
_symmetry_space_group_name_H-M    P1
_symmetry_Int_Tables_number       1
_space_group_crystal_system       triclinic
_cell_length_a                    6.93499
_cell_length_b                    23.179249
_cell_length_c                    23.607557
_cell_angle_alpha                 112.536402
_cell_angle_beta                  90.322312
_cell_angle_gamma                 90.674755
_cell_volume                      3504.61980817

loop_
_atom_site_label
_atom_site_type_symbol
_atom_site_description
_atom_site_fract_x
_atom_site_fract_y
_atom_site_fract_z
_atom_type_partial_charge
O1    O     O_R   0.505740 0.453370 0.547760 -0.603739
O2    O     O_R   0.169520 0.427650 0.423350 -0.603005
O3    O     O_R   0.005620 0.546630 0.452240 -0.582575
C1    C     C_R   0.336821 0.408805 0.399301 0.915976
O4    O     O_R   0.175610 0.445960 0.545510 -0.604427
O5    O     O_R   0.011740 0.565080 0.575280 -0.563187
C2    C     C_R   0.344545 0.434055 0.562519 0.918809
O6    O     O_R   0.499610 0.434920 0.424720 -0.599065
O7    O     O_3   0.341310 0.539060 0.509620 -0.227610
V1    V     V_3+5 0.063960 0.492750 0.498220 1.185110
O8    O     O_R   0.682400 0.572350 0.576650 -0.575563
C3    C     C_R   0.851611 0.590845 0.600486 1.014969
O9    O     O_R   0.676320 0.554040 0.454490 -0.599732
C4    C     C_R   0.845444 0.565702 0.437304 0.952662
V2    V     V_3+5 0.564740 0.507250 0.501780 1.196901
O10   O     O_3   0.837250 0.460940 0.490380 -0.293950
C5    C     C_R   0.794058 0.904606 0.143525 0.259910
C6    C     C_R   0.778205 0.865924 0.177453 0.231746
C7    C     C_R   0.924530 0.822439 0.173689 -0.110862
C8    C     C_R   0.078902 0.816524 0.133636 -0.103114
H1    H     H_    0.192332 0.783569 0.129801 0.166946
C9    C     C_R   0.091073 0.853329 0.098653 -0.072441
H2    H     H_    0.210896 0.846587 0.067647 0.175891
C10   C     C_R   0.950428 0.897839 0.103009 -0.331514
C11   C     C_R   0.958096 0.720280 0.187590 -0.136027
H3    H     H_    0.989672 0.697148 0.139290 0.117820
C12   C     C_R   0.949217 0.684745 0.224080 -0.167470
H4    H     H_    0.975222 0.635046 0.203298 0.119337
C13   C     C_R   0.901526 0.712763 0.286441 0.087830
C14   C     C_R   0.869264 0.777299 0.312066 -0.169501
H5    H     H_    0.835859 0.800187 0.360270 0.133462
C15   C     C_R   0.882677 0.813038 0.275998 -0.031912
H6    H     H_    0.860901 0.862913 0.297427 0.142271
C16   C     C_R   0.921997 0.784757 0.212901 0.194790
C17   C     C_R   0.720121 0.677506 0.359642 -0.143898
H7    H     H_    0.600862 0.706739 0.358311 0.126182
C18   C     C_R   0.705390 0.641643 0.395702 -0.139222
H8    H     H_    0.575322 0.644316 0.421715 0.147230
C19   C     C_R   0.858168 0.603490 0.398728 -0.123587
C20   C     C_R   0.024676 0.601469 0.364147 -0.136925
H9    H     H_    0.144758 0.572400 0.365144 0.123976
C21   C     C_R   0.037589 0.636305 0.327187 -0.151606
H10   H     H_    0.167366 0.633802 0.301071 0.115279
C22   C     C_R   0.886032 0.674943 0.324829 0.116525
C23   C     C_R   0.856247 0.645465 0.659822 -0.294781
C24   C     C_R   0.953036 0.854560 0.840172 -0.287028
C25   C     C_R   0.111868 0.798200 0.743174 -0.092437
C26   C     C_R   0.099030 0.850157 0.797876 -0.140179
C27   C     C_R   0.815002 0.805606 0.826424 0.293982
C28   C     C_R   0.829027 0.752066 0.770891 0.000095
C29   C     C_R   0.980197 0.748001 0.729067 0.000353
C30   C     C_R   0.994289 0.694432 0.673549 0.295487
C31   C     C_R   0.710101 0.649933 0.702092 -0.139620
C32   C     C_R   0.697224 0.701909 0.756772 -0.092246
H11   H     H_    0.603736 0.612685 0.692613 0.147416
H12   H     H_    0.226753 0.797814 0.712238 0.172602
H13   H     H_    0.582190 0.702358 0.787685 0.171354
H14   H     H_    0.205296 0.887435 0.807355 0.147587
C33   C     C_R   0.339266 0.353048 0.340108 -0.117202
C34   C     C_R   0.472139 0.147085 0.160034 -0.167213
C35   C     C_R   0.641532 0.212242 0.255914 0.116990
C36   C     C_R   0.631924 0.159312 0.200101 -0.139107
C37   C     C_R   0.319923 0.189659 0.175872 -0.316824
C38   C     C_R   0.328826 0.244150 0.230125 0.209461
C39   C     C_R   0.489589 0.255893 0.270663 0.108457
C40   C     C_R   0.492410 0.310578 0.325501 -0.263828
C41   C     C_R   0.182658 0.340532 0.298899 -0.179037
C42   C     C_R   0.177977 0.287103 0.244568 -0.195940
H15   H     H_    0.610304 0.319866 0.358122 0.137534
H16   H     H_    0.062434 0.372192 0.308825 0.125937
H17   H     H_    0.054189 0.278920 0.214112 0.120781
H18   H     H_    0.750313 0.127137 0.187164 0.181247
H19   H     H_    0.196460 0.181194 0.145221 0.142411
C43   C     C_R   0.282734 0.102660 0.865706 -0.248873
H20   H     H_    0.160240 0.074352 0.868308 0.132036
C44   C     C_R   0.269204 0.136647 0.827682 0.191468
C45   C     C_R   0.427355 0.174125 0.823773 0.070761
C46   C     C_R   0.597840 0.174442 0.856480 -0.199661
H21   H     H_    0.720450 0.202948 0.854463 0.120664
C47   C     C_R   0.611464 0.139026 0.892873 -0.171663
H22   H     H_    0.745016 0.140484 0.917420 0.128615
C48   C     C_R   0.453433 0.103155 0.898371 -0.120271
C49   C     C_R   0.563661 0.211351 0.745004 -0.180767
H23   H     H_    0.686517 0.181425 0.740013 0.129311
C50   C     C_R   0.551457 0.246764 0.708582 -0.159742
H24   H     H_    0.665390 0.242955 0.676237 0.116766
C51   C     C_R   0.392316 0.285406 0.712876 0.103258
C52   C     C_R   0.246496 0.287866 0.754955 -0.176933
H25   H     H_    0.123871 0.317960 0.760530 0.113420
C53   C     C_R   0.258758 0.252398 0.791302 -0.121338
H26   H     H_    0.145146 0.255848 0.823680 0.113164
C54   C     C_R   0.416599 0.213309 0.786363 0.111427
C55   C     C_R   0.200583 0.332567 0.650323 -0.142906
H27   H     H_    0.069715 0.311551 0.659056 0.101514
C56   C     C_R   0.188787 0.368347 0.614170 -0.152495
H28   H     H_    0.048982 0.374445 0.596738 0.126793
C57   C     C_R   0.355438 0.395529 0.600496 -0.130009
C58   C     C_R   0.533924 0.386020 0.624055 -0.148249
H29   H     H_    0.665388 0.406496 0.614954 0.126521
C59   C     C_R   0.545549 0.350533 0.660342 -0.151092
H30   H     H_    0.685074 0.345384 0.678527 0.100755
C60   C     C_R   0.379202 0.323220 0.674002 0.121043
O11   O     O_R   0.309730 0.065160 0.075230 -0.594689
O12   O     O_R   0.633800 0.053970 0.954410 -0.613018
O13   O     O_R   0.797580 0.934860 0.924760 -0.569322
C61   C     C_R   0.464875 0.065607 0.937187 0.908449
O14   O     O_R   0.639820 0.072410 0.076610 -0.599157
O15   O     O_R   0.803650 0.953440 0.047830 -0.553135
C62   C     C_R   0.472642 0.091424 0.100598 1.016169
O16   O     O_R   0.303670 0.046590 0.952160 -0.610510
O17   O     O_3   0.468000 0.960960 0.990410 -0.218360
V3    V     V_3+5 0.745380 0.007240 0.001780 1.222506
O18   O     O_R   0.132940 0.946010 0.045600 -0.574908
C63   C     C_R   0.963804 0.935195 0.063680 1.053948
O19   O     O_R   0.126920 0.927560 0.923400 -0.583386
C64   C     C_R   0.957708 0.909110 0.899546 0.997103
V4    V     V_3+5 0.244590 0.992720 0.998240 1.239187
O20   O     O_3   0.972110 0.039040 0.009600 -0.307650
N1    N     N_R   0.653091 0.951764 0.151633 0.260813
O21   O     O_R   0.472117 0.936536 0.139372 -0.367899
O22   O     O_R   0.704316 0.010410 0.174996 -0.427283
N2    N     N_R   0.142502 0.691005 0.630246 0.227165
O23   O     O_R   0.322396 0.687131 0.644100 -0.407945
O24   O     O_R   0.097122 0.688612 0.575830 -0.406855
N3    N     N_R   0.666909 0.809005 0.869745 0.226672
O25   O     O_R   0.487101 0.813411 0.856128 -0.409119
O26   O     O_R   0.712414 0.810695 0.923931 -0.414877
N4    N     N_R   0.611866 0.870461 0.214916 0.240763
O27   O     O_R   0.512934 0.820540 0.209519 -0.420882
O28   O     O_R   0.559248 0.924369 0.254773 -0.342816
N5    N     N_2   0.802031 0.222502 0.297296 -0.121512
H31   H     H_    0.867793 0.265804 0.310672 0.167703
C65   C     C_3   0.931228 0.171975 0.291495 -0.810104
H32   H     H_    0.028753 0.186409 0.332175 0.246739
H33   H     H_    0.021067 0.160801 0.249989 0.242895
H34   H     H_    0.848006 0.129945 0.289406 0.280513
N6    N     N_2   0.096843 0.132059 0.793026 -0.130665
H35   H     H_    0.975516 0.121947 0.812744 0.164399
C66   C     C_3   0.110010 0.091924 0.728844 -0.896096
H36   H     H_    0.972563 0.093275 0.705058 0.247427
H37   H     H_    0.136084 0.042995 0.723862 0.251711
H38   H     H_    0.228108 0.107846 0.706500 0.263565

loop_
_geom_bond_atom_site_label_1
_geom_bond_atom_site_label_2
_geom_bond_distance
_ccdc_geom_bond_type
V3    O20   1.707301 S    
C51   C52   1.407819 A    
C45   C54   1.492042 S    
C10   C63   1.495244 S    
C55   H27   1.082668 S    
C12   C13   1.405753 A    
O14   V3    1.983322 S    
O13   C64   1.301710 A    
C56   H28   1.082906 S    
C1    O6    1.303400 A    
N4    O27   1.301241 A    
O12   C61   1.302551 A    
C57   C58   1.408079 A    
C45   C46   1.406868 A    
C49   C54   1.404944 A    
N6    C66   1.446598 S    
C24   C27   1.413473 A    
C13   C14   1.403359 A    
C43   C44   1.406454 A    
C34   C37   1.405025 A    
C38   C42   1.403653 A    
C17   C18   1.402708 A    
C33   C40   1.408705 A    
O5    C3    1.301767 A    
C14   H5    1.083133 S    
C66   H38   1.110046 S    
C46   C47   1.400894 A    
C40   H15   1.081460 S    
V2    O10   2.151345 S    
C58   H29   1.082957 S    
C34   C36   1.406505 A    
C6    C7    1.417775 A    
O15   C63   1.296187 A    
C34   C62   1.498631 S    
C6    N4    1.437701 S    
C4    C19   1.488256 S    
C30   N2    1.435037 S    
C7    C8    1.405166 A    
O19   V4    1.994467 S    
C65   H34   1.110976 S    
O1    V2    1.984320 S    
O7    V1    2.155999 S    
C11   C16   1.406868 A    
C33   C41   1.405167 A    
C20   C21   1.400212 A    
O11   C62   1.304765 A    
C23   C31   1.402982 A    
C55   C56   1.402254 A    
O9    C4    1.302020 A    
C65   H33   1.109725 S    
O14   C62   1.298915 A    
O11   V4    1.990092 S    
C21   C22   1.403440 A    
C43   C48   1.406694 A    
O16   V4    1.986107 S    
C5    C6    1.416587 A    
N1    O22   1.299991 A    
C44   N6    1.424342 S    
C66   H36   1.110426 S    
C24   C26   1.402933 A    
C5    C10   1.419900 A    
C43   H20   1.083646 S    
C50   C51   1.409078 A    
C29   C30   1.423369 A    
C44   C45   1.416411 A    
C47   C48   1.404322 A    
C19   C20   1.408760 A    
O4    C2    1.302768 A    
C35   N5    1.432926 S    
C46   H21   1.083147 S    
C3    C23   1.484994 S    
C25   C29   1.404691 A    
C37   H19   1.084169 S    
C23   C30   1.413765 A    
C11   H3    1.082843 S    
C50   H24   1.082544 S    
C41   C42   1.400327 A    
C17   H7    1.083225 S    
C15   C16   1.408240 A    
O2    C1    1.299431 A    
C18   H8    1.083047 S    
C35   C39   1.419321 A    
C51   C60   1.495422 S    
C53   C54   1.405905 A    
C25   C26   1.391996 A    
N1    O21   1.300264 A    
C59   C60   1.406798 A    
C28   C29   1.423192 A    
C36   H18   1.079920 S    
C28   C32   1.404526 A    
C52   H25   1.082567 S    
C26   H14   1.083847 S    
C17   C22   1.406293 A    
O3    C4    1.296271 A    
O18   V4    1.984874 S    
C20   H9    1.083139 S    
C49   C50   1.400751 A    
O13   V3    1.983732 S    
C8    C9    1.398610 A    
C39   C40   1.422782 A    
O6    V2    1.989802 S    
O8    V2    1.994287 S    
O9    V2    1.984814 S    
C13   C22   1.486329 S    
C65   H32   1.110279 S    
C9    C10   1.403522 A    
C49   H23   1.083227 S    
C21   H10   1.083305 S    
C31   H11   1.083818 S    
N2    O24   1.301087 A    
N5    H31   1.029465 S    
O2    V1    1.983197 S    
O12   V3    1.990254 S    
O18   C63   1.304438 A    
C61   O16   1.296675 A    
C2    C57   1.490467 S    
O17   V3    2.155927 S    
O1    C2    1.297566 A    
C52   C53   1.400338 A    
C47   H22   1.083049 S    
N5    C65   1.447869 S    
C7    C16   1.496575 S    
N4    O28   1.301226 A    
C55   C60   1.408984 A    
O5    V1    1.983747 S    
O8    C3    1.293557 A    
C56   C57   1.407062 A    
C31   C32   1.391931 A    
C11   C12   1.402701 A    
C27   N3    1.434879 S    
N6    H35   1.031005 S    
C58   C59   1.399263 A    
C24   C64   1.484756 S    
O17   V4    1.703634 S    
C41   H16   1.083232 S    
C15   H6    1.082541 S    
O7    V2    1.704214 S    
O4    V1    1.990057 S    
C18   C19   1.406913 A    
O3    V1    1.986910 S    
V1    O10   1.707232 S    
V4    O20   2.151326 S    
C38   C39   1.419195 A    
C14   C15   1.399906 A    
C66   H37   1.111582 S    
C53   H26   1.082975 S    
N3    O25   1.300908 A    
C42   H17   1.083779 S    
C1    C33   1.496585 S    
C59   H30   1.082652 S    
C48   C61   1.488482 S    
C35   C36   1.415528 A    
C5    N1    1.433203 S    
C37   C38   1.413070 A    
O15   V3    1.986553 S    
C8    H1    1.082781 S    
C27   C28   1.423180 A    
C12   H4    1.083040 S    
N3    O26   1.301608 A    
C9    H2    1.083029 S    
N2    O23   1.300780 A    
O19   C64   1.293526 A    
C25   H12   1.081618 S    
C32   H13   1.081684 S    
