data_mof_unit_68378.cif
_audit_creation_date              2013-03-05T16:02:54-0500
_audit_creation_method            fapswitch 2.2
_symmetry_space_group_name_H-M    P1
_symmetry_Int_Tables_number       1
_space_group_crystal_system       triclinic
_cell_length_a                    8.815453
_cell_length_b                    14.520083
_cell_length_c                    17.397275
_cell_angle_alpha                 97.464593
_cell_angle_beta                  98.047666
_cell_angle_gamma                 92.596773
_cell_volume                      2181.67700388

loop_
_atom_site_label
_atom_site_type_symbol
_atom_site_description
_atom_site_fract_x
_atom_site_fract_y
_atom_site_fract_z
_atom_type_partial_charge
P1    P     P_3+3 0.017810 0.410420 0.324030 0.647379
O1    O     O_2   0.840370 0.437300 0.310630 -0.240372
O2    O     O_3   0.112450 0.444030 0.408320 -0.337199
O3    O     O_3   0.597270 0.610320 0.351390 -0.320019
O4    O     O_2   0.588624 0.519219 0.210760 -0.174417
O5    O     O_3   0.049855 0.292708 0.290647 -0.650606
O6    O     O_3   0.607948 0.697062 0.210223 -0.499392
C1    C     C_3   0.635752 0.863919 0.196815 0.214374
H1    H     H_    0.760703 0.871911 0.216128 0.080730
P2    P     P_3+3 0.635890 0.718430 0.552520 0.628164
P3    P     P_3+3 0.058845 0.778076 0.382404 0.673614
O7    O     O_2   0.802370 0.730760 0.528330 -0.264290
O8    O     O_3   0.016680 0.660770 0.388810 -0.318445
O9    O     O_2   0.954640 0.827663 0.437104 -0.220702
O10   O     O_3   0.637121 0.754926 0.654567 -0.650945
O11   O     O_3   0.972902 0.805763 0.290677 -0.486708
C2    C     C_3   0.012727 0.746178 0.226415 0.515270
H2    H     H_    0.128104 0.721786 0.240901 -0.000864
C3    C     C_3   0.009662 0.797541 0.152841 -0.002250
H3    H     H_    0.891389 0.808409 0.127438 0.132623
C4    C     C_3   0.276538 0.756580 0.658349 0.458975
H4    H     H_    0.391963 0.734009 0.675165 0.094556
C5    C     C_3   0.279265 0.865225 0.682188 0.207907
H5    H     H_    0.193347 0.879987 0.721795 0.201946
Ba1   Ba    Ba6+2 0.833220 0.541860 0.459910 1.891696
C6    C     C_3   0.944037 0.219579 0.295844 0.880544
C7    C     C_3   0.969397 0.133446 0.237702 -0.114649
H6    H     H_    0.889987 0.074205 0.243637 0.200865
H7    H     H_    0.087252 0.112950 0.255156 0.139167
C8    C     C_3   0.773100 0.753708 0.707293 0.783309
C9    C     C_3   0.748522 0.800343 0.790228 0.537790
H8    H     H_    0.723411 0.873591 0.788290 0.168478
P4    P     P_3+3 0.171880 0.589650 0.675980 0.685943
O12   O     O_2   0.349330 0.562730 0.689420 -0.326812
O13   O     O_3   0.077250 0.556050 0.591680 -0.275897
O14   O     O_3   0.592420 0.389760 0.648620 -0.302387
O15   O     O_3   0.178897 0.711651 0.700882 -0.529418
P5    P     P_3+3 0.136181 0.218505 0.610738 0.699708
O16   O     O_3   0.628930 0.385070 0.464840 -0.271381
O17   O     O_3   0.173020 0.339310 0.611190 -0.309787
O18   O     O_2   0.253507 0.171085 0.562890 -0.252901
O19   O     O_3   0.193481 0.190616 0.705780 -0.464375
Ba2   Ba    Ba6+2 0.356600 0.458220 0.540090 1.901017
P6    P     P_3+3 0.522712 0.605946 0.251786 0.670372
C10   C     C_3   0.566363 0.786673 0.238755 0.797979
O20   O     O_3   0.560770 0.615000 0.535160 -0.293839
C11   C     C_3   0.410298 0.274181 0.301838 0.566947
H9    H     H_    0.307136 0.279090 0.330634 0.072984
C12   C     C_3   0.360696 0.225366 0.215982 0.400126
H10   H     H_    0.306165 0.155908 0.218687 0.087372
P7    P     P_3+3 0.552214 0.266568 0.444857 0.595652
O21   O     O_2   0.387340 0.269270 0.471720 -0.341354
O22   O     O_3   0.514709 0.222043 0.344164 -0.553051
H11   H     H_    0.054359 0.751558 0.106060 0.153800
C13   C     C_3   0.168056 0.262755 0.764659 0.614234
H12   H     H_    0.055148 0.289587 0.749509 -0.027427
C14   C     C_3   0.171922 0.227128 0.845859 0.579755
H13   H     H_    0.059075 0.237609 0.865111 0.073242
P8    P     P_3+3 0.665071 0.405008 0.749063 0.705981
C15   C     C_3   0.643898 0.223178 0.780812 0.769266
O23   O     O_2   0.585982 0.491014 0.783180 -0.196795
O24   O     O_3   0.597259 0.315766 0.798158 -0.536024
C16   C     C_3   0.643481 0.178496 0.857572 0.399351
H14   H     H_    0.524237 0.176829 0.870870 0.155226
C17   C     C_2   0.230111 0.530348 0.279683 -0.355132
C18   C     C_3   0.307432 0.589536 0.228597 0.107938
C19   C     C_2   0.253251 0.563939 0.142073 -0.168433
C20   C     C_2   0.122129 0.511421 0.115689 -0.144401
C21   C     C_2   0.042397 0.466007 0.174589 0.326414
C22   C     C_1   0.102821 0.476380 0.251731 0.168772
C23   C     C_R   0.938980 0.437055 0.853830 -0.248244
C24   C     C_R   0.873562 0.432626 0.775882 0.220392
C25   C     C_R   0.088742 0.526613 0.749323 0.180267
C26   C     C_R   0.145643 0.542091 0.831349 0.249918
C27   C     C_R   0.073347 0.493390 0.884140 0.050562
C28   C     C_2   0.051158 0.505077 0.030097 0.510966
C29   C     C_2   0.136856 0.500823 0.970197 -0.168680
C30   C     C_R   0.958630 0.465696 0.722552 -0.297869
H15   H     H_    0.260444 0.500772 0.984698 0.202527
H16   H     H_    0.881146 0.397647 0.890686 0.210897
H17   H     H_    0.312157 0.598140 0.101813 0.207724
H18   H     H_    0.269852 0.543669 0.342167 0.156034
H19   H     H_    0.912112 0.453512 0.661139 0.199718
C31   C     C_R   0.700361 0.942331 0.539357 0.060070
C32   C     C_R   0.516929 0.801352 0.494489 0.218867
C33   C     C_R   0.378760 0.766650 0.444674 -0.398202
C34   C     C_R   0.262207 0.825780 0.422354 0.150934
C35   C     C_R   0.298695 0.922214 0.433858 0.465969
C36   C     C_R   0.448470 0.958804 0.467398 -0.025918
C37   C     C_R   0.555718 0.900189 0.502232 -0.042714
H20   H     H_    0.356582 0.692624 0.427519 0.168883
C38   C     C_R   0.635826 0.094660 0.502446 -0.037700
C39   C     C_R   0.741452 0.038054 0.539576 0.087917
C40   C     C_R   0.679960 0.189762 0.499205 0.139291
C41   C     C_R   0.832919 0.224496 0.529339 0.211584
C42   C     C_R   0.937768 0.168753 0.566744 0.228328
C43   C     C_R   0.889096 0.077187 0.574096 -0.115715
C44   C     C_R   0.490609 0.053979 0.467685 0.064251
H21   H     H_    0.966428 0.037305 0.607804 0.221325
H22   H     H_    0.785680 0.900393 0.564203 0.193142
H23   H     H_    0.410382 0.096151 0.438298 0.174949
Cl1   Cl    Cl    0.644020 0.813790 0.339739 -0.588644
N1    N     N_R   0.425519 0.900830 0.728801 0.233683
O25   O     O_R   0.540344 0.925729 0.694874 -0.362932
O26   O     O_R   0.431930 0.922827 0.804141 -0.220144
N2    N     N_R   0.241836 0.918883 0.616527 0.207358
O27   O     O_R   0.322357 0.995035 0.613273 -0.294258
O28   O     O_R   0.106156 0.907716 0.575706 -0.378030
Cl2   Cl    Cl    0.758430 0.249239 0.273134 -0.479561
N3    N     N_R   0.967454 0.191966 0.373757 0.190041
O29   O     O_R   0.094530 0.218648 0.420199 -0.361645
O30   O     O_R   0.884623 0.121286 0.387758 -0.391775
N4    N     N_R   0.948647 0.146977 0.155033 0.301685
O31   O     O_R   0.044904 0.111774 0.110856 -0.194749
O32   O     O_R   0.815649 0.166771 0.121040 -0.165766
Cl3   Cl    Cl    0.918296 0.823994 0.680573 -0.603171
N5    N     N_R   0.815082 0.658261 0.710216 0.201494
O33   O     O_R   0.815132 0.602708 0.645567 -0.383178
O34   O     O_R   0.821813 0.623269 0.775551 -0.411712
N6    N     N_R   0.574420 0.953594 0.221294 0.262601
O35   O     O_R   0.644012 0.008339 0.282361 -0.323824
O36   O     O_R   0.439918 0.973350 0.189003 -0.217725
Cl4   Cl    Cl    0.916756 0.805261 0.862228 -0.341321
Cl5   Cl    Cl    0.592953 0.744144 0.825700 -0.359636
N7    N     N_R   0.400938 0.790522 0.226073 0.169260
O37   O     O_R   0.329461 0.766865 0.155298 -0.423091
O38   O     O_R   0.336165 0.844176 0.275610 -0.426537
N8    N     N_R   0.609973 0.844101 0.110631 0.259635
O39   O     O_R   0.649955 0.908249 0.070239 -0.219728
O40   O     O_R   0.570598 0.760550 0.074082 -0.220072
Cl6   Cl    Cl    0.487665 0.389111 0.303332 -0.506519
Cl7   Cl    Cl    0.226181 0.289268 0.163913 -0.522204
N9    N     N_R   0.484356 0.213596 0.168621 0.312404
O41   O     O_R   0.537559 0.284337 0.139287 -0.154189
O42   O     O_R   0.510376 0.130531 0.137753 -0.200088
Cl8   Cl    Cl    0.298164 0.360547 0.769651 -0.544057
Cl9   Cl    Cl    0.304779 0.288820 0.925168 -0.443270
Cl10  Cl    Cl    0.201873 0.105597 0.842122 -0.326599
N10   N     N_R   0.790475 0.216787 0.750574 0.142951
O43   O     O_R   0.800520 0.250081 0.685872 -0.528729
O44   O     O_R   0.873197 0.147001 0.763268 -0.391934
Cl11  Cl    Cl    0.505595 0.159521 0.707252 -0.419349
Cl12  Cl    Cl    0.690532 0.059286 0.851919 -0.317137
N11   N     N_R   0.903473 0.664687 0.205933 0.190629
O45   O     O_R   0.877644 0.611643 0.257530 -0.330658
O46   O     O_R   0.826433 0.644994 0.135966 -0.317646
N12   N     N_R   0.740287 0.234670 0.923647 0.224443
O47   O     O_R   0.684386 0.305375 0.961523 -0.222464
O48   O     O_R   0.870645 0.205903 0.953102 -0.228887
N13   N     N_R   0.921298 0.396038 0.143595 0.272225
O49   O     O_R   0.938361 0.335678 0.083988 -0.221112
O50   O     O_R   0.783258 0.409340 0.157972 -0.191203
Cl13  Cl    Cl    0.850413 0.514275 0.009773 -0.389049
N14   N     N_R   0.272805 0.607832 0.860792 0.254978
O51   O     O_R   0.401321 0.580284 0.893740 -0.243398
O52   O     O_R   0.253747 0.696421 0.863763 -0.237440
Cl14  Cl    Cl    0.154204 0.997267 0.406951 -0.477763
Cl15  Cl    Cl    0.902152 0.336017 0.515929 -0.528846
N15   N     N_R   0.095872 0.887456 0.166602 0.312304
O53   O     O_R   0.088442 0.944632 0.229529 -0.314427
O54   O     O_R   0.144160 0.919757 0.107406 -0.177201
N16   N     N_R   0.227223 0.726315 0.575363 0.171605
O55   O     O_R   0.290408 0.655297 0.543411 -0.427681
O56   O     O_R   0.085622 0.734650 0.548169 -0.276612

loop_
_geom_bond_atom_site_label_1
_geom_bond_atom_site_label_2
_geom_bond_distance
_ccdc_geom_bond_type
C1    H1    1.101970 S    
O16   P7    1.792257 S    
C13   H12   1.095590 S    
P2    C32   1.924194 S    
C7    H7    1.106042 S    
C41   Cl15  1.759970 S    
P3    O8    1.747951 S    
C25   C26   1.429893 A    
P6    C18   1.881702 S    
C3    H3    1.100591 S    
C34   C35   1.404452 A    
O14   P8    1.756696 S    
N8    O39   1.302013 A    
Ba1   Ba2   4.763730 S    
O3    Ba1   2.907639 S    
C14   H13   1.103961 S    
C38   C44   1.405474 A    
C11   C12   1.561588 S    
C8    Cl3   1.751416 S    
C32   C33   1.422642 A    
O2    Ba2   2.895807 S    
C6    C7    1.548300 S    
C15   C16   1.559019 S    
C21   N13   1.435536 S    
O6    C10   1.414273 S    
N12   O48   1.300713 A    
C9    Cl5   1.787141 S    
P5    O19   1.764025 S    
C33   H20   1.078843 S    
N5    O34   1.299056 A    
N15   O53   1.296480 A    
C8    C9    1.560204 S    
P3    O9    1.547429 D    
Ba2   O21   2.885330 S    
N2    O27   1.298502 A    
C13   Cl8   1.769692 S    
C28   Cl13  1.770042 S    
C26   N14   1.430175 S    
C15   O24   1.430707 S    
P1    O1    1.621822 D    
N3    O29   1.297600 A    
C24   C30   1.389844 A    
N1    O25   1.301252 A    
N12   O47   1.300789 A    
C15   Cl11  1.769808 S    
C1    C10   1.562056 S    
C30   H19   1.078250 S    
C1    N8    1.472796 S    
O17   Ba2   2.827077 S    
C5    N1    1.457776 S    
C41   C42   1.403272 A    
C10   N7    1.448775 S    
C20   C21   1.521212 S    
P2    O20   1.587834 S    
C25   C30   1.402263 A    
N15   O54   1.300732 A    
O13   Ba2   3.080960 S    
C6    N3    1.452936 S    
N14   O52   1.300098 A    
P8    C24   1.844190 S    
C11   O22   1.407387 S    
C18   C19   1.506458 S    
C23   C27   1.405517 A    
C4    H4    1.095514 S    
P1    Ba1   3.473443 S    
O8    Ba1   2.826435 S    
C40   C41   1.420959 A    
C31   C37   1.418978 A    
C16   N12   1.460681 S    
C23   H16   1.076520 S    
C43   H21   1.075201 S    
N6    O36   1.299979 A    
C2    H2    1.098872 S    
N16   O56   1.288364 A    
C29   H15   1.083415 S    
C12   Cl7   1.762098 S    
P8    O23   1.549227 D    
C26   C27   1.428808 A    
C19   C20   1.344961 D    
P4    Ba2   3.474166 S    
O2    Ba1   3.080049 S    
C28   C29   1.366910 D    
P5    O18   1.547074 D    
N11   O46   1.298140 A    
P3    C34   1.894798 S    
C33   C34   1.413676 A    
O11   C2    1.416958 S    
O16   Ba2   3.058624 S    
O3    P6    1.757120 S    
O6    P6    1.774377 S    
C5    N2    1.473022 S    
P4    O15   1.764305 S    
P7    O21   1.588405 D    
C11   Cl6   1.769557 S    
P1    O2    1.587199 S    
C31   H22   1.068745 S    
O19   C13   1.415437 S    
P3    O11   1.771437 S    
C11   H9    1.098752 S    
C5    H5    1.103112 S    
C42   C43   1.405691 A    
C38   C40   1.427969 A    
P4    O12   1.622109 D    
O5    C6    1.401673 S    
C14   Cl9   1.791415 S    
N1    O26   1.300781 A    
C35   Cl14  1.766518 S    
C27   C29   1.511426 S    
C6    Cl2   1.716343 S    
N14   O51   1.300342 A    
N4    O31   1.300699 A    
P2    O7    1.591132 D    
Ba1   O13   2.895141 S    
C7    N4    1.464089 S    
C3    H11   1.111700 S    
P4    C25   1.872831 S    
O4    P6    1.543286 D    
C19   H17   1.084297 S    
C13   C14   1.562796 S    
N7    O37   1.297842 A    
N13   O50   1.294080 A    
C32   C37   1.444657 A    
C2    C3    1.560600 S    
C39   C43   1.415284 A    
C7    H6    1.108772 S    
N6    O35   1.300306 A    
P2    Ba1   3.508648 S    
O10   C8    1.406029 S    
N7    O38   1.295892 A    
N16   O55   1.293210 A    
C1    N6    1.467416 S    
C12   N9    1.458861 S    
P8    O24   1.768139 S    
C2    N11   1.464838 S    
C4    N16   1.452090 S    
C9    H8    1.099942 S    
O12   Ba2   2.843812 S    
N11   O45   1.292975 A    
N8    O40   1.302367 A    
N10   O43   1.293829 A    
C8    N5    1.455948 S    
C20   C28   1.521688 S    
C44   H23   1.075119 S    
O7    Ba1   2.885125 S    
P1    C22   1.890207 S    
C36   C44   1.413850 A    
P2    O10   1.783928 S    
C3    N15   1.455116 S    
C4    C5    1.576381 S    
C15   N10   1.464072 S    
C9    Cl4   1.794599 S    
C23   C24   1.389498 A    
N5    O33   1.296180 A    
Ba1   O16   2.855875 S    
P5    O17   1.768186 S    
N10   O44   1.298984 A    
C17   H18   1.083699 S    
N9    O41   1.301931 A    
N2    O28   1.294574 A    
C38   C39   1.413771 A    
P4    O13   1.587284 S    
C14   Cl10  1.790287 S    
O1    Ba1   2.843192 S    
C31   C39   1.419738 A    
C17   C18   1.519238 S    
C21   C22   1.359268 D    
Ba2   O20   2.855129 S    
N3    O30   1.301001 A    
C10   Cl1   1.780240 S    
P7    C40   1.869640 S    
C16   H14   1.107397 S    
C4    O15   1.402456 S    
C35   C36   1.416400 A    
C12   H10   1.106867 S    
P5    C42   1.879903 S    
P1    O5    1.780498 S    
N9    O42   1.298842 A    
C16   Cl12  1.791682 S    
N13   O49   1.298295 A    
O14   Ba2   2.907008 S    
P7    O22   1.766412 S    
C36   C37   1.425471 A    
Ba1   O20   3.059488 S    
C17   C22   1.333491 D    
N4    O32   1.299043 A    
