data_mof_unit_59943.cif
_audit_creation_date              2012-12-10T18:47:07-0500
_audit_creation_method            fapswitch 2.2
_symmetry_space_group_name_H-M    P1
_symmetry_Int_Tables_number       1
_space_group_crystal_system       triclinic
_cell_length_a                    10.709642
_cell_length_b                    10.009266
_cell_length_c                    14.936196
_cell_angle_alpha                 90.432381
_cell_angle_beta                  92.87456
_cell_angle_gamma                 90.04609
_cell_volume                      1599.03404492

loop_
_atom_site_label
_atom_site_type_symbol
_atom_type_description
_atom_site_fract_x
_atom_site_fract_y
_atom_site_fract_z
_atom_type_partial_charge
C1    C     C_R   0.260464 0.499976 0.500923 0.923117
C2    C     C_R   0.127723 0.499978 0.501243 -0.007103
C3    C     C_R   0.579614 0.072065 0.557144 0.155932
C4    C     C_R   0.420386 0.927935 0.442856 0.155932
C5    C     C_R   0.420292 0.070798 0.443022 0.145750
C6    C     C_R   0.579708 0.929202 0.556979 0.145750
C7    C     C_R   0.494854 0.499473 0.327408 0.936371
C8    C     C_R   0.505146 0.500527 0.672592 0.936379
C9    C     C_R   0.624012 0.512265 0.819438 -0.075750
C10   C     C_R   0.375989 0.487732 0.180562 -0.075744
C11   C     C_R   0.509826 0.501494 0.768272 -0.112022
C12   C     C_R   0.739536 0.500024 0.499076 0.923125
C13   C     C_R   0.490175 0.498505 0.231728 -0.112020
C14   C     C_R   0.395416 0.495217 0.807670 -0.252931
C15   C     C_R   0.604584 0.504781 0.192330 -0.252930
C16   C     C_R   0.390753 0.497978 0.899734 0.133819
C17   C     C_R   0.609248 0.502018 0.100266 0.133819
C18   C     C_R   0.502862 0.501104 0.953255 0.058125
C19   C     C_R   0.497139 0.498892 0.046745 0.058125
C20   C     C_R   0.620438 0.506211 0.913462 0.048483
C21   C     C_R   0.379563 0.493785 0.086538 0.048483
C22   C     C_R   0.275111 0.498111 0.938677 -0.196017
C23   C     C_R   0.269342 0.498197 0.031082 -0.142275
C24   C     C_R   0.724890 0.501883 0.061323 -0.196019
C25   C     C_2   0.744091 0.536431 0.775464 0.911243
C26   C     C_2   0.255910 0.463566 0.224535 0.911226
C27   C     C_R   0.730659 0.501797 0.968918 -0.142274
C28   C     C_R   0.063869 0.378226 0.501328 -0.170611
C29   C     C_R   0.936131 0.621774 0.498671 -0.170609
C30   C     C_R   0.935995 0.378235 0.499622 -0.144412
C31   C     C_R   0.064005 0.621766 0.500377 -0.144409
C32   C     C_R   0.872277 0.500022 0.498756 -0.007103
H1    H     H_    0.309443 0.490225 0.765933 0.137723
H2    H     H_    0.112296 0.716872 0.500859 0.182302
H3    H     H_    0.906694 0.638759 0.775574 0.352705
H4    H     H_    0.093311 0.361229 0.224428 0.352704
H5    H     H_    0.690557 0.509774 0.234067 0.137723
H6    H     H_    0.188764 0.499251 0.897545 0.158074
H7    H     H_    0.811237 0.500742 0.102455 0.158074
H8    H     H_    0.177689 0.504091 0.057888 0.183955
H9    H     H_    0.822312 0.495900 0.942113 0.183961
H10   H     H_    0.112054 0.283148 0.502627 0.183418
H11   H     H_    0.887946 0.716853 0.497372 0.183418
H12   H     H_    0.887703 0.283128 0.499140 0.182302
I1    I     I_    0.705518 0.174465 0.648732 -0.219031
I2    I     I_    0.294483 0.825536 0.351268 -0.219021
I3    I     I_    0.293320 0.172028 0.353231 -0.246941
I4    I     I_    0.706680 0.827972 0.646769 -0.246942
N1    N     N_R   0.500000 0.857200 0.500000 -0.152262
N2    N     N_R   0.500000 0.142800 0.500000 -0.152262
O1    O     O_R   0.316770 0.614620 0.499990 -0.605644
O2    O     O_R   0.828777 0.631680 0.811145 -0.787470
O3    O     O_2   0.232123 0.523998 0.292853 -0.622646
O4    O     O_R   0.171229 0.368306 0.188858 -0.787459
O5    O     O_R   0.683230 0.385380 0.500010 -0.605643
O6    O     O_R   0.683230 0.614620 0.500010 -0.615997
O7    O     O_R   0.316770 0.385380 0.499990 -0.615999
O8    O     O_R   0.499980 0.614680 0.367850 -0.583691
O9    O     O_R   0.500020 0.385320 0.632150 -0.583691
O10   O     O_R   0.500020 0.614680 0.632150 -0.602078
O11   O     O_R   0.499980 0.385320 0.367850 -0.602081
O12   O     O_2   0.767873 0.476010 0.707142 -0.622651
Zn1   Zn    Zn3+2 0.500000 0.653120 0.500000 1.025849
Zn2   Zn    Zn3+2 0.500000 0.346880 0.500000 1.025848

loop_
_geom_bond_atom_site_label_1
_geom_bond_atom_site_label_2
_ccdc_geom_bond_type
O11   Zn2   S    
C16   C22   A    
C13   C15   A    
N1    Zn1   S    
C20   C27   A    
C1    O7    A    
C8    O9    A    
C1    O1    A    
C27   H9    S    
C7    O8    A    
C24   C27   A    
C4    N1    A    
C3    C6    A    
O5    Zn2   S    
C10   C26   S    
C14   H1    S    
C28   C30   A    
O6    Zn1   S    
C9    C25   S    
C29   C31   A    
H4    O4    S    
C4    I2    S    
C8    O10   A    
C30   C32   A    
C9    C11   A    
C30   H12   S    
O9    Zn2   S    
C12   O6    A    
C6    I4    S    
C8    C11   S    
N2    Zn2   S    
C26   O4    S    
C2    C31   A    
C28   H10   S    
C5    I3    S    
C3    N2    A    
C1    C2    S    
C29   C32   A    
C18   C20   A    
C25   O12   D    
C21   C23   A    
C10   C21   A    
C11   C14   A    
O10   Zn1   S    
C5    N2    A    
C25   O2    S    
C12   O5    A    
C12   C32   S    
C23   H8    S    
C17   C24   A    
C26   O3    D    
C7    C13   S    
C24   H7    S    
C31   H2    S    
O7    Zn2   S    
C16   C18   A    
C18   C19   A    
C15   H5    S    
H3    O2    S    
C15   C17   A    
O1    Zn1   S    
C22   C23   A    
C7    O11   A    
C2    C28   A    
C9    C20   A    
C17   C19   A    
C14   C16   A    
C3    I1    S    
C29   H11   S    
C6    N1    A    
O8    Zn1   S    
C4    C5    A    
C19   C21   A    
C10   C13   A    
C22   H6    S    
