data_mof_unit_29147.cif
_audit_creation_date              2012-12-10T19:59:19-0500
_audit_creation_method            fapswitch 2.2
_symmetry_space_group_name_H-M    P1
_symmetry_Int_Tables_number       1
_space_group_crystal_system       triclinic
_cell_length_a                    15.009431
_cell_length_b                    14.140764
_cell_length_c                    10.666232
_cell_angle_alpha                 89.984969
_cell_angle_beta                  89.979322
_cell_angle_gamma                 89.991039
_cell_volume                      2263.85225441

loop_
_atom_site_label
_atom_site_type_symbol
_atom_type_description
_atom_site_fract_x
_atom_site_fract_y
_atom_site_fract_z
_atom_type_partial_charge
C1    C     C_R   0.327718 0.500003 0.499887 0.860987
C2    C     C_R   0.547734 0.104945 0.592303 -0.082032
C3    C     C_R   0.453015 0.204771 0.411214 -0.042080
C4    C     C_R   0.547070 0.204736 0.588710 -0.045563
C5    C     C_R   0.500080 0.053149 0.499961 0.012887
C6    C     C_R   0.579578 0.895275 0.485641 -0.269250
C7    C     C_R   0.420512 0.895347 0.514484 -0.269755
C8    C     C_R   0.578081 0.795857 0.485498 0.007050
C9    C     C_R   0.421948 0.795923 0.514548 0.008982
C10   C     C_R   0.500060 0.946547 0.500073 0.133972
C11   C     C_R   0.496984 0.500046 0.259736 0.887872
C12   C     C_R   0.672280 0.499993 0.499968 0.866439
C13   C     C_R   0.497034 0.500027 0.740273 0.887009
C14   C     C_R   0.479916 0.585932 0.063889 0.143728
C15   C     C_R   0.479882 0.585906 0.936056 0.133598
C16   C     C_R   0.481728 0.500421 0.128582 -0.109046
C17   C     C_R   0.481763 0.500387 0.871447 -0.109512
C18   C     C_R   0.465574 0.415377 0.064858 -0.226709
C19   C     C_R   0.465647 0.415353 0.935270 -0.223411
C20   C     C_3   0.540884 0.669337 0.928731 -0.484985
C21   C     C_3   0.541037 0.669305 0.070903 -0.495148
C22   C     C_R   0.093948 0.579336 0.542752 -0.180748
C23   C     C_R   0.186197 0.420359 0.455775 -0.196508
C24   C     C_R   0.905847 0.579257 0.454832 -0.180500
C25   C     C_R   0.185909 0.579599 0.542485 -0.198374
C26   C     C_R   0.813889 0.579556 0.456019 -0.202053
C27   C     C_R   0.231982 0.499987 0.499396 -0.018333
C28   C     C_R   0.768021 0.499952 0.499599 -0.021791
C29   C     C_R   0.403378 0.057423 0.304640 0.118356
C30   C     C_R   0.446943 0.993284 0.224588 -0.117924
C31   C     C_R   0.399980 0.948430 0.128300 -0.141957
C32   C     C_R   0.309677 0.968008 0.110130 -0.109424
C33   C     C_R   0.266140 0.032548 0.188172 -0.135320
C34   C     C_R   0.814018 0.420234 0.542578 -0.196738
C35   C     C_R   0.312712 0.077288 0.284938 -0.181039
C36   C     C_R   0.597057 0.057355 0.694922 0.119995
C37   C     C_R   0.553478 0.993919 0.775937 -0.120706
C38   C     C_R   0.600658 0.949110 0.872104 -0.141786
C39   C     C_R   0.691239 0.967848 0.888957 -0.107690
C40   C     C_R   0.734822 0.031611 0.809823 -0.135932
C41   C     C_R   0.687995 0.076438 0.713323 -0.178671
C42   C     C_R   0.094226 0.420553 0.454697 -0.182505
C43   C     C_R   0.905991 0.420392 0.542739 -0.182286
C44   C     C_R   0.048099 0.499918 0.498569 0.117566
C45   C     C_R   0.951907 0.499810 0.498582 0.118122
C46   C     C_R   0.452455 0.104969 0.407531 -0.081078
H1    H     H_    0.459601 0.348572 0.113921 0.170440
H2    H     H_    0.607032 0.651539 0.112069 0.202925
H3    H     H_    0.058645 0.640482 0.578523 0.128788
H4    H     H_    0.940985 0.640451 0.418878 0.128734
H5    H     H_    0.220842 0.641214 0.577486 0.141554
H6    H     H_    0.778788 0.641213 0.421402 0.140426
H7    H     H_    0.221381 0.358742 0.421138 0.146116
H8    H     H_    0.779005 0.358593 0.577484 0.146534
H9    H     H_    0.059138 0.359352 0.418745 0.128816
H10   H     H_    0.941245 0.359174 0.578395 0.128774
H11   H     H_    0.416862 0.244804 0.341222 0.128669
H12   H     H_    0.459783 0.348531 0.886283 0.174429
H13   H     H_    0.583255 0.244724 0.658672 0.134248
H14   H     H_    0.517180 0.978229 0.236435 0.125836
H15   H     H_    0.433533 0.898550 0.067627 0.114348
H16   H     H_    0.273485 0.933300 0.035428 0.119495
H17   H     H_    0.196212 0.047788 0.173846 0.124716
H18   H     H_    0.277958 0.126719 0.345177 0.120293
H19   H     H_    0.483067 0.979437 0.764955 0.125071
H20   H     H_    0.567062 0.899964 0.933760 0.120854
H21   H     H_    0.727599 0.933119 0.963515 0.120224
H22   H     H_    0.804964 0.046217 0.823137 0.124583
H23   H     H_    0.642324 0.931977 0.473696 0.140839
H24   H     H_    0.722746 0.125315 0.652272 0.120412
H25   H     H_    0.357784 0.932108 0.526392 0.140843
H26   H     H_    0.639800 0.757613 0.473550 0.125891
H27   H     H_    0.360206 0.757726 0.526451 0.126576
H28   H     H_    0.606816 0.651748 0.887186 0.207856
H29   H     H_    0.507849 0.732349 0.112099 0.203863
H30   H     H_    0.507381 0.732247 0.887671 0.201968
N1    N     N_R   0.500000 0.252470 0.500000 -0.099839
N2    N     N_R   0.500000 0.747550 0.500000 -0.090314
O1    O     O_R   0.369060 0.579480 0.500010 -0.636325
O2    O     O_R   0.630940 0.579480 0.499990 -0.636214
O3    O     O_R   0.369050 0.420520 0.500010 -0.623944
O4    O     O_R   0.630950 0.420520 0.499990 -0.619232
O5    O     O_R   0.499990 0.579490 0.316780 -0.613627
O6    O     O_R   0.500010 0.579490 0.683220 -0.613955
O7    O     O_R   0.499980 0.420540 0.316780 -0.627799
O8    O     O_R   0.500020 0.420540 0.683220 -0.629273
Zn1   Zn    Zn3+2 0.500000 0.606140 0.500000 0.939584
Zn2   Zn    Zn3+2 0.500000 0.393860 0.500000 0.939112

loop_
_geom_bond_atom_site_label_1
_geom_bond_atom_site_label_2
_ccdc_geom_bond_type
N2    Zn1   S    
C6    H23   S    
O5    Zn1   S    
C7    C10   A    
C31   H15   S    
O6    Zn1   S    
C18   H1    S    
O1    Zn1   S    
C13   O6    A    
C37   C38   A    
C23   C42   A    
C9    H27   S    
C12   C28   S    
C24   C45   A    
C14   C21   S    
C36   C37   A    
C24   C26   A    
O2    Zn1   S    
C7    H25   S    
C30   C31   A    
O8    Zn2   S    
C1    O3    A    
C20   H30   S    
C15   C17   A    
C18   C19   A    
C17   C19   A    
C22   C44   A    
C38   H20   S    
N1    Zn2   S    
C22   C25   A    
C30   H14   S    
C13   O8    A    
C35   H18   S    
C23   C27   A    
C21   H2    S    
C28   C34   A    
C8    N2    A    
C36   C41   A    
C42   C44   A    
C23   H7    S    
C19   H12   S    
C24   H4    S    
C15   C20   S    
C8    H26   S    
C12   O4    A    
C39   C40   A    
C6    C8    A    
C11   O5    A    
C37   H19   S    
C2    C4    A    
C25   H5    S    
C29   C30   A    
C26   H6    S    
C42   H9    S    
C11   C16   S    
C31   C32   A    
C33   H17   S    
C20   H28   S    
C43   C45   A    
C22   H3    S    
C3    H11   S    
C40   C41   A    
C34   H8    S    
C1    O1    A    
C14   C16   A    
C2    C5    A    
C3    N1    A    
C44   C45   S    
O7    Zn2   S    
C2    C36   S    
C7    C9    A    
C29   C35   A    
C39   H21   S    
C34   C43   A    
C6    C10   A    
C25   C27   A    
C5    C46   A    
C21   H29   S    
C3    C46   A    
C26   C28   A    
C13   C17   S    
C29   C46   S    
C32   C33   A    
C32   H16   S    
C5    C10   S    
C38   C39   A    
C11   O7    A    
O4    Zn2   S    
C12   O2    A    
C4    H13   S    
C33   C35   A    
C9    N2    A    
O3    Zn2   S    
C43   H10   S    
C4    N1    A    
C20   C21   S    
C16   C18   A    
C40   H22   S    
C1    C27   S    
C14   C15   A    
C41   H24   S    
