data_mof_unit_41274.cif
_audit_creation_date              2013-03-05T15:43:29-0500
_audit_creation_method            fapswitch 2.2
_symmetry_space_group_name_H-M    P1
_symmetry_Int_Tables_number       1
_space_group_crystal_system       triclinic
_cell_length_a                    13.991007
_cell_length_b                    16.861761
_cell_length_c                    7.167389
_cell_angle_alpha                 90.000046
_cell_angle_beta                  81.957245
_cell_angle_gamma                 90.000075
_cell_volume                      1674.24875636

loop_
_atom_site_label
_atom_site_type_symbol
_atom_site_description
_atom_site_fract_x
_atom_site_fract_y
_atom_site_fract_z
_atom_type_partial_charge
O1    O     O_R   0.337460 0.413110 0.524760 -0.548351
O2    O     O_R   0.662540 0.913110 0.475240 -0.548353
O3    O     O_R   0.348690 0.587910 0.191230 -0.507515
O4    O     O_R   0.651310 0.087910 0.808770 -0.507510
O5    O     O_R   0.166530 0.586890 0.082470 -0.551545
O6    O     O_R   0.833470 0.086890 0.917530 -0.551546
C1    C     C_R   0.372234 0.614408 0.355463 0.846348
C2    C     C_R   0.627767 0.114409 0.644536 0.846351
O7    O     O_R   0.348700 0.413830 0.191250 -0.551073
O8    O     O_R   0.651300 0.913830 0.808750 -0.551072
O9    O     O_R   0.166530 0.411570 0.082490 -0.523137
O10   O     O_R   0.833470 0.911570 0.917510 -0.523136
C3    C     C_R   0.370611 0.386876 0.354316 0.877388
C4    C     C_R   0.629390 0.886876 0.645683 0.877386
O11   O     O_R   0.337460 0.588430 0.524740 -0.534041
O12   O     O_R   0.662540 0.088430 0.475260 -0.534043
O13   O     O_3   0.192230 0.499460 0.407330 -0.220447
O14   O     O_3   0.807770 0.999460 0.592670 -0.220448
V1    V     V_3+5 0.263080 0.500100 0.108540 1.367152
V2    V     V_3+5 0.736920 0.000100 0.891460 1.367153
O15   O     O_R   0.155290 0.412090 0.756570 -0.481365
O16   O     O_R   0.844710 0.912090 0.243430 -0.481365
C5    C     C_R   0.130268 0.384832 0.933373 0.951838
C6    C     C_R   0.869732 0.884832 0.066627 0.951839
O17   O     O_R   0.155290 0.586170 0.756550 -0.494147
O18   O     O_R   0.844710 0.086170 0.243450 -0.494146
C7    C     C_R   0.132459 0.613790 0.928689 0.992639
C8    C     C_R   0.867541 0.113790 0.071311 0.992643
V3    V     V_3+5 0.240910 0.499900 0.616030 1.410208
V4    V     V_3+5 0.759090 0.999900 0.383970 1.410206
O19   O     O_3   0.311760 0.500540 0.867100 -0.276786
O20   O     O_3   0.688240 0.000540 0.132900 -0.276788
C9    C     C_3   0.110881 0.749374 0.063584 0.154704
C10   C     C_3   0.889119 0.249373 0.936415 0.154705
H1    H     H_    0.113309 0.722055 0.203504 0.163797
H2    H     H_    0.886692 0.222054 0.796494 0.163795
C11   C     C_3   0.047512 0.826406 0.092975 0.521494
C12   C     C_3   0.952487 0.326406 0.907024 0.521494
H3    H     H_    0.986774 0.643691 0.216202 0.185414
H4    H     H_    0.013226 0.143691 0.783799 0.185413
C13   C     C_3   0.967944 0.663327 0.078112 0.157503
C14   C     C_3   0.032055 0.163327 0.921889 0.157504
C15   C     C_3   0.041452 0.724927 0.754779 0.529323
C16   C     C_3   0.958547 0.224927 0.245221 0.529323
C17   C     C_3   0.064211 0.686265 0.949399 -0.435144
C18   C     C_3   0.935789 0.186265 0.050601 -0.435147
C19   C     C_3   0.942039 0.813208 0.023941 -0.472481
C20   C     C_3   0.057960 0.313208 0.976058 -0.472481
C21   C     C_3   0.894182 0.732880 0.107546 0.141462
C22   C     C_3   0.105817 0.232880 0.892453 0.141463
C23   C     C_3   0.961926 0.796892 0.799651 0.451470
C24   C     C_3   0.038073 0.296893 0.200348 0.451471
H5    H     H_    0.836410 0.718983 0.028605 0.181948
H6    H     H_    0.163590 0.218984 0.971395 0.181947
H7    H     H_    0.567421 0.806162 0.363497 0.152092
H8    H     H_    0.432579 0.306161 0.636502 0.152092
C25   C     C_2   0.442254 0.681900 0.351824 0.184844
C26   C     C_2   0.557748 0.181902 0.648173 0.184843
C27   C     C_2   0.476904 0.709951 0.509562 0.324564
C28   C     C_2   0.523104 0.209956 0.490433 0.324563
H9    H     H_    0.534929 0.797243 0.794953 0.201040
H10   H     H_    0.465074 0.297248 0.205045 0.201041
C29   C     C_2   0.563126 0.818466 0.655803 -0.083815
C30   C     C_2   0.436877 0.318468 0.344196 -0.083814
C31   C     C_2   0.539554 0.782049 0.500608 0.000877
C32   C     C_2   0.460449 0.282051 0.499390 0.000870
N1    N     N_R   0.869312 0.779860 0.720555 0.126579
O21   O     O_R   0.823940 0.712312 0.738072 -0.234258
O22   O     O_R   0.832247 0.833070 0.620520 -0.228466
N2    N     N_R   0.130687 0.279860 0.279444 0.126579
O23   O     O_R   0.176059 0.212312 0.261928 -0.234261
O24   O     O_R   0.167752 0.333070 0.379480 -0.228465
Cl1   Cl    Cl    0.909238 0.580579 0.995448 -0.368662
Cl2   Cl    Cl    0.090762 0.080579 0.004554 -0.368664
Cl3   Cl    Cl    0.456713 0.660114 0.729974 -0.489735
Cl4   Cl    Cl    0.543311 0.160129 0.270008 -0.489725
N3    N     N_R   0.474074 0.718242 0.173570 0.083067
O25   O     O_R   0.555932 0.696006 0.079351 -0.281701
O26   O     O_R   0.436438 0.785462 0.132775 -0.274615
N4    N     N_R   0.525924 0.218240 0.826430 0.083068
O27   O     O_R   0.444074 0.195989 0.920659 -0.281685
O28   O     O_R   0.563547 0.285465 0.867227 -0.274628
Cl5   Cl    Cl    0.239680 0.762360 0.999391 -0.390661
Cl6   Cl    Cl    0.760319 0.262360 0.000603 -0.390652
Cl7   Cl    Cl    0.117557 0.907736 0.986488 -0.294733
Cl8   Cl    Cl    0.882443 0.407735 0.013511 -0.294732
N5    N     N_R   0.037922 0.843616 0.291179 0.124283
O29   O     O_R   0.989516 0.792750 0.400242 -0.342443
O30   O     O_R   0.109380 0.880051 0.353526 -0.125499
N6    N     N_R   0.962077 0.343616 0.708820 0.124284
O31   O     O_R   0.010484 0.292750 0.599758 -0.342442
O32   O     O_R   0.890619 0.380050 0.646473 -0.125499
N7    N     N_R   0.836298 0.732967 0.294831 0.172444
O33   O     O_R   0.831353 0.667369 0.391170 -0.158219
O34   O     O_R   0.759829 0.777546 0.319713 -0.331548
N8    N     N_R   0.163701 0.232967 0.705168 0.172443
O35   O     O_R   0.168646 0.167369 0.608830 -0.158222
O36   O     O_R   0.240171 0.277546 0.680285 -0.331551
Cl9   Cl    Cl    0.996007 0.646871 0.614416 -0.407417
Cl10  Cl    Cl    0.003992 0.146872 0.385585 -0.407419
N9    N     N_R   0.133196 0.750923 0.638655 0.144994
O37   O     O_R   0.176536 0.705302 0.506612 -0.307505
O38   O     O_R   0.176919 0.816475 0.669043 -0.173173
N10   N     N_R   0.866803 0.250924 0.361344 0.144995
O39   O     O_R   0.823463 0.205303 0.493387 -0.307506
O40   O     O_R   0.823080 0.316475 0.330953 -0.173172
Cl11  Cl    Cl    0.002023 0.891984 0.693256 -0.358994
Cl12  Cl    Cl    0.997976 0.391984 0.306743 -0.358994

loop_
_geom_bond_atom_site_label_1
_geom_bond_atom_site_label_2
_geom_bond_distance
_ccdc_geom_bond_type
N5    O29   1.287330 A    
C29   C31   1.351215 D    
N9    O37   1.301742 A    
C9    C17   1.542084 S    
O4    C2    1.342488 A    
V1    O19   1.768823 S    
N10   O40   1.296394 A    
C16   N10   1.494507 S    
C19   C21   1.590500 S    
N3    O25   1.300713 A    
C8    C18   1.545177 S    
N7    O33   1.300630 A    
C12   Cl8   1.792822 S    
C11   Cl7   1.792823 S    
C15   Cl9   1.824179 S    
O3    C1    1.342484 A    
H8    C32   1.084368 S    
C25   C27   1.374872 D    
O12   V4    2.057647 S    
O13   V3    1.728158 S    
C14   C18   1.570677 S    
O9    C5    1.324643 A    
H9    C29   1.080866 S    
O7    C3    1.329209 A    
H10   C30   1.080865 S    
C2    C26   1.499458 S    
O5    C7    1.339718 A    
O7    V1    2.025137 S    
O6    C8    1.339717 A    
O8    V2    2.025135 S    
N8    O36   1.299271 A    
O3    V1    2.043727 S    
N2    O23   1.301428 A    
C10   C18   1.542085 S    
C11   C19   1.635932 S    
C12   C20   1.635932 S    
C26   N4    1.430680 S    
C16   C24   1.647358 S    
C20   C22   1.590499 S    
C28   C32   1.494861 S    
C2    O12   1.317357 A    
C10   Cl6   1.809686 S    
C13   C21   1.556933 S    
N10   O39   1.301742 A    
H7    C31   1.084368 S    
C16   C18   1.611352 S    
O11   V3    2.057644 S    
N3    O26   1.300205 A    
O17   V3    2.056164 S    
C14   Cl2   1.763141 S    
N1    O21   1.301427 A    
C25   N3    1.430680 S    
H3    C13   1.109770 S    
O8    C4    1.329209 A    
N4    O27   1.300721 A    
C19   C23   1.616240 S    
O15   V3    2.074672 S    
C28   Cl4   1.776749 S    
C9    C11   1.570131 S    
N1    O22   1.300788 A    
C30   C32   1.351214 D    
C15   N9    1.494507 S    
C9    Cl5   1.809683 S    
N6    O32   1.304474 A    
V3    O19   2.172584 S    
O9    V1    2.039250 S    
N8    O35   1.300628 A    
O10   V2    2.039252 S    
O1    V3    2.036429 S    
C23   N1    1.512752 S    
C15   C17   1.611353 S    
C14   C22   1.556935 S    
O14   V4    1.728158 S    
N4    O28   1.300209 A    
O18   V4    2.056162 S    
O15   C5    1.347409 A    
O16   C6    1.347409 A    
O1    C3    1.320846 A    
O13   V1    2.230452 S    
C27   Cl3   1.776741 S    
V2    O20   1.768823 S    
C12   N6    1.437705 S    
C5    C20   1.577655 S    
O16   V4    2.074674 S    
C10   C12   1.570132 S    
C6    C19   1.577655 S    
C11   N5    1.437706 S    
H4    C14   1.109770 S    
O5    V1    2.017902 S    
O17   C7    1.315627 A    
O6    V2    2.017900 S    
O10   C6    1.324644 A    
O18   C8    1.315628 A    
C22   N8    1.467501 S    
N9    O38   1.296394 A    
O2    V4    2.036428 S    
N5    O30   1.304474 A    
C22   H6    1.075344 S    
C27   C31   1.494862 S    
V4    O20   2.172586 S    
C16   Cl10  1.824179 S    
C7    C17   1.545182 S    
N6    O31   1.287329 A    
N7    O34   1.299270 A    
C3    C30   1.475308 S    
C15   C23   1.647358 S    
C21   H5    1.075343 S    
C4    C29   1.475312 S    
C1    O11   1.317360 A    
C9    H1    1.108432 S    
C10   H2    1.108432 S    
O14   V2    2.230450 S    
O2    C4    1.320847 A    
C24   N2    1.512752 S    
C13   Cl1   1.763141 S    
O4    V2    2.043729 S    
C20   C24   1.616241 S    
C24   Cl12  1.829603 S    
C23   Cl11  1.829605 S    
C13   C17   1.570675 S    
N2    O24   1.300788 A    
C21   N7    1.467500 S    
C26   C28   1.374876 D    
C1    C25   1.499458 S    
