data_mof_unit_25629.cif
_audit_creation_date              2012-12-11T14:58:20-0500
_audit_creation_method            fapswitch 2.2
_symmetry_space_group_name_H-M    P1
_symmetry_Int_Tables_number       1
_space_group_crystal_system       triclinic
_cell_length_a                    10.894253
_cell_length_b                    10.970315
_cell_length_c                    18.767942
_cell_angle_alpha                 90.285878
_cell_angle_beta                  90.458494
_cell_angle_gamma                 59.988715
_cell_volume                      1942.22819569

loop_
_atom_site_label
_atom_site_type_symbol
_atom_type_description
_atom_site_fract_x
_atom_site_fract_y
_atom_site_fract_z
_atom_type_partial_charge
C1    C     C_R   0.357646 0.774881 0.397892 0.536250
C2    C     C_R   0.622103 0.134665 0.158827 0.025678
C3    C     C_R   0.365691 0.337533 0.159536 0.002020
C4    C     C_R   0.505691 0.266119 0.267666 -0.160849
C5    C     C_R   0.497032 0.251286 0.194643 -0.028883
C6    C     C_R   0.064052 0.707105 0.284488 -0.086597
C7    C     C_R   0.939044 0.810051 0.316454 -0.095662
C8    C     C_R   0.673573 0.995714 0.181813 -0.052206
C9    C     C_R   0.773493 0.882361 0.141445 0.090159
C10   C     C_R   0.253146 0.445157 0.197296 -0.154401
C11   C     C_R   0.260168 0.458276 0.270766 -0.033484
C12   C     C_R   0.414112 0.376602 0.382468 0.546777
C13   C     C_R   0.878410 0.773623 0.371538 -0.101423
C14   C     C_R   0.941383 0.633857 0.393824 -0.094115
C15   C     C_R   0.062827 0.529882 0.359885 -0.041524
C16   C     C_R   0.128265 0.566365 0.306400 0.060723
C17   C     C_R   0.388936 0.365538 0.306663 -0.002113
C18   C     C_R   0.954985 0.305163 0.307965 -0.153169
C19   C     C_R   0.983549 0.300054 0.235796 -0.086648
C20   C     C_R   0.874224 0.336135 0.185741 0.064654
C21   C     C_R   0.734250 0.393119 0.207151 -0.144490
C22   C     C_R   0.704822 0.406701 0.279349 -0.118091
C23   C     C_R   0.777906 0.378839 0.403230 0.529169
C24   C     C_R   0.815675 0.357459 0.329394 0.034260
C25   C     C_R   0.450960 0.831335 0.289920 -0.149255
C26   C     C_R   0.429565 0.874152 0.218868 -0.170515
C27   C     C_R   0.293372 0.936174 0.188928 0.045187
C28   C     C_R   0.176309 0.962762 0.232443 0.073415
C29   C     C_R   0.198625 0.925532 0.303877 -0.126357
C30   C     C_R   0.335503 0.852047 0.331597 0.003534
C31   C     C_R   0.465278 0.274475 0.716671 -0.126258
C32   C     C_R   0.448128 0.272437 0.788782 -0.139234
C33   C     C_R   0.311872 0.333667 0.816629 0.029523
C34   C     C_R   0.343531 0.771535 0.604052 0.559154
C35   C     C_R   0.192182 0.408866 0.772656 -0.132008
C36   C     C_R   0.209764 0.413998 0.699721 -0.141408
C37   C     C_R   0.346444 0.341795 0.671554 0.031418
C38   C     C_R   0.740152 0.474175 0.731882 -0.124828
C39   C     C_R   0.753189 0.459670 0.804685 -0.135380
C40   C     C_R   0.816415 0.326256 0.835321 0.022054
C41   C     C_R   0.853359 0.207460 0.792336 -0.139870
C42   C     C_R   0.837435 0.222337 0.718522 -0.152131
C43   C     C_R   0.785989 0.355577 0.688012 0.024585
C44   C     C_R   0.208394 0.822505 0.714206 -0.171077
C45   C     C_R   0.372749 0.352341 0.597461 0.547324
C46   C     C_R   0.203783 0.831132 0.787295 -0.172410
C47   C     C_R   0.309031 0.841640 0.824905 0.018461
C48   C     C_R   0.423866 0.839678 0.787607 0.106076
C49   C     C_R   0.421967 0.841799 0.713084 0.126649
C50   C     C_R   0.318580 0.824131 0.676762 0.025243
C51   C     C_R   0.910873 0.316540 0.111758 0.538127
C52   C     C_R   0.330649 0.295465 0.091474 0.531869
C53   C     C_R   0.270571 0.963932 0.112148 0.586491
C54   C     C_R   0.879534 0.309809 0.905639 0.540280
C55   C     C_R   0.296524 0.290991 0.886687 0.549251
C56   C     C_R   0.757866 0.379806 0.612095 0.542669
C57   C     C_R   0.277864 0.892177 0.898112 0.555191
C58   C     C_R   0.828600 0.907810 0.079641 -0.110515
C59   C     C_R   0.782250 0.045882 0.058092 -0.093028
C60   C     C_R   0.679392 0.159200 0.097383 -0.060728
Cr1   Cr    Cr6+3 0.601770 0.606860 0.505860 1.014032
Cr2   Cr    Cr6+3 0.291380 0.601660 0.495070 1.017165
Cr3   Cr    Cr6+3 0.606880 0.291510 0.499120 1.002753
Cr4   Cr    Cr6+3 0.062440 0.063090 0.008210 0.992540
Cr5   Cr    Cr6+3 0.062880 0.375170 0.998920 0.995637
Cr6   Cr    Cr6+3 0.374700 0.061720 0.992470 1.005759
H1    H     H_    0.605985 0.198787 0.294378 0.132827
H2    H     H_    0.783289 0.853747 0.397242 0.109380
H3    H     H_    0.897472 0.606637 0.438238 0.138302
H4    H     H_    0.110828 0.422278 0.378068 0.108761
H5    H     H_    0.040298 0.267822 0.346607 0.097066
H6    H     H_    0.091817 0.260572 0.218694 0.121308
H7    H     H_    0.648891 0.428152 0.168528 0.104065
H8    H     H_    0.558375 0.773231 0.310511 0.153631
H9    H     H_    0.520207 0.849104 0.186045 0.158914
H10   H     H_    0.109346 0.943588 0.336421 0.130568
H11   H     H_    0.572444 0.223881 0.696391 0.144852
H12   H     H_    0.085846 0.455984 0.793871 0.140110
H13   H     H_    0.117885 0.470593 0.665425 0.122467
H14   H     H_    0.694478 0.579131 0.710035 0.179517
H15   H     H_    0.725217 0.551623 0.836787 0.142214
H16   H     H_    0.903512 0.102770 0.815042 0.131634
H17   H     H_    0.868459 0.130379 0.685444 0.118530
H18   H     H_    0.127246 0.809677 0.687251 0.145342
H19   H     H_    0.889455 0.918252 0.299103 0.096872
H20   H     H_    0.114970 0.833463 0.814171 0.136223
H21   H     H_    0.640115 0.265437 0.078326 0.094943
H22   H     H_    0.111804 0.735636 0.242474 0.105038
H23   H     H_    0.630477 0.975480 0.229167 0.121003
O1    O     O_R   0.748800 0.497470 0.428000 -0.529675
O2    O     O_R   0.300070 0.471040 0.567100 -0.497976
O3    O     O_R   0.491670 0.258900 0.574910 -0.524259
O4    O     O_R   0.718780 0.304180 0.577850 -0.506620
O5    O     O_3   0.500010 0.500010 0.500020 -0.264371
O6    O     O_R   0.186690 0.923650 0.086970 -0.502743
O7    O     O_R   0.957250 0.194250 0.084630 -0.495077
O8    O     O_R   0.934970 0.407490 0.085330 -0.531102
O9    O     O_R   0.203780 0.365190 0.067090 -0.512977
O10   O     O_R   0.417600 0.174890 0.067840 -0.512109
O11   O     O_R   0.375320 0.946260 0.070860 -0.509276
O12   O     O_R   0.476420 0.724060 0.429470 -0.507872
O13   O     O_R   0.160600 0.919630 0.926660 -0.527545
O14   O     O_R   0.933060 0.190520 0.936020 -0.523868
O15   O     O_R   0.908880 0.403460 0.925020 -0.522041
O16   O     O_R   0.179600 0.361450 0.918490 -0.500664
O17   O     O_R   0.391510 0.170860 0.907530 -0.537068
O18   O     O_R   0.351130 0.942530 0.922260 -0.504605
O19   O     O_3   0.166667 0.166667 0.999870 -0.260724
O20   O     O_R   0.264580 0.744340 0.416750 -0.518145
O21   O     O_R   0.309380 0.472470 0.418200 -0.498602
O22   O     O_R   0.501710 0.260430 0.414300 -0.521311
O23   O     O_R   0.728090 0.305600 0.428960 -0.516511
O24   O     O_R   0.738760 0.495930 0.588610 -0.519324
O25   O     O_R   0.467110 0.722640 0.578360 -0.465169
O26   O     O_R   0.254530 0.742800 0.577360 -0.532515
H24   H     H_    0.595614 0.456559 0.296509 0.111672
N1    N     N_3   0.035967 0.018203 0.203138 -0.592998
H25   H     H_    0.959903 0.062493 0.243203 0.214749
H26   H     H_    0.026700 0.935225 0.181755 0.245194
N2    N     N_3   0.812747 0.742042 0.161726 -0.635727
H27   H     H_    0.922924 0.683970 0.165486 0.231822
H28   H     H_    0.782142 0.698150 0.120555 0.247720
H29   H     H_    0.541320 0.215716 0.822326 0.125937
N3    N     N_3   0.542927 0.835365 0.823696 -0.661862
H30   H     H_    0.569475 0.772941 0.869356 0.235005
H31   H     H_    0.518226 0.937677 0.836893 0.272455
N4    N     N_3   0.524142 0.860770 0.673344 -0.601667
H32   H     H_    0.468477 0.956734 0.646398 0.223609
H33   H     H_    0.597694 0.868884 0.705974 0.249178
H34   H     H_    0.905782 0.820758 0.047922 0.101081
H35   H     H_    0.823270 0.064909 0.009771 0.137006
H36   H     H_    0.153458 0.511742 0.170467 0.129992

loop_
_geom_bond_atom_site_label_1
_geom_bond_atom_site_label_2
_ccdc_geom_bond_type
C33   C55   S    
Cr4   O14   S    
C51   O8    A    
C53   O6    A    
C41   C42   A    
C35   C36   A    
Cr6   O18   S    
C12   O21   A    
C29   H10   S    
Cr1   O1    S    
Cr4   O13   S    
C57   O13   A    
Cr3   O5    S    
C59   H35   S    
C26   C27   A    
C55   O16   A    
C18   C24   A    
C54   O15   A    
C36   C37   A    
Cr5   O9    S    
C9    C58   A    
C20   C51   S    
C28   N1    S    
N1    H26   S    
C38   C39   A    
C2    C60   A    
C15   C16   A    
C21   H7    S    
C18   H5    S    
C6    H22   S    
C18   C19   A    
Cr6   O11   S    
Cr3   O23   S    
C45   O3    A    
C1    O20   A    
C31   C32   A    
N2    H28   S    
C8    C9    A    
C12   C17   S    
C56   O24   A    
Cr4   O19   S    
Cr5   O19   S    
C51   O7    A    
C22   H24   S    
C59   C60   A    
C21   C22   A    
C32   H29   S    
C19   H6    S    
Cr6   O17   S    
Cr5   O16   S    
C25   C26   A    
C60   H21   S    
C44   C46   A    
C31   H11   S    
C53   O11   A    
C56   O4    A    
C49   N4    S    
C34   C50   S    
C55   O17   A    
C54   O14   A    
Cr4   O7    S    
C39   C40   A    
Cr1   O5    S    
C3    C5    A    
C34   O26   A    
C31   C37   A    
Cr6   O10   S    
Cr3   O3    S    
Cr1   O12   S    
N4    H33   S    
C29   C30   A    
C23   O23   A    
C47   C57   S    
C11   C16   S    
C47   C48   A    
Cr2   O21   S    
C7    C13   A    
C23   C24   S    
Cr2   O2    S    
C26   H9    S    
C23   O1    A    
C39   H15   S    
C4    C17   A    
C48   C49   A    
C57   O18   A    
C40   C54   S    
Cr2   O5    S    
Cr1   O24   S    
C14   H3    S    
C22   C24   A    
C2    C5    S    
C42   C43   A    
C37   C45   S    
N4    H32   S    
C28   C29   A    
C1    O12   A    
C27   C28   A    
N2    H27   S    
N3    H31   S    
C44   C50   A    
C25   C30   A    
C15   H4    S    
C46   C47   A    
C11   C17   A    
C52   O10   A    
C2    C8    A    
C42   H17   S    
Cr4   O6    S    
Cr6   O19   S    
C4    C5    A    
C44   H18   S    
C36   H13   S    
C48   N3    S    
C4    H1    S    
C3    C52   S    
C27   C53   S    
C6    C7    A    
C34   O25   A    
Cr3   O4    S    
C35   H12   S    
C25   H8    S    
C32   C33   A    
C19   C20   A    
C58   C59   A    
Cr5   O8    S    
C38   C43   A    
C3    C10   A    
N1    H25   S    
C7    H19   S    
Cr2   O20   S    
C38   H14   S    
C58   H34   S    
C41   H16   S    
C52   O9    A    
C1    C30   S    
C33   C35   A    
Cr3   O22   S    
C45   O2    A    
C10   H36   S    
C10   C11   A    
C6    C16   A    
C43   C56   S    
Cr2   O26   S    
C20   C21   A    
C49   C50   A    
Cr1   O25   S    
C9    N2    S    
C14   C15   A    
C40   C41   A    
C8    H23   S    
Cr5   O15   S    
C13   C14   A    
C12   O22   A    
N3    H30   S    
C46   H20   S    
C13   H2    S    
