data_mof_unit_33529.cif
_audit_creation_date              2012-12-11T14:36:08-0500
_audit_creation_method            fapswitch 2.2
_symmetry_space_group_name_H-M    P1
_symmetry_Int_Tables_number       1
_space_group_crystal_system       triclinic
_cell_length_a                    14.699278
_cell_length_b                    15.963723
_cell_length_c                    6.988818
_cell_angle_alpha                 89.999948
_cell_angle_beta                  81.056362
_cell_angle_gamma                 89.999974
_cell_volume                      1620.02342365

loop_
_atom_site_label
_atom_site_type_symbol
_atom_type_description
_atom_site_fract_x
_atom_site_fract_y
_atom_site_fract_z
_atom_type_partial_charge
O1    O     O_R   0.337460 0.413110 0.524760 -0.534307
O2    O     O_R   0.662540 0.913110 0.475240 -0.534309
O3    O     O_R   0.348690 0.587910 0.191230 -0.545129
O4    O     O_R   0.651310 0.087910 0.808770 -0.545128
O5    O     O_R   0.166530 0.586890 0.082470 -0.552519
O6    O     O_R   0.833470 0.086890 0.917530 -0.552516
C1    C     C_R   0.369921 0.616101 0.353659 0.702265
C2    C     C_R   0.630078 0.116100 0.646341 0.702272
O7    O     O_R   0.348700 0.413830 0.191250 -0.504297
O8    O     O_R   0.651300 0.913830 0.808750 -0.504301
O9    O     O_R   0.166530 0.411570 0.082490 -0.514154
O10   O     O_R   0.833470 0.911570 0.917510 -0.514153
C3    C     C_R   0.370392 0.385069 0.354834 0.793120
C4    C     C_R   0.629609 0.885068 0.645166 0.793110
O11   O     O_R   0.337460 0.588430 0.524740 -0.559173
O12   O     O_R   0.662540 0.088430 0.475260 -0.559173
O13   O     O_3   0.192230 0.499460 0.407330 -0.355574
O14   O     O_3   0.807770 0.999460 0.592670 -0.355584
V1    V     V_3+5 0.263080 0.500100 0.108540 1.634644
V2    V     V_3+5 0.736920 0.000100 0.891460 1.634639
O15   O     O_R   0.155290 0.412090 0.756570 -0.507605
O16   O     O_R   0.844710 0.912090 0.243430 -0.507612
C5    C     C_R   0.132644 0.382804 0.933711 0.850166
C6    C     C_R   0.867358 0.882805 0.066289 0.850169
O17   O     O_R   0.155290 0.586170 0.756550 -0.537420
O18   O     O_R   0.844710 0.086170 0.243450 -0.537432
C7    C     C_R   0.135326 0.616853 0.931391 0.730456
C8    C     C_R   0.864673 0.116854 0.068610 0.730521
V3    V     V_3+5 0.240910 0.499900 0.616030 1.627440
V4    V     V_3+5 0.759090 0.999900 0.383970 1.627414
O19   O     O_3   0.311760 0.500540 0.867100 -0.371426
O20   O     O_3   0.688240 0.000540 0.132900 -0.371428
C9    C     C_3   0.085613 0.747604 0.126118 -0.404261
C10   C     C_3   0.914362 0.247626 0.873958 -0.404330
H1    H     H_    0.080780 0.713411 0.266151 0.188052
H2    H     H_    0.919140 0.213450 0.733930 0.187999
H3    H     H_    0.157332 0.771635 0.090543 0.193415
H4    H     H_    0.842662 0.271674 0.909632 0.193476
C11   C     C_3   0.017558 0.822409 0.151516 -0.279386
C12   C     C_3   0.982439 0.322412 0.848500 -0.279405
H5    H     H_    0.056155 0.881300 0.111899 0.241829
H6    H     H_    0.943865 0.381315 0.888078 0.241823
H7    H     H_    0.989480 0.830131 0.304484 0.246852
H8    H     H_    0.010515 0.330105 0.695526 0.246846
H9    H     H_    0.967587 0.614929 0.165219 0.193783
H10   H     H_    0.032388 0.114975 0.834655 0.193787
C13   C     C_3   0.966402 0.650744 0.028959 0.218218
C14   C     C_3   0.033590 0.150748 0.970952 0.218269
C15   C     C_3   0.064588 0.741255 0.778277 -0.334069
C16   C     C_3   0.935446 0.241229 0.221744 -0.334136
C17   C     C_3   0.064306 0.687271 0.964013 -0.118639
C18   C     C_3   0.935693 0.187271 0.035987 -0.118674
H11   H     H_    0.054648 0.700658 0.654023 0.201108
H12   H     H_    0.945430 0.200615 0.345925 0.201141
H13   H     H_    0.134066 0.769683 0.738252 0.180854
H14   H     H_    0.865970 0.269638 0.261868 0.180859
C19   C     C_3   0.939341 0.811567 0.026951 -0.184789
C20   C     C_3   0.060662 0.311565 0.973052 -0.184791
C21   C     C_3   0.893510 0.722281 0.064815 0.192898
C22   C     C_3   0.106488 0.222278 0.935167 0.192872
C23   C     C_3   0.988984 0.810977 0.810109 0.504703
C24   C     C_3   0.011029 0.310967 0.189901 0.504704
H15   H     H_    0.841718 0.713517 0.967334 0.202991
H16   H     H_    0.158262 0.213498 0.032679 0.203004
H17   H     H_    0.437967 0.689460 0.642640 0.182597
H18   H     H_    0.562035 0.189463 0.357362 0.182598
C25   C     C_2   0.439204 0.682240 0.342068 -0.234974
C26   C     C_2   0.560796 0.182238 0.657934 -0.234967
C27   C     C_2   0.468506 0.712814 0.501384 -0.109712
C28   C     C_2   0.531496 0.212816 0.498618 -0.109715
C29   C     C_2   0.556904 0.820489 0.650518 0.162263
C30   C     C_2   0.443098 0.320491 0.349484 0.162260
C31   C     C_2   0.543263 0.775590 0.490410 0.253271
C32   C     C_2   0.456742 0.275595 0.509593 0.253278
H19   H     H_    0.466666 0.704836 0.198946 0.228866
H20   H     H_    0.533333 0.204832 0.801057 0.228866
Br1   Br    Br    0.900329 0.789312 0.638472 -0.443672
Br2   Br    Br    0.099694 0.289321 0.361529 -0.443712
Cl1   Cl    Cl    0.934858 0.576284 0.857722 -0.541588
Cl2   Cl    Cl    0.065144 0.076242 0.142049 -0.541650
Br3   Br    Br    0.621672 0.784864 0.239850 -0.394885
Br4   Br    Br    0.378343 0.284880 0.760161 -0.394857
Cl3   Cl    Cl    0.480547 0.810837 0.871166 -0.635820
Cl4   Cl    Cl    0.519454 0.310836 0.128834 -0.635813
Cl5   Cl    Cl    0.824290 0.708066 0.293963 -0.496199
Cl6   Cl    Cl    0.175733 0.208076 0.706047 -0.496217
Cl7   Cl    Cl    0.039950 0.910721 0.736786 -0.570083
Cl8   Cl    Cl    0.960041 0.410700 0.263227 -0.570114

loop_
_geom_bond_atom_site_label_1
_geom_bond_atom_site_label_2
_ccdc_geom_bond_type
C20   C24   S    
C5    C20   S    
O11   V3    S    
O13   V3    S    
C4    C29   S    
C13   Cl1   S    
O4    C2    A    
V1    O19   S    
C11   H5    S    
O9    V1    S    
C16   H12   S    
C10   C12   S    
O3    C1    A    
H17   C27   S    
C19   C21   S    
C20   C22   S    
C11   C19   S    
O7    C3    A    
C10   C18   S    
C23   Cl7   S    
O13   V1    S    
O5    C7    A    
O7    V1    S    
O6    C8    A    
O8    V2    S    
C6    C19   S    
C15   C17   S    
C28   C32   S    
C16   C18   S    
O3    V1    S    
O14   V4    S    
C10   H2    S    
C1    O11   A    
C2    O12   A    
C32   Br4   S    
C31   Br3   S    
C7    C17   S    
C14   C22   S    
C29   Cl3   S    
H9    C13   S    
O17   V3    S    
H10   C14   S    
C13   C21   S    
C15   C23   S    
C12   C20   S    
C30   C32   D    
O8    C4    A    
C23   Br1   S    
C29   C31   D    
C22   Cl6   S    
C13   C17   S    
C15   H13   S    
C24   Cl8   S    
C9    H3    S    
C25   C27   D    
C21   Cl5   S    
C12   H8    S    
O10   V2    S    
O1    V3    S    
C9    C11   S    
C26   H20   S    
C27   C31   S    
C30   Cl4   S    
C2    C26   S    
O15   C5    A    
O17   C7    A    
C16   C24   S    
O16   C6    A    
C25   H19   S    
V2    O20   S    
O16   V4    S    
C10   H4    S    
C21   H15   S    
C24   Br2   S    
C12   H6    S    
C11   H7    S    
C19   C23   S    
O5    V1    S    
C3    C30   S    
C9    C17   S    
O6    V2    S    
O10   C6    A    
O18   C8    A    
O2    V4    S    
C22   H16   S    
C14   Cl2   S    
V3    O19   S    
V4    O20   S    
C8    C18   S    
H18   C28   S    
O15   V3    S    
C15   H11   S    
O9    C5    A    
C9    H1    S    
O14   V2    S    
O2    C4    A    
C16   H14   S    
C1    C25   S    
O4    V2    S    
C14   C18   S    
O1    C3    A    
C26   C28   D    
O12   V4    S    
O18   V4    S    
