data_mof_unit_57797.cif
_audit_creation_date              2012-10-26T20:18:15-0400
_audit_creation_method            fapswitch 2.2
_symmetry_space_group_name_H-M    P1
_symmetry_Int_Tables_number       1
_space_group_crystal_system       triclinic
_cell_length_a                    23.500782
_cell_length_b                    8.680397
_cell_length_c                    7.439238
_cell_angle_alpha                 102.997711
_cell_angle_beta                  94.145642
_cell_angle_gamma                 92.362972
_cell_volume                      1472.24219126

loop_
_atom_site_label
_atom_site_type_symbol
_atom_type_description
_atom_site_fract_x
_atom_site_fract_y
_atom_site_fract_z
_atom_type_partial_charge
C1    C     C_R   0.498278 0.199663 0.453203 0.551612
C2    C     C_R   0.708066 0.549102 0.656168 0.394836
C3    C     C_R   0.241913 0.458454 0.651199 0.020359
C4    C     C_R   0.766984 0.548799 0.648984 0.012802
C5    C     C_R   0.209158 0.499509 0.506158 0.140025
C6    C     C_R   0.790853 0.503348 0.479605 0.135329
C7    C     C_2   0.497447 0.031752 0.426846 -0.131271
C8    C     C_2   0.502536 0.968247 0.573157 -0.128215
C9    C     C_R   0.391014 0.499706 0.502513 0.575570
C10   C     C_R   0.609087 0.501142 0.497675 0.571291
C11   C     C_R   0.883516 0.643583 0.518884 0.396522
C12   C     C_R   0.501716 0.800337 0.546798 0.547175
C13   C     C_R   0.116706 0.358354 0.470850 0.396668
C14   C     C_R   0.877189 0.360432 0.449714 0.396636
C15   C     C_R   0.123075 0.641534 0.551640 0.405241
C16   C     C_R   0.936856 0.356864 0.454717 0.028697
C17   C     C_R   0.063430 0.645011 0.546438 0.026672
C18   C     C_R   0.970082 0.501178 0.495640 -0.027739
C19   C     C_R   0.030200 0.500656 0.503208 -0.029155
C20   C     C_R   0.943339 0.646036 0.529025 0.030117
C21   C     C_R   0.056937 0.355802 0.467066 0.030091
C22   C     C_R   0.963957 0.213101 0.420607 -0.124225
C23   C     C_R   0.236008 0.541344 0.358846 0.043204
C24   C     C_R   0.036351 0.788770 0.581525 -0.123337
C25   C     C_R   0.023401 0.212563 0.426100 -0.128304
C26   C     C_R   0.976886 0.789280 0.572187 -0.128766
C27   C     C_2   0.202041 0.583309 0.202501 0.300264
C28   C     C_2   0.779723 0.412601 0.131958 0.319537
C29   C     C_R   0.755157 0.458068 0.313339 0.049907
C30   C     C_R   0.295676 0.541218 0.360787 -0.144818
C31   C     C_R   0.695648 0.457983 0.321604 -0.146192
C32   C     C_R   0.328571 0.500960 0.506935 -0.014863
C33   C     C_R   0.671698 0.502691 0.492179 -0.020829
C34   C     C_R   0.301231 0.460089 0.653017 0.373472
Cu1   Cu    Cu3+1 0.506340 0.517380 0.684380 1.071018
Cu2   Cu    Cu3+1 0.493660 0.482620 0.315620 1.017260
F1    F     F_    0.331509 0.418095 0.795151 -0.613579
F2    F     F_    0.687024 0.596674 0.823739 -0.589631
H1    H     H_    0.939338 0.100656 0.388441 0.175557
H2    H     H_    0.507333 0.039941 0.714124 0.143708
H3    H     H_    0.454967 0.379187 0.948750 0.272631
H4    H     H_    0.545055 0.620755 0.051236 0.254462
H5    H     H_    0.155842 0.565292 0.187801 0.121370
H6    H     H_    0.825359 0.428136 0.122536 0.117988
H7    H     H_    0.060975 0.901240 0.615229 0.175339
H8    H     H_    0.042931 0.099707 0.397744 0.165445
H9    H     H_    0.957344 0.902127 0.599461 0.165651
H10   H     H_    0.316648 0.572827 0.247983 0.213006
H11   H     H_    0.667904 0.422976 0.194725 0.206784
H12   H     H_    0.221060 0.424885 0.762918 0.188331
H13   H     H_    0.794542 0.583875 0.776222 0.167441
H14   H     H_    0.492649 0.960058 0.285880 0.142076
N1    N     N_R   0.851868 0.502288 0.479928 -0.421141
N2    N     N_R   0.148278 0.499762 0.510820 -0.418107
N3    N     N_2   0.484110 0.456420 0.038520 -0.245139
N4    N     N_2   0.515890 0.543580 0.961480 -0.249035
O1    O     O_R   0.504120 0.286130 0.619770 -0.511347
O2    O     O_2   0.143096 0.220971 0.433037 -0.461266
O3    O     O_2   0.844664 0.223590 0.415812 -0.448749
O4    O     O_2   0.155720 0.778438 0.595440 -0.441879
O5    O     O_2   0.225261 0.639744 0.088354 -0.479532
O6    O     O_2   0.749277 0.356357 0.990355 -0.456572
O7    O     O_R   0.495880 0.713870 0.380230 -0.512915
O8    O     O_R   0.493410 0.256770 0.308360 -0.496873
O9    O     O_R   0.506590 0.743230 0.691640 -0.497180
O10   O     O_R   0.423230 0.514630 0.655730 -0.445295
O11   O     O_R   0.576770 0.485370 0.344270 -0.526300
O12   O     O_R   0.412530 0.485280 0.344320 -0.499759
O13   O     O_R   0.587470 0.514720 0.655680 -0.422983
O14   O     O_2   0.857076 0.781065 0.547680 -0.459101

loop_
_geom_bond_atom_site_label_1
_geom_bond_atom_site_label_2
_ccdc_geom_bond_type
C2    C4    A    
N3    N4    D    
Cu2   O12   S    
C32   C34   A    
C23   C27   S    
C34   F1    S    
C8    H2    S    
C15   O4    S    
C2    F2    S    
Cu1   O10   S    
C18   C20   A    
Cu1   Cu2   S    
C5    C23   A    
C8    C12   S    
Cu1   O1    S    
C14   N1    A    
C4    H13   S    
C31   C33   A    
Cu1   N4    S    
Cu2   O11   S    
C13   C21   A    
C7    C8    D    
C29   C31   A    
Cu2   N3    S    
Cu2   O8    S    
C10   O11   A    
C30   C32   A    
C14   O3    S    
C11   N1    A    
C20   C26   A    
C26   H9    S    
C31   H11   S    
C24   H7    S    
C25   H8    S    
C2    C33   A    
C16   C18   A    
C28   C29   S    
C17   C19   A    
C3    H12   S    
C24   C26   A    
C7    H14   S    
C13   N2    A    
C10   C33   S    
C1    O1    A    
C3    C5    A    
C14   C16   A    
C11   C20   A    
C9    O12   A    
C17   C24   A    
C22   H1    S    
C6    N1    S    
C11   O14   S    
Cu2   O7    S    
C15   N2    A    
C27   H5    S    
C5    N2    S    
C6    C29   A    
C23   C30   A    
Cu1   O13   S    
C4    C6    A    
C18   C19   A    
C12   O9    A    
C30   H10   S    
C15   C17   A    
C12   O7    A    
Cu1   O9    S    
C9    O10   A    
H3    N3    S    
C21   C25   A    
C13   O2    S    
C27   O5    D    
C3    C34   A    
H4    N4    S    
C9    C32   S    
C1    C7    S    
C10   O13   A    
C1    O8    A    
C28   H6    S    
C16   C22   A    
C19   C21   A    
C22   C25   A    
C28   O6    D    
