data_mof_unit_45180.cif
_audit_creation_date              2012-12-11T14:22:58-0500
_audit_creation_method            fapswitch 2.2
_symmetry_space_group_name_H-M    P1
_symmetry_Int_Tables_number       1
_space_group_crystal_system       triclinic
_cell_length_a                    10.898787
_cell_length_b                    11.003851
_cell_length_c                    18.845334
_cell_angle_alpha                 90.480943
_cell_angle_beta                  90.275846
_cell_angle_gamma                 60.22202
_cell_volume                      1961.59428682

loop_
_atom_site_label
_atom_site_type_symbol
_atom_type_description
_atom_site_fract_x
_atom_site_fract_y
_atom_site_fract_z
_atom_type_partial_charge
C1    C     C_R   0.237483 0.644757 0.610044 0.506497
C2    C     C_3   0.754308 0.501058 0.801048 -0.243078
C3    C     C_3   0.688329 0.660010 0.816588 0.017780
C4    C     C_3   0.647644 0.618048 0.683749 0.068073
C5    C     C_3   0.721173 0.708307 0.688011 0.174425
C6    C     C_3   0.737867 0.477040 0.722258 -0.220255
C7    C     C_R   0.702265 0.122801 0.816368 -0.002955
C8    C     C_R   0.808404 0.135164 0.778794 0.019831
C9    C     C_R   0.805034 0.135312 0.703168 0.016094
C10   C     C_R   0.592573 0.117975 0.704663 -0.167408
C11   C     C_R   0.600012 0.108056 0.777085 -0.153358
C12   C     C_R   0.627784 0.588070 0.608834 0.576019
C13   C     C_R   0.916785 0.148458 0.812965 -0.116473
C14   C     C_R   0.026050 0.146400 0.773865 -0.156055
C15   C     C_R   0.029193 0.132296 0.700397 -0.146181
C16   C     C_R   0.920031 0.126697 0.665203 -0.101199
C17   C     C_R   0.685346 0.146034 0.667707 -0.017741
C18   C     C_R   0.178188 0.671486 0.833876 -0.012421
C19   C     C_R   0.205347 0.546528 0.799192 0.017613
C20   C     C_R   0.198213 0.543510 0.723894 0.034856
C21   C     C_R   0.171267 0.776605 0.721048 -0.169260
C22   C     C_R   0.168020 0.782475 0.793934 -0.155158
C23   C     C_R   0.632631 0.221666 0.600535 0.523454
C24   C     C_R   0.239868 0.424486 0.837938 -0.083276
C25   C     C_R   0.253527 0.306121 0.804037 -0.131928
C26   C     C_R   0.232728 0.307237 0.731306 -0.131232
C27   C     C_R   0.201783 0.425233 0.691653 -0.050093
C28   C     C_R   0.189422 0.658090 0.684462 -0.020400
C29   C     C_R   0.676159 0.652701 0.170919 0.000029
C30   C     C_R   0.797231 0.564743 0.214478 0.043678
C31   C     C_R   0.788804 0.591467 0.287652 0.020429
C32   C     C_R   0.532905 0.713433 0.275868 -0.133946
C33   C     C_R   0.543640 0.720028 0.202426 -0.170505
C34   C     C_R   0.221265 0.648172 0.401956 0.526511
C35   C     C_R   0.924559 0.447890 0.189195 -0.082288
C36   C     C_R   0.043722 0.380621 0.232288 -0.146767
C37   C     C_R   0.038849 0.424162 0.301879 -0.114547
C38   C     C_R   0.914039 0.533405 0.328719 -0.084727
C39   C     C_R   0.654594 0.657573 0.319192 0.002874
C40   C     C_R   0.670158 0.094569 0.184677 0.007845
C41   C     C_R   0.581639 0.067065 0.229057 0.014176
C42   C     C_R   0.588066 0.084032 0.302820 0.022117
C43   C     C_R   0.717702 0.207790 0.281081 -0.149809
C44   C     C_R   0.732670 0.169573 0.211040 -0.147496
C45   C     C_R   0.641812 0.623196 0.392397 0.526027
C46   C     C_R   0.478851 0.034719 0.203182 -0.116770
C47   C     C_R   0.385183 0.024661 0.249202 -0.151108
C48   C     C_R   0.405988 0.021586 0.321838 -0.114212
C49   C     C_R   0.513741 0.041181 0.348384 -0.090187
C50   C     C_R   0.654711 0.158115 0.328200 0.002156
C51   C     C_R   0.145812 0.690634 0.185778 0.024385
C52   C     C_R   0.107973 0.810271 0.231001 0.026294
C53   C     C_R   0.091383 0.797427 0.303289 0.014574
C54   C     C_R   0.231615 0.544200 0.287189 -0.130965
C55   C     C_R   0.219376 0.556247 0.213982 -0.013919
C56   C     C_R   0.619365 0.224483 0.396967 0.529288
C57   C     C_R   0.097238 0.938465 0.208620 -0.092463
C58   C     C_R   0.051546 0.052142 0.254685 -0.154292
C59   C     C_R   0.016568 0.042574 0.324004 -0.112615
C60   C     C_R   0.028834 0.918173 0.347303 -0.079688
C61   C     C_R   0.163633 0.663112 0.331749 -0.019602
C62   C     C_R   0.706516 0.092738 0.893056 0.543886
C63   C     C_R   0.718843 0.684009 0.890418 0.542450
C64   C     C_R   0.119039 0.705978 0.905874 0.532532
C65   C     C_R   0.698107 0.047842 0.111549 0.560800
C66   C     C_R   0.698030 0.686627 0.097769 0.534625
C67   C     C_3   0.527728 0.731805 0.800691 -0.265052
C68   C     C_R   0.092835 0.712749 0.113158 0.540901
C69   C     C_3   0.504298 0.697429 0.723713 -0.286328
C70   C     C_3   0.757623 0.719623 0.766156 -0.184168
Cr1   Cr    Cr6+3 0.392940 0.397950 0.502230 0.985061
Cr2   Cr    Cr6+3 0.398400 0.708500 0.501260 0.978747
Cr3   Cr    Cr6+3 0.708640 0.393530 0.496460 0.985932
Cr4   Cr    Cr6+3 0.937880 0.938320 0.007620 0.989109
Cr5   Cr    Cr6+3 0.625560 0.937220 0.994510 0.982025
Cr6   Cr    Cr6+3 0.938080 0.625010 0.001190 0.991443
H1    H     H_    0.478520 0.847303 0.807239 0.123760
H2    H     H_    0.844427 0.418529 0.697696 0.192901
H3    H     H_    0.874420 0.661698 0.773889 0.166897
H4    H     H_    0.507116 0.112630 0.677997 0.133221
H5    H     H_    0.918488 0.163305 0.869435 0.139672
H6    H     H_    0.524583 0.085345 0.801925 0.143118
H7    H     H_    0.110528 0.151583 0.801142 0.107698
H8    H     H_    0.117321 0.122506 0.670040 0.101313
H9    H     H_    0.929195 0.110616 0.608353 0.129368
H10   H     H_    0.168982 0.862735 0.693214 0.155104
H11   H     H_    0.475118 0.695171 0.838533 0.128536
H12   H     H_    0.260744 0.418074 0.894360 0.127238
H13   H     H_    0.153656 0.877156 0.819146 0.157254
H14   H     H_    0.280864 0.213106 0.834454 0.096516
H15   H     H_    0.244987 0.214610 0.705077 0.089319
H16   H     H_    0.177642 0.422064 0.636377 0.154489
H17   H     H_    0.428760 0.754072 0.298898 0.154111
H18   H     H_    0.932487 0.399733 0.138007 0.134287
H19   H     H_    0.449310 0.775885 0.170349 0.111116
H20   H     H_    0.139679 0.292943 0.211753 0.099527
H21   H     H_    0.130899 0.371053 0.335651 0.121782
H22   H     H_    0.455119 0.630026 0.724922 0.137417
H23   H     H_    0.913347 0.564996 0.383373 0.120262
H24   H     H_    0.755451 0.277785 0.298171 0.149239
H25   H     H_    0.461051 0.023494 0.148152 0.164171
H26   H     H_    0.788878 0.204237 0.176927 0.138189
H27   H     H_    0.304162 0.006641 0.227736 0.107083
H28   H     H_    0.340597 0.001177 0.357348 0.125863
H29   H     H_    0.530705 0.032533 0.405133 0.127118
H30   H     H_    0.301331 0.441760 0.309276 0.150594
H31   H     H_    0.135216 0.951276 0.158054 0.135162
H32   H     H_    0.430508 0.796327 0.696140 0.130882
H33   H     H_    0.042662 0.148040 0.236049 0.108576
H34   H     H_    0.980541 0.131297 0.359759 0.124556
H35   H     H_    0.003910 0.913188 0.402152 0.115332
H36   H     H_    0.721142 0.830692 0.779394 0.094121
H37   H     H_    0.642573 0.815636 0.669388 0.093620
H38   H     H_    0.869045 0.443609 0.814119 0.158900
H39   H     H_    0.701882 0.456617 0.834091 0.120714
H40   H     H_    0.685807 0.412603 0.717137 0.117884
O1    O     O_R   0.507340 0.255690 0.581430 -0.523528
O2    O     O_R   0.524510 0.695820 0.424050 -0.506113
O3    O     O_R   0.736370 0.504260 0.414810 -0.529266
O4    O     O_R   0.691220 0.277270 0.422180 -0.512847
O5    O     O_3   0.499990 0.499990 0.499980 -0.251640
O6    O     O_R   0.089570 0.825450 0.930590 -0.529142
O7    O     O_R   0.818700 0.054260 0.929860 -0.507068
O8    O     O_R   0.606310 0.077010 0.915520 -0.528960
O9    O     O_R   0.646730 0.806540 0.917560 -0.508373
O10   O     O_R   0.837290 0.593240 0.915240 -0.525412
O11   O     O_R   0.065320 0.635310 0.931580 -0.505764
O12   O     O_R   0.280360 0.527380 0.578910 -0.515606
O13   O     O_R   0.068470 0.828620 0.091850 -0.550091
O14   O     O_R   0.799150 0.057200 0.079350 -0.506332
O15   O     O_R   0.585220 0.080180 0.076770 -0.552133
O16   O     O_R   0.627170 0.809480 0.067050 -0.521984
O17   O     O_R   0.816200 0.596410 0.076500 -0.534960
O18   O     O_R   0.045770 0.638240 0.081070 -0.500595
O19   O     O_3   0.833840 0.833520 0.001110 -0.252481
O20   O     O_R   0.260600 0.739610 0.584580 -0.537896
O21   O     O_R   0.532370 0.695050 0.573830 -0.529162
O22   O     O_R   0.744850 0.503430 0.576380 -0.489417
O23   O     O_R   0.699080 0.276500 0.571950 -0.531334
O24   O     O_R   0.498860 0.256520 0.419860 -0.532133
O25   O     O_R   0.272490 0.528150 0.429140 -0.510336
O26   O     O_R   0.252110 0.740440 0.423010 -0.521317
O27   O     O_3   0.846823 0.645530 0.646907 -0.565296
C71   C     C_3   0.862760 0.746002 0.607951 -0.001028
H41   H     H_    0.976024 0.697907 0.594902 0.160999
H42   H     H_    0.834523 0.842434 0.639534 0.120366
C72   C     C_3   0.780595 0.780514 0.537788 -0.253432
H43   H     H_    0.799113 0.682042 0.511651 0.211665
H44   H     H_    0.665560 0.847773 0.547679 0.159174
C73   C     C_3   0.829267 0.855645 0.487490 -0.495834
H45   H     H_    0.807473 0.957691 0.510527 0.151492
H46   H     H_    0.773287 0.873974 0.436000 0.137816
H47   H     H_    0.944292 0.789179 0.477568 0.144038
C74   C     C_3   0.303723 0.428600 0.167426 -0.271651
C75   C     C_3   0.421945 0.438434 0.129190 -0.429381
H48   H     H_    0.378449 0.531658 0.094438 0.142392
H49   H     H_    0.494858 0.445058 0.168427 0.158165
H50   H     H_    0.482531 0.344737 0.095265 0.178241
H51   H     H_    0.352493 0.332242 0.199889 0.151106
H52   H     H_    0.234633 0.416032 0.128232 0.165534

loop_
_geom_bond_atom_site_label_1
_geom_bond_atom_site_label_2
_ccdc_geom_bond_type
C45   O2    A    
C55   C74   S    
C34   O25   A    
C8    C13   A    
Cr3   O3    S    
C29   C33   A    
Cr2   O5    S    
C75   H49   S    
C58   H33   S    
Cr6   O10   S    
C41   C42   A    
Cr1   O24   S    
C35   C36   A    
C67   H1    S    
C1    O12   A    
C37   H21   S    
C65   O14   A    
C7    C8    A    
Cr5   O16   S    
Cr2   O26   S    
C26   C27   A    
C17   C23   S    
C30   C35   A    
C64   O6    A    
C23   O23   A    
C36   C37   A    
C72   H44   S    
C9    C16   A    
C30   C31   A    
C56   O24   A    
Cr5   O19   S    
C5    O27   S    
Cr3   O22   S    
C10   C17   A    
C15   C16   A    
C48   H28   S    
C13   H5    S    
C59   H34   S    
C6    H2    S    
C18   C19   A    
C32   C39   A    
C4    C69   S    
C72   H43   S    
C46   C47   A    
C53   C61   A    
C69   H32   S    
C19   C20   A    
C8    C9    A    
C73   H47   S    
C1    C28   S    
C41   C46   A    
C4    C12   S    
C1    O20   A    
C51   C55   A    
Cr1   O25   S    
C5    H37   S    
C69   H22   S    
C45   O3    A    
Cr4   O7    S    
C59   C60   A    
Cr3   O4    S    
C21   C22   A    
C75   H50   S    
C56   O4    A    
C2    C6    S    
C14   H7    S    
C71   C72   S    
C33   H19   S    
C62   O8    A    
C62   O7    A    
C65   O15   A    
Cr6   O19   S    
Cr5   O15   S    
C54   C61   A    
C66   O16   A    
C11   H6    S    
Cr2   O21   S    
C46   H25   S    
C47   H27   S    
C54   H30   S    
Cr5   O8    S    
C72   C73   S    
C43   H24   S    
C4    C6    S    
C10   C11   A    
Cr1   O1    S    
C71   H41   S    
C49   H29   S    
Cr3   O23   S    
C26   H15   S    
C34   C61   S    
C50   C56   S    
C51   C52   A    
C67   C69   S    
C23   O1    A    
C7    C11   A    
C43   C44   A    
C7    C62   S    
C74   H52   S    
C37   C38   A    
C66   O17   A    
C2    H39   S    
C36   H20   S    
C47   C48   A    
C14   C15   A    
C40   C44   A    
C64   O11   A    
C32   H17   S    
Cr4   O19   S    
C3    C70   S    
C53   C60   A    
C25   H14   S    
C27   H16   S    
C24   C25   A    
C24   H12   S    
C6    H40   S    
C74   C75   S    
C63   O9    A    
C70   H36   S    
C42   C50   A    
C71   H42   S    
C40   C41   A    
Cr4   O6    S    
C21   C28   A    
Cr3   O5    S    
C40   C65   S    
Cr4   O14   S    
C16   H9    S    
C73   H46   S    
Cr1   O12   S    
C58   C59   A    
C52   C53   A    
C35   H18   S    
C9    C17   A    
C54   C55   A    
C34   O26   A    
Cr6   O18   S    
C57   H31   S    
C70   H3    S    
C18   C22   A    
Cr1   O5    S    
C3    C67   S    
C38   H23   S    
C5    C70   S    
C21   H10   S    
Cr6   O17   S    
C43   C50   A    
C15   H8    S    
C20   C27   A    
C3    C63   S    
C20   C28   A    
C67   H11   S    
C73   H45   S    
C31   C38   A    
C39   C45   S    
C32   C33   A    
C10   H4    S    
C2    C3    S    
C25   C26   A    
C74   H51   S    
C60   H35   S    
C2    H38   S    
C18   C64   S    
C57   C58   A    
C48   C49   A    
C68   O18   A    
C22   H13   S    
C31   C39   A    
C19   C24   A    
C12   O22   A    
C51   C68   S    
C68   O13   A    
C63   O10   A    
Cr2   O20   S    
C52   C57   A    
C42   C49   A    
C29   C30   A    
C29   C66   S    
C4    C5    S    
Cr4   O13   S    
Cr2   O2    S    
C75   H48   S    
Cr6   O11   S    
C12   O21   A    
Cr5   O9    S    
C13   C14   A    
O27   C71   S    
C44   H26   S    
