data_mof_unit_30684.cif
_audit_creation_date              2012-12-10T17:02:15-0500
_audit_creation_method            fapswitch 2.2
_symmetry_space_group_name_H-M    P1
_symmetry_Int_Tables_number       1
_space_group_crystal_system       triclinic
_cell_length_a                    10.649816
_cell_length_b                    10.674732
_cell_length_c                    10.021653
_cell_angle_alpha                 87.301627
_cell_angle_beta                  90.161948
_cell_angle_gamma                 90.323901
_cell_volume                      1138.01574849

loop_
_atom_site_label
_atom_site_type_symbol
_atom_type_description
_atom_site_fract_x
_atom_site_fract_y
_atom_site_fract_z
_atom_type_partial_charge
C1    C     C_R   0.490407 0.261818 0.503661 0.781172
C2    C     C_R   0.065395 0.389022 0.567092 -0.028677
C3    C     C_R   0.128043 0.490339 0.499530 -0.129361
C4    C     C_R   0.064371 0.587009 0.429261 0.452028
C5    C     C_R   0.935027 0.584730 0.429219 -0.331530
C6    C     C_R   0.871597 0.489260 0.500349 -0.113551
C7    C     C_2   0.419375 0.930574 0.425783 -0.318050
C8    C     C_2   0.517440 0.870608 0.482491 0.404971
C9    C     C_2   0.424320 0.067277 0.407057 0.490279
C10   C     C_2   0.457964 0.129234 0.515890 0.305122
C11   C     C_2   0.577596 0.568273 0.920759 0.497273
C12   C     C_R   0.260537 0.497071 0.499985 0.942860
C13   C     C_2   0.567697 0.576684 0.071439 -0.263755
C14   C     C_R   0.505152 0.737283 0.496387 0.817891
C15   C     C_R   0.739412 0.496790 0.500243 0.876199
C16   C     C_R   0.130175 0.286996 0.630717 -0.278106
C17   C     C_R   0.064253 0.187418 0.695939 0.521361
C18   C     C_R   0.933516 0.188601 0.695627 -0.143772
C19   C     C_R   0.868722 0.287495 0.631948 -0.253551
C20   C     C_R   0.933980 0.388961 0.567819 0.111503
H1    H     H_    0.427269 0.457462 0.900599 0.109337
H2    H     H_    0.622521 0.648271 0.118771 0.164429
H3    H     H_    0.457061 0.427319 0.105442 0.176234
H4    H     H_    0.231489 0.282654 0.628911 0.144957
H5    H     H_    0.881612 0.111907 0.744346 0.145674
H6    H     H_    0.767441 0.282745 0.632079 0.156069
H7    H     H_    0.883432 0.658838 0.375919 0.142088
H8    H     H_    0.335227 0.880607 0.396037 0.147471
N1    N     N_2   0.501340 0.501330 0.852150 -0.192217
N2    N     N_2   0.501380 0.501360 0.147810 -0.185303
O1    O     O_R   0.499980 0.319060 0.613040 -0.642221
O2    O     O_R   0.500020 0.319100 0.386900 -0.563589
O3    O     O_R   0.316750 0.499980 0.613090 -0.630896
O4    O     O_R   0.316790 0.500020 0.386950 -0.566497
O5    O     O_R   0.499980 0.680900 0.613100 -0.572454
O6    O     O_R   0.500020 0.680940 0.386960 -0.623159
O7    O     O_R   0.683210 0.499980 0.613050 -0.567119
O8    O     O_R   0.683250 0.500020 0.386910 -0.610495
Zn1   Zn    Zn3+2 0.499970 0.499970 0.650990 0.986521
Zn2   Zn    Zn3+2 0.500030 0.500030 0.349010 0.999066
O9    O     O_3   0.130838 0.683562 0.364434 -0.773293
H9    H     H_    0.071136 0.743898 0.321159 0.333761
O10   O     O_3   0.442131 0.068268 0.641868 -0.641552
C21   C     C_3   0.545296 0.085169 0.728456 -0.228199
H10   H     H_    0.524422 0.160015 0.798213 0.173296
H11   H     H_    0.635163 0.105502 0.675293 0.162667
H12   H     H_    0.558541 0.997267 0.790249 0.180338
O11   O     O_3   0.668911 0.636631 0.851898 -0.737846
H13   H     H_    0.719902 0.682268 0.916937 0.306380
O12   O     O_3   0.124760 0.087545 0.759758 -0.763904
H14   H     H_    0.216652 0.101837 0.753922 0.360195
O13   O     O_3   0.631651 0.934242 0.498048 -0.642218
C22   C     C_3   0.721999 0.862223 0.570054 -0.291942
H15   H     H_    0.749777 0.779122 0.514815 0.155324
H16   H     H_    0.687535 0.834153 0.671670 0.208734
H17   H     H_    0.807312 0.920731 0.582128 0.191474
O14   O     O_3   0.399424 0.131820 0.285079 -0.619713
C23   C     C_3   0.395025 0.052403 0.176517 -0.266992
H18   H     H_    0.310778 0.990490 0.182722 0.180598
H19   H     H_    0.482576 0.996588 0.169939 0.167851
H20   H     H_    0.387202 0.111428 0.082769 0.186839

loop_
_geom_bond_atom_site_label_1
_geom_bond_atom_site_label_2
_ccdc_geom_bond_type
C17   O12   S    
O5    Zn1   S    
O10   C21   S    
C15   O8    A    
C6    C20   A    
O9    H9    S    
C8    O13   S    
C19   C20   A    
C21   H12   S    
O6    Zn2   S    
N1    Zn1   S    
C23   H20   S    
O2    Zn2   S    
C17   C18   A    
C12   O3    A    
O14   C23   S    
N2    Zn2   S    
C7    C8    D    
C16   H4    S    
C22   H15   S    
O13   C22   S    
C12   O4    A    
O8    Zn2   S    
C11   C13   S    
C11   O11   S    
O3    Zn1   S    
C18   H5    S    
H1    N1    S    
O4    Zn2   S    
C4    C5    A    
O11   H13   S    
O1    Zn1   S    
C13   H2    S    
C2    C3    A    
C9    O14   S    
C22   H16   S    
C14   O6    A    
C5    C6    A    
C23   H18   S    
C4    O9    S    
C1    C10   S    
C2    C20   A    
C3    C4    A    
H3    N2    S    
C13   N2    D    
C1    O1    A    
C2    C16   A    
C21   H10   S    
C11   N1    D    
O7    Zn1   S    
C18   C19   A    
C9    C10   D    
C22   H17   S    
C14   O5    A    
C7    C9    S    
C19   H6    S    
C15   O7    A    
C8    C14   S    
C3    C12   S    
C21   H11   S    
O12   H14   S    
C6    C15   S    
C5    H7    S    
C23   H19   S    
C1    O2    A    
C7    H8    S    
C10   O10   S    
C16   C17   A    
