data_mof_unit_49516.cif
_audit_creation_date              2012-12-10T17:57:24-0500
_audit_creation_method            fapswitch 2.2
_symmetry_space_group_name_H-M    P1
_symmetry_Int_Tables_number       1
_space_group_crystal_system       triclinic
_cell_length_a                    9.5855
_cell_length_b                    10.748588
_cell_length_c                    13.494192
_cell_angle_alpha                 91.268873
_cell_angle_beta                  72.422211
_cell_angle_gamma                 88.927564
_cell_volume                      1324.60193086

loop_
_atom_site_label
_atom_site_type_symbol
_atom_type_description
_atom_site_fract_x
_atom_site_fract_y
_atom_site_fract_z
_atom_type_partial_charge
C1    C     C_R   0.498123 0.737541 0.501621 0.775109
C2    C     C_R   0.437177 0.510724 0.979740 0.093871
C3    C     C_R   0.472087 0.540409 0.873173 0.095733
C4    C     C_R   0.543531 0.530365 0.032901 0.052815
C5    C     C_R   0.676709 0.590081 0.982433 0.115593
C6    C     C_R   0.700788 0.629952 0.881152 -0.257883
C7    C     C_R   0.600605 0.606376 0.828268 -0.198494
C8    C     C_R   0.521647 0.491653 0.134905 -0.250129
C9    C     C_R   0.753319 0.574317 0.137819 -0.174763
C10   C     C_R   0.376199 0.504909 0.815183 -0.103894
C11   C     C_R   0.513433 0.940755 0.589524 0.164341
C12   C     C_R   0.421741 0.504458 0.700241 0.758509
C13   C     C_R   0.523284 0.069596 0.582453 -0.207783
C14   C     C_R   0.504001 0.128751 0.496403 -0.099306
C15   C     C_R   0.479225 0.059984 0.413693 0.154265
C16   C     C_R   0.475636 0.931306 0.418168 -0.187495
C17   C     C_R   0.494181 0.871737 0.504474 -0.109481
C18   C     C_R   0.897415 0.587998 0.554623 -0.095258
C19   C     C_R   0.045714 0.593261 0.552504 0.253449
C20   C     C_R   0.099863 0.410789 0.445516 -0.117440
C21   C     C_R   0.952017 0.411855 0.443674 0.275749
C22   C     C_R   0.502125 0.262578 0.497242 0.801594
C23   C     C_R   0.578374 0.501204 0.300442 0.802912
C24   C     C_R   0.781892 0.610622 0.035468 0.144451
C25   C     C_R   0.622114 0.517830 0.188282 -0.109704
C26   C     C_R   0.239416 0.456861 0.867229 -0.203307
C27   C     C_R   0.198924 0.439680 0.973579 -0.130415
C28   C     C_R   0.296503 0.464128 0.029245 -0.175637
Cu1   Cu    Cu3+1 0.359340 0.499980 0.500000 0.941677
Cu2   Cu    Cu3+1 0.640660 0.500020 0.500000 0.959228
H1    H     H_    0.831402 0.595159 0.179178 0.172261
H2    H     H_    0.540916 0.124701 0.645689 0.147872
H3    H     H_    0.460398 0.877332 0.353521 0.156965
H4    H     H_    0.817868 0.658124 0.596515 0.125824
H5    H     H_    0.176224 0.339932 0.401158 0.125518
H6    H     H_    0.797690 0.679708 0.841107 0.148176
H7    H     H_    0.426175 0.441509 0.175765 0.149847
H8    H     H_    0.164209 0.429718 0.825253 0.152440
H9    H     H_    0.256651 0.448075 0.111390 0.122361
H10   H     H_    0.092105 0.403971 0.012917 0.146992
H11   H     H_    0.625667 0.644276 0.752371 0.156815
N1    N     N_R   0.147940 0.499970 0.499970 -0.167196
N2    N     N_R   0.852060 0.500060 0.499990 -0.162847
O1    O     O_R   0.381250 0.680340 0.500010 -0.580681
O2    O     O_R   0.618820 0.680370 0.500010 -0.589167
O3    O     O_R   0.323240 0.499950 0.650980 -0.567709
O4    O     O_R   0.560810 0.499980 0.650980 -0.583890
O5    O     O_R   0.381180 0.319630 0.499990 -0.585503
O6    O     O_R   0.618750 0.319660 0.499990 -0.544316
O7    O     O_R   0.439190 0.500020 0.349020 -0.584312
O8    O     O_R   0.676760 0.500050 0.349020 -0.560823
N3    N     N_3   0.462377 0.118279 0.323333 -0.597232
H12   H     H_    0.368796 0.176164 0.346009 0.218492
H13   H     H_    0.553143 0.173291 0.291988 0.209460
C29   C     C_3   0.080222 0.713770 0.601641 -0.343938
C30   C     C_3   0.112694 0.698600 0.704755 -0.763583
H14   H     H_    0.076811 0.606996 0.738200 0.242504
H15   H     H_    0.230432 0.711341 0.694531 0.259726
H16   H     H_    0.053098 0.772038 0.761952 0.199511
H17   H     H_    0.159883 0.770074 0.545525 0.217605
H18   H     H_    0.983781 0.779163 0.620300 0.139158
N4    N     N_3   0.907714 0.321048 0.381126 -0.531181
H19   H     H_    0.928707 0.232855 0.405436 0.196025
H20   H     H_    0.973141 0.329484 0.304152 0.183057
N5    N     N_3   0.916949 0.671022 0.988591 -0.599701
H21   H     H_    0.975503 0.619082 0.922356 0.218966
H22   H     H_    0.893766 0.760011 0.967007 0.217394
C31   C     C_3   0.520059 0.880847 0.688629 -0.426156
C32   C     C_3   0.395341 0.927553 0.783147 -0.831071
H23   H     H_    0.408040 0.027193 0.801109 0.251519
H24   H     H_    0.288130 0.915750 0.768835 0.253309
H25   H     H_    0.396483 0.873092 0.851913 0.251636
H26   H     H_    0.510301 0.779010 0.683417 0.186834
H27   H     H_    0.626920 0.900042 0.701435 0.200731

loop_
_geom_bond_atom_site_label_1
_geom_bond_atom_site_label_2
_ccdc_geom_bond_type
Cu2   O6    S    
C32   H25   S    
C22   O5    A    
C29   C30   S    
C30   H16   S    
C9    C24   A    
C6    C7    A    
C19   C29   S    
C16   H3    S    
C18   H4    S    
C27   H10   S    
C13   H2    S    
C23   O8    A    
C14   C15   A    
C19   N1    A    
N4    H20   S    
Cu1   O3    S    
C4    C8    A    
C1    O1    A    
C14   C22   S    
N4    H19   S    
C15   N3    S    
C2    C3    A    
C26   C27   A    
C9    C25   A    
C3    C10   A    
C21   N2    A    
C13   C14   A    
C20   C21   A    
C8    C25   A    
C11   C13   A    
C1    O2    A    
C21   N4    S    
Cu1   Cu2   S    
C5    C24   A    
C10   C12   S    
C24   N5    S    
N3    H12   S    
C22   O6    A    
C2    C4    A    
C29   H18   S    
Cu2   O8    S    
C30   H15   S    
N3    H13   S    
N5    H21   S    
C3    C7    A    
Cu1   O7    S    
C7    H11   S    
Cu1   O1    S    
C5    C6    A    
Cu1   N1    S    
C32   H23   S    
Cu2   N2    S    
C20   N1    A    
C8    H7    S    
C9    H1    S    
Cu1   O5    S    
C31   H27   S    
C15   C16   A    
Cu2   O4    S    
C4    C5    A    
C23   C25   S    
C30   H14   S    
C12   O3    A    
C18   C19   A    
C18   N2    A    
C27   C28   A    
C32   H24   S    
C11   C31   S    
C11   C17   A    
C23   O7    A    
C2    C28   A    
Cu2   O2    S    
C28   H9    S    
C31   H26   S    
C29   H17   S    
C20   H5    S    
C1    C17   S    
C31   C32   S    
C10   C26   A    
C26   H8    S    
C12   O4    A    
C6    H6    S    
C16   C17   A    
N5    H22   S    
