data_mof_unit_64195.cif
_audit_creation_date              2012-12-10T21:33:28-0500
_audit_creation_method            fapswitch 2.2
_symmetry_space_group_name_H-M    P1
_symmetry_Int_Tables_number       1
_space_group_crystal_system       triclinic
_cell_length_a                    14.155096
_cell_length_b                    16.185617
_cell_length_c                    16.607481
_cell_angle_alpha                 85.107484
_cell_angle_beta                  91.610373
_cell_angle_gamma                 91.65558
_cell_volume                      3788.22089073

loop_
_atom_site_label
_atom_site_type_symbol
_atom_type_description
_atom_site_fract_x
_atom_site_fract_y
_atom_site_fract_z
_atom_type_partial_charge
C1    C     C_R   0.498456 0.487114 0.653438 1.054143
C2    C     C_R   0.501522 0.512892 0.346658 0.980080
C3    C     C_R   0.535963 0.409214 0.871460 0.318682
C4    C     C_R   0.444529 0.582477 0.130062 0.325425
C5    C     C_R   0.541981 0.415799 0.786481 0.220588
C6    C     C_R   0.445174 0.577823 0.215325 0.264317
C7    C     C_R   0.442565 0.764874 0.468961 0.487334
C8    C     C_R   0.557408 0.235108 0.531059 0.487341
C9    C     C_R   0.437339 0.850069 0.478157 0.300240
C10   C     C_R   0.562580 0.149903 0.521895 0.301139
C11   C     C_R   0.508416 0.890005 0.523492 0.072490
C12   C     C_R   0.491491 0.109982 0.476558 0.073356
C13   C     C_R   0.577514 0.840956 0.565109 0.303905
C14   C     C_R   0.422427 0.159050 0.434918 0.305280
C15   C     C_R   0.576330 0.753404 0.558499 -0.124834
C16   C     C_R   0.423657 0.246607 0.441503 -0.126995
C17   C     C_R   0.670839 0.499523 0.500212 0.870161
C18   C     C_R   0.329160 0.500476 0.499802 0.920410
C19   C     C_1   0.772251 0.498790 0.500109 -0.133144
C20   C     C_1   0.227745 0.501219 0.499828 -0.124240
C21   C     C_1   0.857483 0.498935 0.500032 0.034671
C22   C     C_1   0.142510 0.501079 0.499849 0.031794
C23   C     C_1   0.957369 0.499640 0.499951 0.048488
C24   C     C_1   0.042623 0.500376 0.499894 0.047934
C25   C     C_R   0.487819 0.475115 0.740539 -0.259709
C26   C     C_R   0.508947 0.525095 0.259375 -0.344648
C27   C     C_R   0.419151 0.520122 0.776325 0.330433
C28   C     C_R   0.579895 0.485193 0.219896 0.341550
C29   C     C_R   0.407922 0.508699 0.860266 0.288775
C30   C     C_R   0.581771 0.493123 0.135928 0.393870
C31   C     C_R   0.470951 0.457050 0.907481 0.072912
C32   C     C_R   0.511305 0.538852 0.091407 0.017282
N1    N     N_2   0.479721 0.461956 0.991420 -0.089882
N2    N     N_2   0.500330 0.534125 0.007695 -0.090764
N3    N     N_R   0.510540 0.716920 0.509720 -0.204178
N4    N     N_R   0.489460 0.283080 0.490280 -0.204596
N5    N     N_2   0.510861 0.977876 0.531566 -0.083225
N6    N     N_2   0.489023 0.022110 0.468489 -0.082252
O1    O     O_R   0.496230 0.422540 0.612660 -0.618122
O2    O     O_R   0.503770 0.577460 0.387340 -0.607902
O3    O     O_R   0.503000 0.561840 0.618900 -0.574304
O4    O     O_R   0.497000 0.438160 0.381100 -0.603714
O5    O     O_R   0.622900 0.430330 0.496880 -0.595729
O6    O     O_R   0.377100 0.569670 0.503120 -0.578180
O7    O     O_R   0.629670 0.569640 0.503120 -0.609772
O8    O     O_R   0.370330 0.430360 0.496880 -0.611455
Zn1   Zn    Zn3+2 0.495480 0.406980 0.495830 0.984538
Zn2   Zn    Zn3+2 0.504520 0.593020 0.504170 0.999031
O9    O     O_3   0.649719 0.439067 0.260800 -0.656963
H1    H     H_    0.655945 0.454009 0.317247 0.324261
O10   O     O_3   0.362619 0.572728 0.727040 -0.726812
H2    H     H_    0.318750 0.601348 0.760013 0.400641
O11   O     O_3   0.652764 0.454326 0.099243 -0.636373
H3    H     H_    0.655926 0.476095 0.041803 0.362264
O12   O     O_3   0.337678 0.550432 0.894875 -0.708505
H4    H     H_    0.326874 0.524821 0.950284 0.382128
O13   O     O_3   0.596683 0.361735 0.921539 -0.698393
H5    H     H_    0.656164 0.355133 0.893081 0.360666
O14   O     O_3   0.376292 0.623975 0.082612 -0.700414
H6    H     H_    0.318276 0.626516 0.114123 0.357349
O15   O     O_3   0.602159 0.367976 0.747144 -0.741586
H7    H     H_    0.609029 0.313941 0.779240 0.370037
O16   O     O_3   0.382677 0.621189 0.257021 -0.740867
H8    H     H_    0.368131 0.673634 0.224462 0.366800
O17   O     O_3   0.626282 0.268801 0.579236 -0.666228
H9    H     H_    0.602136 0.319956 0.597513 0.395604
O18   O     O_3   0.373732 0.731162 0.420763 -0.668157
H10   H     H_    0.398050 0.680151 0.402309 0.393938
O19   O     O_3   0.639399 0.108731 0.556957 -0.637775
H11   H     H_    0.654775 0.063583 0.523246 0.368367
O20   O     O_3   0.360494 0.891217 0.443113 -0.638141
H12   H     H_    0.345123 0.936372 0.476817 0.367824
O21   O     O_3   0.644114 0.881143 0.611585 -0.691340
H13   H     H_    0.692276 0.842026 0.634180 0.347130
O22   O     O_3   0.355817 0.118878 0.388441 -0.690412
H14   H     H_    0.307674 0.158008 0.365836 0.347359
C33   C     C_1   0.642603 0.701650 0.605258 0.310048
N7    N     N_1   0.695933 0.660518 0.643163 -0.190859
C34   C     C_1   0.357430 0.298382 0.394708 0.314910
N8    N     N_1   0.304142 0.339531 0.356775 -0.185023

loop_
_geom_bond_atom_site_label_1
_geom_bond_atom_site_label_2
_ccdc_geom_bond_type
O12   H4    S    
C27   C29   A    
O21   H13   S    
C6    C26   A    
O11   H3    S    
C22   C24   S    
C19   C21   T    
C17   O7    A    
N4    Zn1   S    
O2    Zn2   S    
C8    N4    A    
C11   N5    S    
C23   C24   T    
C31   N1    S    
C8    O17   S    
C1    C25   S    
O15   H7    S    
N3    Zn2   S    
C18   O8    A    
C15   N3    A    
C27   O10   S    
C30   O11   S    
O18   H10   S    
C4    C6    A    
C29   O12   S    
C33   N7    T    
O10   H2    S    
C32   N2    S    
C6    O16   S    
O22   H14   S    
C17   O5    A    
N5    N6    D    
C18   O6    A    
C28   O9    S    
N1    N2    D    
C5    O15   S    
C2    C26   S    
C3    C31   A    
C9    C11   A    
C4    C32   A    
C10   C12   A    
C5    C25   A    
C3    O13   S    
C1    O3    A    
C12   C14   A    
O9    H1    S    
C13   C15   A    
C14   C16   A    
C20   C22   T    
O1    Zn1   S    
O7    Zn2   S    
C7    C9    A    
O8    Zn1   S    
C7    N3    A    
C9    O20   S    
C13   O21   S    
O16   H8    S    
C3    C5    A    
C25   C27   A    
C26   C28   A    
C16   C34   S    
C14   O22   S    
C21   C23   S    
O20   H12   S    
C29   C31   A    
C16   N4    A    
C30   C32   A    
C11   C13   A    
O13   H5    S    
C15   C33   S    
C2    O4    A    
C4    O14   S    
C28   C30   A    
C17   C19   S    
O3    Zn2   S    
C18   C20   S    
O4    Zn1   S    
C12   N6    S    
O19   H11   S    
C1    O1    A    
C7    O18   S    
C34   N8    T    
C10   O19   S    
C2    O2    A    
O14   H6    S    
C8    C10   A    
O17   H9    S    
O5    Zn1   S    
O6    Zn2   S    
