data_mof_unit_67836.cif
_audit_creation_date              2013-03-05T15:41:49-0500
_audit_creation_method            fapswitch 2.2
_symmetry_space_group_name_H-M    P1
_symmetry_Int_Tables_number       1
_space_group_crystal_system       triclinic
_cell_length_a                    7.788707
_cell_length_b                    8.786064
_cell_length_c                    10.513122
_cell_angle_alpha                 93.268121
_cell_angle_beta                  83.840067
_cell_angle_gamma                 94.008792
_cell_volume                      712.641398194

loop_
_atom_site_label
_atom_site_type_symbol
_atom_site_description
_atom_site_fract_x
_atom_site_fract_y
_atom_site_fract_z
_atom_type_partial_charge
O1    O     O_R   0.389250 0.738570 0.508410 -0.655210
O2    O     O_R   0.610750 0.261430 0.491590 -0.649072
O3    O     O_R   0.678390 0.711620 0.486450 -0.610860
O4    O     O_R   0.321610 0.288380 0.513550 -0.610761
C1    C     C_R   0.545534 0.794336 0.494618 0.937322
C2    C     C_R   0.454085 0.205683 0.504964 0.950996
O5    O     O_R   0.355460 0.513510 0.697030 -0.626651
O6    O     O_R   0.644540 0.486490 0.302970 -0.624577
O7    O     O_R   0.644600 0.486560 0.675070 -0.616816
O8    O     O_R   0.355400 0.513440 0.324930 -0.622609
C3    C     C_R   0.501827 0.513967 0.742256 0.901500
C4    C     C_R   0.498579 0.487343 0.257611 0.895161
Zn1   Zn    Zn3+2 0.306940 0.517990 0.514670 0.905263
Zn2   Zn    Zn3+2 0.693060 0.482010 0.485330 0.907071
N1    N     N_2   0.950320 0.457950 0.465730 -0.184587
N2    N     N_2   0.049680 0.542050 0.534270 -0.184678
C5    C     C_3   0.350718 0.553422 0.977103 0.153173
C6    C     C_3   0.651303 0.446156 0.022496 0.183227
C7    C     C_3   0.483140 0.638727 0.058567 0.119613
C8    C     C_3   0.518299 0.361085 0.940916 0.124939
C9    C     C_3   0.500719 0.488592 0.122348 -0.166231
C10   C     C_3   0.500386 0.511552 0.877405 -0.154232
C11   C     C_3   0.368009 0.403734 0.041819 0.125054
C12   C     C_3   0.633866 0.596491 0.957587 0.168458
H1    H     H_    0.013705 0.379600 0.404626 0.185499
H2    H     H_    0.986318 0.620510 0.595258 0.184585
C13   C     C_2   0.566144 0.954780 0.474120 -0.111906
C14   C     C_2   0.431673 0.045006 0.523518 -0.107925
C15   C     C_3   0.447902 0.788021 0.137828 -0.367889
C16   C     C_3   0.535128 0.925471 0.072078 -0.913678
H3    H     H_    0.676298 0.932120 0.079466 0.270458
H4    H     H_    0.510928 0.914202 0.970182 0.277539
H5    H     H_    0.483161 0.031356 0.118457 0.250709
H6    H     H_    0.306291 0.800838 0.153846 0.214850
H7    H     H_    0.493754 0.785619 0.233412 0.210112
C17   C     C_3   0.522657 0.209534 0.860440 -0.374623
C18   C     C_3   0.703490 0.154267 0.825047 -0.876840
H8    H     H_    0.789293 0.244797 0.777071 0.284219
H9    H     H_    0.759389 0.120478 0.910913 0.264599
H10   H     H_    0.696097 0.052749 0.757440 0.239683
H11   H     H_    0.435246 0.123097 0.910042 0.207582
H12   H     H_    0.468539 0.223371 0.769702 0.207259
C19   C     C_3   0.185511 0.618808 0.947412 -0.895165
H13   H     H_    0.103502 0.642853 0.038010 0.238735
H14   H     H_    0.216809 0.726656 0.897261 0.239553
H15   H     H_    0.116369 0.535226 0.885177 0.262775
C20   C     C_3   0.818103 0.386816 0.056012 -0.882982
H16   H     H_    0.904308 0.364272 0.967410 0.246830
H17   H     H_    0.883114 0.473768 0.118010 0.258960
H18   H     H_    0.789574 0.279885 0.107842 0.238208
C21   C     C_3   0.221592 0.294653 0.096059 -0.933354
H19   H     H_    0.151872 0.239964 0.017110 0.245366
H20   H     H_    0.274277 0.205093 0.147780 0.229349
H21   H     H_    0.131633 0.358222 0.164830 0.261448
C22   C     C_3   0.782584 0.700201 0.898714 -0.917640
H22   H     H_    0.858078 0.753638 0.974823 0.249423
H23   H     H_    0.867488 0.632204 0.829587 0.252493
H24   H     H_    0.732072 0.790222 0.845984 0.231992
C23   C     C_3   0.729475 0.013694 0.387371 -0.380341
C24   C     C_3   0.848469 0.898715 0.313874 -0.865185
H25   H     H_    0.930200 0.849354 0.379386 0.273631
H26   H     H_    0.775352 0.806196 0.262776 0.275122
H27   H     H_    0.938149 0.959370 0.241192 0.229270
H28   H     H_    0.686416 0.083401 0.313056 0.219030
H29   H     H_    0.815769 0.085648 0.447325 0.239000
C25   C     C_3   0.265818 0.985278 0.607613 -0.385157
C26   C     C_3   0.137843 0.097104 0.674659 -0.880197
H30   H     H_    0.201090 0.191008 0.730631 0.266412
H31   H     H_    0.061897 0.144512 0.604283 0.275717
H32   H     H_    0.043907 0.033552 0.742630 0.239112
H33   H     H_    0.184323 0.910276 0.546236 0.244267
H34   H     H_    0.306961 0.919106 0.685001 0.213603

loop_
_geom_bond_atom_site_label_1
_geom_bond_atom_site_label_2
_geom_bond_distance
_ccdc_geom_bond_type
C14   C25   1.561660 S    
C19   H13   1.106879 S    
C5    C19   1.514328 S    
Zn1   N2    2.016854 S    
C18   H8    1.110300 S    
C26   H30   1.104388 S    
C2    C14   1.432163 S    
C18   H10   1.110578 S    
C6    C9    1.539116 S    
C19   H14   1.110112 S    
C15   H7    1.103753 S    
C3    C10   1.421038 S    
C17   H12   1.099599 S    
C25   H33   1.111056 S    
C8    C11   1.544498 S    
C1    C13   1.433511 S    
O6    C4    1.279774 A    
C21   H21   1.107047 S    
C6    C20   1.515812 S    
C26   H32   1.110797 S    
C22   H22   1.107217 S    
O2    C2    1.279091 A    
C7    C12   1.546437 S    
C23   H28   1.112422 S    
C23   C24   1.537783 S    
C18   H9    1.107053 S    
C5    C11   1.535304 S    
C23   H29   1.111193 S    
C12   C22   1.522478 S    
C16   H4    1.105222 S    
O7    C3    1.281777 A    
C17   H11   1.099487 S    
C15   C16   1.509120 S    
O3    Zn2   2.027856 S    
O8    C4    1.282558 A    
C24   H27   1.111580 S    
O1    C1    1.276563 A    
C15   H6    1.110367 S    
C10   C12   1.535003 S    
O4    C2    1.295399 A    
C17   C18   1.523331 S    
C5    C7    1.538606 S    
C8    C10   1.536042 S    
O5    C3    1.281084 A    
C20   H18   1.110023 S    
C6    C8    1.541658 S    
C22   H23   1.106793 S    
C9    C11   1.532682 S    
N2    H2    1.029135 S    
C16   H3    1.107817 S    
O2    Zn2   2.000764 S    
C19   H15   1.105856 S    
C6    C12   1.541595 S    
N1    H1    1.029231 S    
O1    Zn1   2.000764 S    
N1    N2    1.281842 D    
C21   H19   1.108794 S    
C7    C15   1.538466 S    
C20   H16   1.105012 S    
O3    C1    1.298178 A    
O5    Zn1   1.996520 S    
C25   C26   1.537167 S    
C20   H17   1.106721 S    
C22   H24   1.108139 S    
C13   C14   1.395533 D    
O7    Zn2   1.988609 S    
Zn2   N1    2.016854 S    
C13   C23   1.559096 S    
O6    Zn2   1.996518 S    
C16   H5    1.107086 S    
C26   H31   1.111000 S    
C7    C9    1.534331 S    
C11   C21   1.521226 S    
C4    C9    1.421003 S    
C24   H26   1.106707 S    
C5    C10   1.531866 S    
O4    Zn1   2.027856 S    
C25   H34   1.112903 S    
C24   H25   1.111041 S    
C21   H20   1.106817 S    
O8    Zn1   1.988609 S    
C8    C17   1.536770 S    
