data_mof_unit_54530.cif
_audit_creation_date              2012-12-10T17:53:11-0500
_audit_creation_method            fapswitch 2.2
_symmetry_space_group_name_H-M    P1
_symmetry_Int_Tables_number       1
_space_group_crystal_system       triclinic
_cell_length_a                    14.693557
_cell_length_b                    14.698966
_cell_length_c                    27.734609
_cell_angle_alpha                 76.772518
_cell_angle_beta                  102.789376
_cell_angle_gamma                 114.769644
_cell_volume                      5241.08821082

loop_
_atom_site_label
_atom_site_type_symbol
_atom_type_description
_atom_site_fract_x
_atom_site_fract_y
_atom_site_fract_z
_atom_type_partial_charge
C1    C     C_R   0.880352 0.312250 0.507999 0.800960
C2    C     C_R   0.119668 0.687765 0.491272 0.802645
C3    C     C_R   0.995238 0.490808 0.899044 -0.071884
C4    C     C_R   0.007792 0.501391 0.102151 -0.073582
C5    C     C_R   0.946211 0.398461 0.879454 -0.092142
C6    C     C_R   0.072882 0.588701 0.124051 -0.080618
C7    C     C_R   0.900215 0.307018 0.911986 0.081987
C8    C     C_R   0.136654 0.674398 0.094124 0.082126
C9    C     C_R   0.034582 0.583235 0.866858 -0.006736
C10   C     C_R   0.938354 0.418690 0.129915 -0.015837
C11   C     C_R   0.996995 0.497367 0.645678 -0.097294
C12   C     C_R   0.002441 0.501768 0.354366 -0.106464
C13   C     C_R   0.948291 0.407470 0.031200 0.060458
C14   C     C_R   0.057326 0.583755 0.970413 0.061610
C15   C     C_R   0.073638 0.582171 0.022881 -0.024624
C16   C     C_R   0.958234 0.400674 0.982573 -0.025368
C17   C     C_R   0.009733 0.497282 0.052004 0.035715
C18   C     C_R   0.003108 0.491660 0.950658 0.036006
C19   C     C_R   0.873654 0.330550 0.058103 -0.206581
C20   C     C_R   0.086851 0.675118 0.936895 -0.207931
C21   C     C_R   0.869692 0.335234 0.107017 -0.156082
C22   C     C_R   0.077114 0.674929 0.885945 -0.155405
C23   C     C_R   0.999300 0.499597 0.592555 0.828917
C24   C     C_R   0.000649 0.500323 0.407451 0.829540
C25   C     C_R   0.924277 0.307309 0.964328 0.066037
C26   C     C_R   0.149967 0.662039 0.047326 0.063503
C27   C     C_R   0.812776 0.204945 0.509103 -0.052491
C28   C     C_R   0.187235 0.795417 0.484526 -0.051820
C29   C     C_R   0.783300 0.030028 0.509869 -0.191605
C30   C     C_R   0.215718 0.973373 0.467138 -0.192750
C31   C     C_R   0.850222 0.129921 0.512944 -0.189987
C32   C     C_R   0.149336 0.871991 0.472491 -0.191815
C33   C     C_R   0.708288 0.178882 0.502982 -0.242097
C34   C     C_R   0.291664 0.821201 0.490042 -0.248038
C35   C     C_R   0.639139 0.079877 0.497292 0.091629
C36   C     C_R   0.360008 0.922721 0.483226 0.090147
C37   C     C_R   0.678332 0.004526 0.501933 0.161779
C38   C     C_R   0.320536 0.999254 0.473018 0.163016
C39   C     C_R   0.532525 0.053696 0.487687 0.065332
C40   C     C_R   0.466384 0.950041 0.487853 0.066253
C41   C     C_R   0.508646 0.877500 0.491685 -0.215417
C42   C     C_R   0.489888 0.127824 0.476766 -0.215828
C43   C     C_R   0.612578 0.904663 0.498286 -0.223239
C44   C     C_R   0.385916 0.100810 0.469093 -0.222512
C45   C     C_R   0.951999 0.401194 0.828745 0.561601
C46   C     C_R   0.075683 0.583512 0.176004 0.523724
C47   C     C_R   0.716070 0.669740 0.417527 -0.316389
C48   C     C_R   0.284381 0.330950 0.582807 -0.318092
C49   C     C_R   0.797313 0.639491 0.430247 0.077280
C50   C     C_R   0.202927 0.360869 0.569933 0.073373
C51   C     C_R   0.714628 0.508822 0.492848 0.005417
C52   C     C_R   0.285362 0.491199 0.507140 0.005524
C53   C     C_R   0.628801 0.535276 0.481475 -0.021013
C54   C     C_R   0.371415 0.465103 0.518679 -0.021775
C55   C     C_R   0.631910 0.618387 0.443119 0.163018
C56   C     C_R   0.368498 0.382271 0.557182 0.163837
C57   C     C_R   0.541327 0.483516 0.506795 0.076108
C58   C     C_R   0.458949 0.516962 0.493403 0.078071
C59   C     C_R   0.467087 0.601234 0.455380 -0.240116
C60   C     C_R   0.533318 0.399431 0.544922 -0.239013
C61   C     C_R   0.551602 0.650356 0.430752 -0.198518
C62   C     C_R   0.448953 0.350526 0.569662 -0.193710
C63   C     C_R   0.028825 0.581991 0.815994 0.568522
C64   C     C_R   0.937304 0.422549 0.179694 0.591016
C65   C     C_R   0.916669 0.509974 0.710070 -0.207871
C66   C     C_R   0.075757 0.477806 0.290283 -0.181403
C67   C     C_R   0.918636 0.511954 0.659854 -0.215762
C68   C     C_R   0.074668 0.476981 0.340516 -0.222639
C69   C     C_R   0.073022 0.480115 0.682683 -0.321028
C70   C     C_R   0.931997 0.528349 0.317015 -0.297225
C71   C     C_R   0.070043 0.475495 0.733568 0.551477
C72   C     C_R   0.934295 0.531339 0.266463 0.540778
C73   C     C_R   0.992275 0.492546 0.746823 0.292521
C74   C     C_R   0.005351 0.504122 0.253244 0.274700
Cu1   Cu    Cu3+1 0.081740 0.475690 0.513040 0.938120
Cu2   Cu    Cu3+1 0.918260 0.524310 0.486960 0.939831
H1    H     H_    0.135201 0.471567 0.672023 0.168755
H2    H     H_    0.875193 0.547101 0.326793 0.174940
H3    H     H_    0.318219 0.760483 0.501174 0.151326
H4    H     H_    0.682794 0.237453 0.503302 0.145039
H5    H     H_    0.068732 0.853644 0.467907 0.153461
H6    H     H_    0.930902 0.148560 0.517703 0.154952
H7    H     H_    0.813590 0.972835 0.513046 0.135996
H8    H     H_    0.185157 0.031665 0.458752 0.135346
H9    H     H_    0.463437 0.799119 0.488135 0.142039
H10   H     H_    0.534583 0.208129 0.472332 0.147675
H11   H     H_    0.554247 0.714586 0.401741 0.148868
H12   H     H_    0.446501 0.286584 0.598831 0.145487
H13   H     H_    0.279687 0.551290 0.477679 0.121945
H14   H     H_    0.720133 0.448469 0.522173 0.120183
H15   H     H_    0.137545 0.320813 0.589368 0.124854
H16   H     H_    0.862756 0.679620 0.410857 0.122537
H17   H     H_    0.719298 0.733356 0.388066 0.140782
H18   H     H_    0.281349 0.267606 0.612411 0.140086
H19   H     H_    0.409279 0.631759 0.443688 0.131807
H20   H     H_    0.591185 0.368992 0.556677 0.132250
H21   H     H_    0.129938 0.456325 0.368468 0.170935
H22   H     H_    0.858972 0.525229 0.632167 0.169498
H23   H     H_    0.131058 0.457560 0.280057 0.160998
H24   H     H_    0.856352 0.522145 0.720548 0.155681
H25   H     H_    0.812042 0.273424 0.126683 0.182468
H26   H     H_    0.102742 0.747054 0.861556 0.181934
H27   H     H_    0.814269 0.268972 0.040690 0.135448
H28   H     H_    0.112710 0.747414 0.949393 0.135364
H29   H     H_    0.641650 0.846736 0.500839 0.152027
H30   H     H_    0.356550 0.160041 0.460724 0.149626
N1    N     N_R   0.989820 0.491905 0.798288 -0.440848
N2    N     N_R   0.006043 0.503467 0.201724 -0.442030
N3    N     N_R   0.795430 0.560780 0.467350 -0.176213
N4    N     N_R   0.204570 0.439220 0.532650 -0.176753
O1    O     O_R   0.977900 0.338120 0.517190 -0.589364
O2    O     O_R   0.022100 0.661880 0.482810 -0.589340
O3    O     O_R   0.839850 0.379180 0.495160 -0.587791
O4    O     O_R   0.160150 0.620820 0.504840 -0.588839
O5    O     O_R   0.069030 0.479490 0.580750 -0.584012
O6    O     O_R   0.930970 0.520510 0.419250 -0.583387
O7    O     O_R   0.930970 0.520550 0.558720 -0.585948
O8    O     O_R   0.069030 0.479450 0.441280 -0.586259
O9    O     O_2   0.926000 0.314804 0.810470 -0.576299
O10   O     O_2   0.149979 0.654393 0.201457 -0.573650
O11   O     O_2   0.869425 0.345265 0.206289 -0.533238
O12   O     O_2   0.064179 0.669923 0.784574 -0.541718
O13   O     O_3   0.146215 0.462992 0.770745 -0.569503
C75   C     C_3   0.157422 0.372889 0.769302 -0.288811
H31   H     H_    0.203043 0.384658 0.739733 0.150342
H32   H     H_    0.083175 0.307937 0.764166 0.179553
H33   H     H_    0.199386 0.352170 0.805640 0.193233
O14   O     O_3   0.863208 0.554786 0.229971 -0.562177
C76   C     C_3   0.894695 0.661120 0.219629 -0.330675
H34   H     H_    0.970253 0.697902 0.206609 0.172535
H35   H     H_    0.895800 0.692535 0.252750 0.155779
H36   H     H_    0.839692 0.680231 0.189013 0.196553
C77   C     C_3   0.817370 0.212840 0.892084 -0.352038
C78   C     C_3   0.722851 0.169879 0.918615 -0.406068
C79   C     C_3   0.638158 0.082039 0.894817 -0.827371
H37   H     H_    0.614535 0.108032 0.855007 0.257410
H38   H     H_    0.663954 0.019956 0.897032 0.257394
H39   H     H_    0.571676 0.052065 0.915077 0.242762
H40   H     H_    0.740665 0.141545 0.958691 0.219917
H41   H     H_    0.695011 0.230659 0.916202 0.228814
H42   H     H_    0.789064 0.231687 0.852239 0.246732
H43   H     H_    0.847739 0.153823 0.895119 0.203134
C80   C     C_3   0.180823 0.780932 0.108247 -0.347712
C81   C     C_3   0.161908 0.860304 0.064725 -0.404152
C82   C     C_3   0.197703 0.963362 0.081408 -0.843394
H44   H     H_    0.153926 0.958365 0.110517 0.257451
H45   H     H_    0.279562 0.990126 0.096595 0.260955
H46   H     H_    0.186190 0.019490 0.048868 0.245131
H47   H     H_    0.202796 0.870481 0.033522 0.220481
H48   H     H_    0.079602 0.834642 0.050361 0.227712
H49   H     H_    0.143406 0.783024 0.138258 0.243582
H50   H     H_    0.263052 0.803896 0.122069 0.204632
C83   C     C_3   0.936453 0.213856 0.998332 -0.409220
C84   C     C_3   0.045765 0.238510 0.024777 -0.323061
C85   C     C_3   0.059198 0.143714 0.055884 -0.858368
H51   H     H_    0.008627 0.110745 0.085209 0.258910
H52   H     H_    0.041487 0.086219 0.031608 0.253212
H53   H     H_    0.138826 0.163882 0.074368 0.247064
H54   H     H_    0.098585 0.271250 0.996418 0.221414
H55   H     H_    0.066258 0.294954 0.050042 0.228175
H56   H     H_    0.883651 0.179416 0.026302 0.187154
H57   H     H_    0.918816 0.153164 0.976123 0.202839
C86   C     C_3   0.254842 0.717879 0.030603 -0.410712
C87   C     C_3   0.300539 0.643325 0.026873 -0.326969
C88   C     C_3   0.408004 0.699226 0.013812 -0.836051
H58   H     H_    0.407966 0.749658 0.977243 0.257127
H59   H     H_    0.457994 0.745244 0.043236 0.251519
H60   H     H_    0.438633 0.643412 0.011147 0.246083
H61   H     H_    0.302352 0.592408 0.063221 0.221564
H62   H     H_    0.253713 0.595876 0.997499 0.229897
H63   H     H_    0.254414 0.769558 0.994826 0.187470
H64   H     H_    0.308033 0.766942 0.058146 0.203262

loop_
_geom_bond_atom_site_label_1
_geom_bond_atom_site_label_2
_ccdc_geom_bond_type
C79   H39   S    
C66   C68   A    
C88   H58   S    
C70   H2    S    
C8    C26   A    
C69   H1    S    
C14   C18   A    
C87   H62   S    
C86   C87   S    
O14   C76   S    
C82   H46   S    
C82   H44   S    
C52   H13   S    
O13   C75   S    
C47   C49   A    
C27   C33   A    
C84   H55   S    
C32   H5    S    
C12   C68   A    
C2    O2    A    
C77   H43   S    
C31   H6    S    
C1    O3    A    
C72   O14   S    
C71   O13   S    
C87   C88   S    
C35   C37   A    
C29   H7    S    
C75   H32   S    
C51   H14   S    
C78   H41   S    
C9    C22   A    
C73   N1    S    
C85   H52   S    
C64   O11   S    
C66   C74   A    
C26   C86   S    
C50   N4    A    
C65   C73   A    
C30   C38   A    
C3    C18   A    
C60   C62   A    
C43   H29   S    
C11   C23   S    
C69   C71   A    
C68   H21   S    
C81   H48   S    
C61   H11   S    
C67   H22   S    
Cu2   O6    S    
C19   H27   S    
C11   C67   A    
Cu2   N3    S    
C65   C67   A    
C46   N2    A    
C42   H10   S    
C52   N4    A    
C79   H37   S    
C76   H36   S    
C21   H25   S    
C45   O9    S    
C48   C50   A    
C28   C34   A    
C51   N3    A    
C79   H38   S    
C85   H53   S    
C41   C43   A    
C87   H61   S    
Cu1   O8    S    
C42   C44   A    
C82   H45   S    
C52   C54   A    
C64   N2    A    
C39   C42   A    
C53   C55   A    
C10   C21   A    
C54   C56   A    
C59   C61   A    
C13   C19   A    
C25   C83   S    
C14   C20   A    
C28   C32   A    
C4    C6    A    
C78   H40   S    
C5    C7    A    
C53   C57   A    
C15   C26   A    
C6    C8    A    
C58   C59   A    
C27   C31   A    
C83   H56   S    
C51   C53   A    
C66   H23   S    
C37   C43   A    
C35   C39   A    
Cu1   Cu2   S    
C38   C44   A    
C81   H47   S    
C3    C9    A    
C34   H3    S    
C36   C40   A    
Cu2   O2    S    
Cu2   O3    S    
C47   H17   S    
C46   O10   S    
C5    C45   A    
Cu1   O4    S    
C86   H64   S    
C84   C85   S    
C48   H18   S    
C59   H19   S    
C75   H33   S    
C4    C17   A    
C60   H20   S    
C72   C74   A    
C80   H50   S    
C20   C22   A    
C24   O6    A    
C88   H60   S    
C77   C78   S    
C29   C37   A    
C56   C62   A    
Cu1   O5    S    
C49   H16   S    
C4    C10   A    
C39   C40   A    
C63   O12   S    
C86   H63   S    
C47   C55   A    
C76   H34   S    
C54   C58   A    
C16   C25   A    
C48   C56   A    
C12   C70   A    
C40   C41   A    
Cu1   N4    S    
C6    C46   A    
C19   C21   A    
C9    C63   A    
Cu1   O1    S    
C16   C18   A    
C10   C64   A    
C65   H24   S    
C81   C82   S    
C3    C5    A    
C7    C25   A    
C23   O7    A    
C70   C72   A    
C11   C69   A    
C33   H4    S    
C7    C77   S    
C78   C79   S    
C20   H28   S    
C44   H30   S    
C41   H9    S    
C12   C24   S    
C24   O8    A    
Cu2   O7    S    
C22   H26   S    
C13   C17   A    
C83   H57   S    
C36   C38   A    
C49   N3    A    
C84   H54   S    
C29   C31   A    
C1    O1    A    
C30   C32   A    
C2    O4    A    
C57   C58   A    
C62   H12   S    
C55   C61   A    
C80   H49   S    
C33   C35   A    
C23   O5    A    
C8    C80   S    
C34   C36   A    
C30   H8    S    
C74   N2    S    
C45   N1    A    
C50   H15   S    
C57   C60   A    
C88   H59   S    
C13   C16   A    
C71   C73   A    
C85   H51   S    
C1    C27   S    
C14   C15   A    
C2    C28   S    
C77   H42   S    
C83   C84   S    
C15   C17   A    
C63   N1    A    
C80   C81   S    
C75   H31   S    
C76   H35   S    
