data_mof_unit_16298.cif
_audit_creation_date              2012-12-10T17:02:58-0500
_audit_creation_method            fapswitch 2.2
_symmetry_space_group_name_H-M    P1
_symmetry_Int_Tables_number       1
_space_group_crystal_system       triclinic
_cell_length_a                    9.993238
_cell_length_b                    11.076961
_cell_length_c                    13.374922
_cell_angle_alpha                 96.829288
_cell_angle_beta                  81.256682
_cell_angle_gamma                 112.272817
_cell_volume                      1351.10420778

loop_
_atom_site_label
_atom_site_type_symbol
_atom_type_description
_atom_site_fract_x
_atom_site_fract_y
_atom_site_fract_z
_atom_type_partial_charge
C1    C     C_R   0.558118 0.745752 0.506329 0.888614
C2    C     C_R   0.438216 0.489579 0.970166 0.059465
C3    C     C_R   0.466839 0.542504 0.874145 -0.021447
C4    C     C_R   0.546411 0.540568 0.038205 0.034757
C5    C     C_R   0.679435 0.644074 0.009793 -0.004462
C6    C     C_R   0.697030 0.706066 0.919938 0.211943
C7    C     C_R   0.585919 0.661096 0.856732 0.190183
C8    C     C_R   0.525595 0.492527 0.134376 -0.238684
C9    C     C_R   0.764598 0.643574 0.171985 0.140802
C10   C     C_R   0.373067 0.476360 0.799109 -0.062898
C11   C     C_2   0.591090 0.886407 0.509338 -0.308893
C12   C     C_R   0.422942 0.489947 0.690353 0.836569
C13   C     C_2   0.486824 0.928537 0.494919 -0.145522
C14   C     C_2   0.405920 0.111771 0.488726 0.016674
C15   C     C_2   0.512065 0.067762 0.498070 -0.136767
C16   C     C_2   0.927911 0.491373 0.494721 0.004108
C17   C     C_2   0.081604 0.512955 0.513011 0.229556
C18   C     C_R   0.441804 0.253821 0.492664 0.834434
C19   C     C_R   0.578592 0.516814 0.310087 0.789899
C20   C     C_R   0.789013 0.689130 0.075091 -0.114674
C21   C     C_R   0.628283 0.547515 0.203214 -0.061217
C22   C     C_R   0.238536 0.377975 0.826096 -0.176623
C23   C     C_R   0.201855 0.336869 0.923788 -0.117229
C24   C     C_R   0.301502 0.388387 0.994278 -0.141758
Cu1   Cu    Cu3+1 0.362000 0.479240 0.482530 0.940234
Cu2   Cu    Cu3+1 0.638000 0.520760 0.517470 0.951742
H1    H     H_    0.380253 0.858346 0.480563 0.194084
H2    H     H_    0.698877 0.954840 0.523682 0.161819
H3    H     H_    0.880243 0.415225 0.437459 0.102313
H4    H     H_    0.105681 0.386193 0.397448 0.164149
H5    H     H_    0.892728 0.764558 0.053226 0.187264
H6    H     H_    0.426941 0.415038 0.160444 0.146861
H7    H     H_    0.164501 0.327911 0.770111 0.165408
H8    H     H_    0.266541 0.346895 0.066851 0.126147
H9    H     H_    0.098218 0.259724 0.943658 0.170272
H10   H     H_    0.621516 0.136075 0.508480 0.157900
N1    N     N_2   0.845330 0.551960 0.543750 -0.157658
N2    N     N_2   0.154690 0.448120 0.456210 -0.294049
O1    O     O_R   0.426290 0.668220 0.490680 -0.591132
O2    O     O_R   0.659360 0.703290 0.520190 -0.573586
O3    O     O_R   0.326580 0.473880 0.629020 -0.591582
O4    O     O_R   0.559660 0.508940 0.658530 -0.557033
O5    O     O_R   0.340640 0.296710 0.479810 -0.566541
O6    O     O_R   0.573710 0.331780 0.509320 -0.593635
O7    O     O_R   0.440340 0.491060 0.341470 -0.573424
O8    O     O_R   0.673420 0.526120 0.370980 -0.577335
C25   C     C_3   0.881841 0.704867 0.241580 -0.820283
H11   H     H_    0.916492 0.628851 0.264053 0.243905
H12   H     H_    0.979953 0.780078 0.204444 0.220637
H13   H     H_    0.840731 0.753509 0.310000 0.238922
C26   C     C_3   0.251695 0.019038 0.475322 -0.859955
H14   H     H_    0.177758 0.071142 0.470541 0.250868
H15   H     H_    0.251369 0.955906 0.404270 0.232130
H16   H     H_    0.206005 0.957230 0.541003 0.237228
C27   C     C_3   0.144294 0.605529 0.602042 -0.632576
H17   H     H_    0.080103 0.565192 0.673698 0.190569
H18   H     H_    0.253854 0.628881 0.616473 0.270518
H19   H     H_    0.153845 0.705519 0.591159 0.168865
C28   C     C_3   0.890817 0.665886 0.614517 -0.412997
H20   H     H_    0.798009 0.695552 0.642652 0.265119
H21   H     H_    0.917271 0.643705 0.685625 0.180208
H22   H     H_    0.972339 0.751426 0.576060 0.160819
Br1   Br    Br    0.868448 0.857918 0.884329 -0.524590
Br2   Br    Br    0.577793 0.780868 0.765844 -0.508432

loop_
_geom_bond_atom_site_label_1
_geom_bond_atom_site_label_2
_ccdc_geom_bond_type
C6    Br1   S    
C2    C4    A    
C23   C24   A    
C19   O7    A    
Cu2   N1    S    
C9    C25   S    
C6    C7    A    
C18   O6    A    
Cu1   N2    S    
C14   C18   S    
C9    C20   A    
C23   H9    S    
C14   C26   S    
C1    C11   S    
C16   N1    D    
C4    C8    A    
C26   H16   S    
C9    C21   A    
Cu1   O5    S    
C27   H17   S    
C13   C15   S    
C8    C21   A    
C16   H3    S    
C19   O8    A    
Cu2   O6    S    
C28   H20   S    
C25   H12   S    
C3    C10   A    
C18   O5    A    
Cu1   O1    S    
C11   C13   D    
Cu2   O2    S    
N1    C28   S    
C10   C12   S    
C11   H2    S    
C17   C27   S    
C19   C21   S    
C2    C3    A    
C25   H13   S    
C3    C7    A    
C17   N2    D    
C27   H18   S    
C2    C24   A    
C5    C6    A    
C7    Br2   S    
C28   H21   S    
H4    N2    S    
C1    O1    A    
C26   H14   S    
C8    H6    S    
Cu1   O7    S    
C15   H10   S    
Cu2   O4    S    
C12   O3    A    
C27   H19   S    
Cu1   O3    S    
C5    C20   A    
C22   H7    S    
Cu2   O8    S    
C14   C15   D    
C13   H1    S    
C28   H22   S    
C12   O4    A    
C1    O2    A    
Cu1   Cu2   S    
C22   C23   A    
C10   C22   A    
C24   H8    S    
C25   H11   S    
C16   C17   S    
C4    C5    A    
C26   H15   S    
C20   H5    S    
