data_mof_unit_28076.cif
_audit_creation_date              2012-12-10T17:35:50-0500
_audit_creation_method            fapswitch 2.2
_symmetry_space_group_name_H-M    P1
_symmetry_Int_Tables_number       1
_space_group_crystal_system       triclinic
_cell_length_a                    10.508295
_cell_length_b                    11.989155
_cell_length_c                    12.886558
_cell_angle_alpha                 93.301229
_cell_angle_beta                  90.149854
_cell_angle_gamma                 85.713073
_cell_volume                      1616.28930273

loop_
_atom_site_label
_atom_site_type_symbol
_atom_type_description
_atom_site_fract_x
_atom_site_fract_y
_atom_site_fract_z
_atom_type_partial_charge
C1    C     C_R   0.497598 0.521995 0.700479 0.876743
C2    C     C_R   0.618377 0.159325 0.577769 0.059843
C3    C     C_R   0.559654 0.856587 0.534142 -0.063389
C4    C     C_R   0.440346 0.143413 0.465858 -0.063388
C5    C     C_R   0.548889 0.974507 0.529983 0.092895
C6    C     C_R   0.451111 0.025493 0.470017 0.092895
C7    C     C_R   0.742692 0.499531 0.499968 0.914447
C8    C     C_R   0.257308 0.500469 0.500032 0.914447
C9    C     C_3   0.971023 0.395259 0.504637 0.662956
C10   C     C_3   0.028977 0.604741 0.495363 0.662959
C11   C     C_3   0.046838 0.457308 0.588901 -0.327180
C12   C     C_R   0.502402 0.478005 0.299521 0.876742
C13   C     C_3   0.953162 0.542692 0.411099 -0.327175
C14   C     C_3   0.122482 0.501529 0.499997 -0.120686
C15   C     C_3   0.877518 0.498471 0.500003 -0.120685
C16   C     C_3   0.048131 0.437681 0.415817 -0.332321
C17   C     C_3   0.951869 0.562319 0.584183 -0.332322
C18   C     C_R   0.503015 0.464942 0.188186 -0.047429
C19   C     C_R   0.496985 0.535058 0.811814 -0.047428
C20   C     C_R   0.518951 0.648041 0.970141 -0.222999
C21   C     C_R   0.481049 0.351959 0.029859 -0.222999
C22   C     C_R   0.512993 0.639385 0.862732 -0.203494
C23   C     C_R   0.484470 0.439963 0.867545 -0.281605
C24   C     C_R   0.487007 0.360615 0.137268 -0.203494
C25   C     C_3   0.036995 0.208480 0.511171 -0.322098
C26   C     C_3   0.963004 0.791522 0.488837 -0.322101
C27   C     C_R   0.515530 0.560037 0.132455 -0.281605
C28   C     C_R   0.491154 0.447610 0.974192 0.186067
C29   C     C_R   0.508846 0.552390 0.025808 0.186067
C30   C     C_R   0.367134 0.957498 0.415801 -0.343293
C31   C     C_R   0.632866 0.042502 0.584199 -0.343293
C32   C     C_R   0.381623 0.840675 0.422231 0.059843
H1    H     H_    0.089747 0.422125 0.659921 0.159295
H2    H     H_    0.467785 0.271278 0.990541 0.139308
H3    H     H_    0.366308 0.183916 0.419503 0.119364
H4    H     H_    0.633692 0.816083 0.580497 0.119365
H5    H     H_    0.683716 0.211454 0.619155 0.156251
H6    H     H_    0.316284 0.788546 0.380845 0.156252
H7    H     H_    0.290801 0.994226 0.369165 0.141605
H8    H     H_    0.709199 0.005774 0.630835 0.141604
H9    H     H_    0.098189 0.224992 0.580078 0.165930
H10   H     H_    0.093711 0.207809 0.438375 0.156950
H11   H     H_    0.003231 0.123515 0.516577 0.185978
H12   H     H_    0.910253 0.577875 0.340079 0.159296
H13   H     H_    0.906299 0.792197 0.561638 0.156948
H14   H     H_    0.901798 0.775011 0.419935 0.165930
H15   H     H_    0.996769 0.876485 0.483424 0.185979
H16   H     H_    0.092146 0.386977 0.348623 0.155419
H17   H     H_    0.907854 0.613023 0.651377 0.155418
H18   H     H_    0.529346 0.640671 0.171857 0.161472
H19   H     H_    0.470654 0.359329 0.828143 0.161472
H20   H     H_    0.477119 0.286698 0.180252 0.161406
H21   H     H_    0.522881 0.713302 0.819748 0.161406
H22   H     H_    0.532215 0.728722 0.009459 0.139308
N1    N     N_R   0.523490 0.207800 0.519350 -0.103929
N2    N     N_R   0.476510 0.792200 0.480650 -0.103929
O1    O     O_R   0.506270 0.421700 0.658830 -0.633617
O2    O     O_3   0.070175 0.713676 0.490368 -0.599066
O3    O     O_R   0.493730 0.578300 0.341170 -0.633617
O4    O     O_R   0.491200 0.609310 0.646410 -0.625513
O5    O     O_R   0.508800 0.390690 0.353590 -0.625512
O6    O     O_R   0.693580 0.406210 0.506230 -0.580411
O7    O     O_R   0.306420 0.593790 0.493770 -0.580411
O8    O     O_R   0.678510 0.593830 0.493810 -0.642469
O9    O     O_R   0.321490 0.406170 0.506190 -0.642469
O10   O     O_3   0.929825 0.286323 0.509631 -0.599067
Zn1   Zn    Zn3+2 0.510060 0.374730 0.508290 0.953567
Zn2   Zn    Zn3+2 0.489940 0.625270 0.491710 0.953567

loop_
_geom_bond_atom_site_label_1
_geom_bond_atom_site_label_2
_ccdc_geom_bond_type
C25   H10   S    
C24   H20   S    
N1    Zn1   S    
C7    O6    A    
C32   H6    S    
O3    Zn2   S    
C27   C29   A    
C9    C11   S    
C3    N2    A    
O5    Zn1   S    
C23   H19   S    
C26   H13   S    
C27   H18   S    
C2    N1    A    
C16   H16   S    
C7    C15   S    
C9    C15   S    
C4    H3    S    
C8    O9    A    
C23   C28   A    
C9    O10   S    
C30   C32   A    
C12   O5    A    
C26   O2    S    
C2    H5    S    
C25   H11   S    
C3    H4    S    
O1    Zn1   S    
C18   C24   A    
O8    Zn2   S    
C4    C6    A    
C28   C29   A    
C10   O2    S    
C9    C16   S    
C20   C22   A    
C30   H7    S    
C22   H21   S    
C1    O1    A    
C20   C29   A    
C13   C15   S    
C4    N1    A    
C5    C6    A    
C1    O4    A    
C11   C14   S    
C14   C16   S    
C7    O8    A    
C1    C19   S    
O6    Zn1   S    
C21   C24   A    
C10   C17   S    
C12   C18   S    
C3    C5    A    
C25   O10   S    
C11   H1    S    
C19   C22   A    
C31   H8    S    
O4    Zn2   S    
C20   H22   S    
C10   C14   S    
C13   C16   S    
C25   H9    S    
C21   C28   A    
C15   C17   S    
C26   H14   S    
C19   C23   A    
C11   C17   S    
C8    C14   S    
C21   H2    S    
C8    O7    A    
C26   H15   S    
C6    C30   A    
O7    Zn2   S    
N2    Zn2   S    
C12   O3    A    
C32   N2    A    
C13   H12   S    
C17   H17   S    
C18   C27   A    
O9    Zn1   S    
C2    C31   A    
C5    C31   A    
C10   C13   S    
