data_mof_unit_21230.cif
_audit_creation_date              2012-12-10T16:51:18-0500
_audit_creation_method            fapswitch 2.2
_symmetry_space_group_name_H-M    P1
_symmetry_Int_Tables_number       1
_space_group_crystal_system       triclinic
_cell_length_a                    27.849666
_cell_length_b                    8.675965
_cell_length_c                    7.426994
_cell_angle_alpha                 103.255522
_cell_angle_beta                  94.024284
_cell_angle_gamma                 92.477236
_cell_volume                      1739.15825368

loop_
_atom_site_label
_atom_site_type_symbol
_atom_type_description
_atom_site_fract_x
_atom_site_fract_y
_atom_site_fract_z
_atom_type_partial_charge
C1    C     C_R   0.498557 0.199495 0.452940 0.873724
C2    C     C_R   0.501489 0.800508 0.547053 0.874136
C3    C     C_R   0.100716 0.506632 0.496261 -0.095944
C4    C     C_R   0.896961 0.521523 0.475622 -0.070250
C5    C     C_R   0.122802 0.361363 0.442415 -0.049042
C6    C     C_R   0.874891 0.661051 0.561140 -0.089128
C7    C     C_R   0.093543 0.220810 0.371817 0.174090
C8    C     C_R   0.904741 0.798365 0.647818 0.161753
C9    C     C_R   0.129805 0.648739 0.555654 -0.024049
C10   C     C_R   0.867892 0.384073 0.387110 -0.029078
C11   C     C_R   0.353849 0.496574 0.506756 -0.176384
C12   C     C_R   0.645222 0.503956 0.490480 -0.174110
C13   C     C_R   0.969491 0.374987 0.400151 0.062173
C14   C     C_R   0.028202 0.656450 0.555419 0.067072
C15   C     C_R   0.977274 0.657984 0.560217 -0.018235
C16   C     C_R   0.020499 0.369128 0.416066 0.018367
C17   C     C_R   0.948062 0.518337 0.478637 0.073224
C18   C     C_R   0.049634 0.510598 0.489457 0.082611
C19   C     C_R   0.938964 0.242067 0.306911 -0.197836
C20   C     C_R   0.058664 0.796493 0.613450 -0.237315
C21   C     C_R   0.889266 0.246803 0.301005 -0.139077
C22   C     C_R   0.108372 0.792264 0.613389 -0.148330
C23   C     C_R   0.407271 0.498690 0.502436 0.907608
C24   C     C_R   0.592417 0.500676 0.497240 0.936302
C25   C     C_R   0.043445 0.225753 0.361027 -0.267262
C26   C     C_R   0.954599 0.794768 0.646439 -0.178337
C27   C     C_2   0.497887 0.031433 0.426519 -0.333886
C28   C     C_2   0.502225 0.968575 0.573463 -0.331751
C29   C     C_R   0.173646 0.362433 0.460504 0.656097
C30   C     C_R   0.823907 0.655736 0.558339 0.622728
C31   C     C_R   0.179962 0.644871 0.552707 0.608923
C32   C     C_R   0.817735 0.386257 0.386477 0.603415
C33   C     C_R   0.281882 0.557523 0.675171 0.015904
C34   C     C_R   0.724441 0.442986 0.607809 0.008550
C35   C     C_R   0.332811 0.555729 0.675327 0.267283
C36   C     C_R   0.673667 0.435119 0.612484 0.271086
C37   C     C_R   0.324038 0.439122 0.339919 0.205932
C38   C     C_R   0.666913 0.580426 0.365567 0.207024
C39   C     C_R   0.273336 0.439756 0.342425 0.298420
C40   C     C_R   0.717461 0.580274 0.355520 0.313951
C41   C     C_R   0.252715 0.501533 0.508744 0.259739
C42   C     C_R   0.745640 0.515470 0.479881 0.274213
Cu1   Cu    Cu3+1 0.505380 0.517380 0.684380 1.024445
Cu2   Cu    Cu3+1 0.494620 0.482620 0.315620 1.024417
H1    H     H_    0.462123 0.378210 0.948203 0.243751
H2    H     H_    0.537839 0.621909 0.051822 0.254087
H3    H     H_    0.867576 0.141085 0.228863 0.190206
H4    H     H_    0.130032 0.903054 0.659028 0.199133
H5    H     H_    0.952189 0.132589 0.232935 0.143720
H6    H     H_    0.045299 0.912943 0.654557 0.139923
H7    H     H_    0.023549 0.112991 0.311372 0.139381
H8    H     H_    0.974809 0.901930 0.720392 0.155539
H9    H     H_    0.493808 0.959158 0.285185 0.183538
H10   H     H_    0.506311 0.040850 0.714795 0.183224
N1    N     N_R   0.200964 0.502999 0.508767 -0.423334
N2    N     N_R   0.797023 0.519712 0.473291 -0.403283
N3    N     N_2   0.486510 0.456430 0.038510 -0.197958
N4    N     N_2   0.513490 0.543570 0.961490 -0.199494
O1    O     O_R   0.503500 0.286120 0.619780 -0.589253
O2    O     O_R   0.496500 0.713880 0.380220 -0.589560
O3    O     O_R   0.494410 0.256780 0.308360 -0.589007
O4    O     O_R   0.505590 0.743220 0.691640 -0.588558
O5    O     O_R   0.434810 0.514700 0.655690 -0.547763
O6    O     O_R   0.565190 0.485300 0.344310 -0.557744
O7    O     O_R   0.425720 0.485350 0.344280 -0.530712
O8    O     O_R   0.574280 0.514650 0.655720 -0.541734
O9    O     O_2   0.195870 0.224777 0.431430 -0.465868
O10   O     O_2   0.800938 0.783552 0.640346 -0.536798
O11   O     O_2   0.789668 0.255580 0.300925 -0.529589
O12   O     O_2   0.207591 0.782009 0.592466 -0.508897
O13   O     O_3   0.345249 0.381628 0.176977 -0.691826
H11   H     H_    0.324586 0.400142 0.071104 0.333459
O14   O     O_3   0.638116 0.659060 0.261283 -0.716657
H12   H     H_    0.657369 0.749593 0.236758 0.344162
O15   O     O_3   0.242696 0.379937 0.185011 -0.712665
H13   H     H_    0.257379 0.288804 0.106765 0.351999
O16   O     O_3   0.740591 0.640161 0.225377 -0.706774
H14   H     H_    0.717612 0.634705 0.115859 0.336412
N5    N     N_3   0.114144 0.072345 0.302142 -0.495735
H15   H     H_    0.100490 0.989774 0.370795 0.220628
H16   H     H_    0.102550 0.033039 0.161333 0.222903
N6    N     N_3   0.886322 0.945050 0.739932 -0.579715
H17   H     H_    0.864155 0.987596 0.644979 0.274680
H18   H     H_    0.867282 0.926920 0.850426 0.264186
O17   O     O_3   0.650506 0.360142 0.730927 -0.692731
H19   H     H_    0.674124 0.320063 0.811822 0.337382
O18   O     O_3   0.363008 0.613321 0.835247 -0.690835
H20   H     H_    0.344345 0.652589 0.942871 0.332373
N7    N     N_3   0.755417 0.376380 0.728903 -0.556263
H21   H     H_    0.750452 0.430972 0.866510 0.246337
H22   H     H_    0.746442 0.254723 0.704852 0.255520
N8    N     N_3   0.258689 0.614071 0.842333 -0.537772
H23   H     H_    0.268211 0.546349 0.937154 0.238454
H24   H     H_    0.270014 0.732953 0.898311 0.256355

loop_
_geom_bond_atom_site_label_1
_geom_bond_atom_site_label_2
_ccdc_geom_bond_type
C22   H4    S    
O18   H20   S    
C8    C26   A    
O14   H12   S    
C14   C18   A    
C34   C42   A    
Cu1   Cu2   S    
Cu1   O5    S    
C39   C41   A    
O17   H19   S    
Cu2   O6    S    
H1    N3    S    
C8    N6    S    
C7    N5    S    
C19   C21   A    
C1    O1    A    
C2    O2    A    
C9    C22   A    
C3    C18   A    
C11   C23   S    
C11   C37   A    
C41   N1    S    
C20   H6    S    
Cu1   N4    S    
C42   N2    S    
C29   O9    S    
C35   O18   S    
C31   O12   S    
C39   O15   S    
C12   C36   A    
Cu1   O1    S    
C23   O5    A    
C24   O6    A    
H2    N4    S    
Cu2   O7    S    
C5    C29   A    
C10   C21   A    
C13   C19   A    
C14   C20   A    
C4    C6    A    
C33   N8    S    
N5    H16   S    
C28   H10   S    
C15   C26   A    
C6    C8    A    
C29   N1    A    
O16   H14   S    
C30   N2    A    
O15   H13   S    
C25   H7    S    
C3    C9    A    
C26   H8    S    
C19   H5    S    
Cu2   N3    S    
N8    H24   S    
C4    C17   A    
C6    C30   A    
C20   C22   A    
N6    H18   S    
C37   O13   S    
C36   O17   S    
N7    H22   S    
C4    C10   A    
C5    C7    A    
C16   C25   A    
C15   C17   A    
C40   O16   S    
C3    C5    A    
C1    O3    A    
C27   H9    S    
C32   O11   S    
C24   O8    A    
Cu2   O3    S    
C12   C24   S    
C7    C25   A    
C13   C17   A    
C33   C41   A    
C23   O7    A    
C11   C35   A    
C34   N7    S    
O13   H11   S    
C37   C39   A    
C38   C40   A    
N3    N4    D    
Cu2   O2    S    
Cu1   O8    S    
C40   C42   A    
N8    H23   S    
C33   C35   A    
C34   C36   A    
C12   C38   A    
C9    C31   A    
N5    H15   S    
C10   C32   A    
C16   C18   A    
N6    H17   S    
C13   C16   A    
C27   C28   D    
C1    C27   S    
C14   C15   A    
C2    C28   S    
C31   N1    A    
N7    H21   S    
C32   N2    A    
C30   O10   S    
C2    O4    A    
Cu1   O4    S    
C21   H3    S    
C38   O14   S    
