data_mof_unit_39326.cif
_audit_creation_date              2013-03-05T16:04:55-0500
_audit_creation_method            fapswitch 2.2
_symmetry_space_group_name_H-M    P1
_symmetry_Int_Tables_number       1
_space_group_crystal_system       triclinic
_cell_length_a                    23.144601
_cell_length_b                    20.604643
_cell_length_c                    15.040232
_cell_angle_alpha                 89.896078
_cell_angle_beta                  100.403045
_cell_angle_gamma                 89.947063
_cell_volume                      7054.5602746

loop_
_atom_site_label
_atom_site_type_symbol
_atom_site_description
_atom_site_fract_x
_atom_site_fract_y
_atom_site_fract_z
_atom_type_partial_charge
O1    O     O_R   0.541320 0.066090 0.608930 -0.569812
O2    O     O_R   0.458680 0.933910 0.391070 -0.563416
O3    O     O_R   0.458680 0.066090 0.391070 -0.588172
O4    O     O_R   0.541320 0.933910 0.608930 -0.570384
O5    O     O_R   0.041320 0.566090 0.608930 -0.586344
O6    O     O_R   0.958680 0.433910 0.391070 -0.572959
O7    O     O_R   0.958680 0.566090 0.391070 -0.578321
O8    O     O_R   0.041320 0.433910 0.608930 -0.561636
O9    O     O_R   0.572880 0.066110 0.470280 -0.576695
O10   O     O_R   0.427120 0.933890 0.529720 -0.551710
O11   O     O_R   0.427120 0.066110 0.529720 -0.578737
O12   O     O_R   0.572880 0.933890 0.470280 -0.555978
O13   O     O_R   0.072880 0.566110 0.470280 -0.577280
O14   O     O_R   0.927120 0.433890 0.529720 -0.552326
O15   O     O_R   0.927120 0.566110 0.529720 -0.572152
O16   O     O_R   0.072880 0.433890 0.470280 -0.553375
C1    C     C_R   0.576332 0.086299 0.554739 0.968997
C2    C     C_R   0.426853 0.909688 0.447650 0.955827
C3    C     C_R   0.423206 0.085337 0.444697 0.977420
C4    C     C_R   0.573721 0.910196 0.553350 0.926878
C5    C     C_R   0.076656 0.585442 0.555113 0.980481
C6    C     C_R   0.926002 0.410561 0.446699 0.917348
C7    C     C_R   0.924257 0.587013 0.445495 0.955529
C8    C     C_R   0.072937 0.409575 0.552334 0.960836
Zn1   Zn    Zn3+2 0.478910 0.000000 0.592580 1.119107
Zn2   Zn    Zn3+2 0.521090 0.000000 0.407420 1.112452
Zn3   Zn    Zn3+2 0.978910 0.500000 0.592580 1.114549
Zn4   Zn    Zn3+2 0.021090 0.500000 0.407420 1.116052
C9    C     C_R   0.612089 0.853513 0.586458 -0.240504
C10   C     C_R   0.369676 0.119837 0.402615 -0.225833
C11   C     C_R   0.389619 0.851711 0.418292 -0.234593
C12   C     C_R   0.628883 0.123692 0.594898 -0.204684
C13   C     C_R   0.109697 0.351290 0.581616 -0.234641
C14   C     C_R   0.875335 0.630320 0.407327 -0.259472
C15   C     C_R   0.887316 0.354300 0.414187 -0.240918
C16   C     C_R   0.129865 0.620382 0.596736 -0.225335
C17   C     C_R   0.671073 0.791163 0.709745 -0.116558
C18   C     C_R   0.274128 0.108974 0.303471 -0.122730
C19   C     C_R   0.332020 0.785098 0.299260 -0.115149
C20   C     C_R   0.724016 0.113515 0.695131 -0.130118
C21   C     C_R   0.169256 0.286011 0.700251 -0.113453
C22   C     C_R   0.786463 0.645688 0.294571 -0.158495
C23   C     C_R   0.827454 0.293242 0.291233 -0.117897
C24   C     C_R   0.225033 0.610543 0.697279 -0.124308
C25   C     C_R   0.626377 0.837005 0.680092 0.243192
C26   C     C_R   0.333658 0.091944 0.326836 0.202431
C27   C     C_R   0.376339 0.831632 0.326289 0.260732
C28   C     C_R   0.663346 0.101292 0.675797 0.207051
C29   C     C_R   0.124313 0.332007 0.673878 0.254559
C30   C     C_R   0.844198 0.621523 0.318482 0.314379
C31   C     C_R   0.871260 0.339765 0.320553 0.222393
C32   C     C_R   0.165569 0.593477 0.673822 0.201840
C33   C     C_R   0.633607 0.813491 0.523652 0.228783
C34   C     C_R   0.347984 0.170230 0.449099 0.218355
C35   C     C_R   0.367036 0.814728 0.483560 0.230197
C36   C     C_R   0.652441 0.168539 0.541601 0.225658
C37   C     C_R   0.130751 0.313441 0.515896 0.231464
C38   C     C_R   0.853023 0.673451 0.464302 0.239392
C39   C     C_R   0.867456 0.312946 0.477335 0.239662
C40   C     C_R   0.151770 0.669841 0.548702 0.220524
C41   C     C_R   0.679909 0.769205 0.554554 -0.060863
C42   C     C_R   0.286482 0.179710 0.436401 0.001129
C43   C     C_R   0.322520 0.768323 0.455126 -0.054853
C44   C     C_R   0.714321 0.175480 0.553616 0.001855
C45   C     C_R   0.176851 0.268448 0.543695 -0.057240
C46   C     C_R   0.791472 0.683042 0.450257 0.046858
C47   C     C_R   0.822450 0.266933 0.447125 -0.054070
C48   C     C_R   0.213236 0.679207 0.561945 0.000453
C49   C     C_R   0.705267 0.768032 0.647590 0.060233
C50   C     C_R   0.250277 0.155400 0.356458 0.045069
C51   C     C_R   0.297534 0.764613 0.362393 0.051508
C52   C     C_R   0.750054 0.153176 0.635601 0.046086
C53   C     C_R   0.203132 0.265980 0.636128 0.051019
C54   C     C_R   0.757167 0.665739 0.364949 -0.107598
C55   C     C_R   0.795638 0.266782 0.354566 0.050397
C56   C     C_R   0.249070 0.656131 0.643199 0.045754
C57   C     C_R   0.704138 0.728696 0.495024 0.057334
C58   C     C_R   0.259799 0.210056 0.503466 0.130307
C59   C     C_R   0.298975 0.728911 0.516783 0.114974
C60   C     C_R   0.741483 0.203805 0.485375 0.131805
C61   C     C_R   0.200562 0.229214 0.482010 0.115022
C62   C     C_R   0.762953 0.708704 0.518514 0.133162
C63   C     C_R   0.800102 0.224483 0.507043 0.109758
C64   C     C_R   0.240234 0.708647 0.494522 0.130832
C65   C     C_R   0.289306 0.217081 0.593591 -0.143548
C66   C     C_R   0.669655 0.701960 0.417558 -0.038531
C67   C     C_R   0.712686 0.208827 0.394763 -0.152040
C68   C     C_R   0.333105 0.708207 0.598587 -0.187448
C69   C     C_R   0.790170 0.712266 0.609980 -0.151722
C70   C     C_R   0.166185 0.207318 0.401220 -0.187373
C71   C     C_R   0.211595 0.714038 0.403655 -0.145441
C72   C     C_R   0.834953 0.201215 0.586590 -0.182372
C73   C     C_R   0.261731 0.243505 0.660230 -0.004794
C74   C     C_R   0.695032 0.668652 0.353707 -0.049171
C75   C     C_R   0.738638 0.239651 0.329373 -0.008126
C76   C     C_R   0.308265 0.677249 0.664439 -0.010597
C77   C     C_R   0.762455 0.741512 0.674582 -0.005650
C78   C     C_R   0.190894 0.176058 0.335569 -0.010569
C79   C     C_R   0.239559 0.740452 0.337242 -0.005978
C80   C     C_R   0.810477 0.170846 0.653495 -0.012560
H1    H     H_    0.333703 0.199920 0.614742 0.187939
H2    H     H_    0.622279 0.703538 0.409594 0.212880
H3    H     H_    0.669621 0.188038 0.373142 0.183308
H4    H     H_    0.379979 0.716149 0.612436 0.183725
H5    H     H_    0.833078 0.691345 0.632957 0.179927
H6    H     H_    0.119161 0.214243 0.388020 0.182328
H7    H     H_    0.167615 0.695839 0.382052 0.187861
H8    H     H_    0.882021 0.207878 0.598568 0.181601
N1    N     N_R   0.549130 1.000000 0.284090 -0.180424
N2    N     N_R   0.450870 0.000000 0.715910 -0.182804
N3    N     N_R   0.049130 0.500000 0.284090 -0.180540
N4    N     N_R   0.950870 0.500000 0.715910 -0.179275
C81   C     C_R   0.631099 0.995873 0.207367 0.162044
C82   C     C_R   0.370128 0.002913 0.795123 0.109713
C83   C     C_R   0.130467 0.501953 0.205941 0.106219
C84   C     C_R   0.869387 0.501726 0.793662 0.156148
C85   C     C_R   0.608409 0.000795 0.286968 0.361788
C86   C     C_R   0.392168 0.007124 0.714932 0.397443
C87   C     C_R   0.108118 0.505252 0.285964 0.399255
C88   C     C_R   0.891679 0.502893 0.713494 0.364523
C89   C     C_R   0.510672 0.993463 0.206863 -0.022270
C90   C     C_R   0.489697 0.990238 0.792116 0.008597
C91   C     C_R   0.010317 0.493896 0.207152 0.008292
C92   C     C_R   0.989576 0.494353 0.793018 -0.020289
C93   C     C_R   0.530225 0.991524 0.123561 -0.038203
C94   C     C_R   0.470994 0.988758 0.875809 -0.020829
C95   C     C_R   0.029582 0.493571 0.123956 -0.021368
C96   C     C_R   0.970450 0.495877 0.876527 -0.037459
C97   C     C_R   0.591687 0.997489 0.123942 -0.027081
C98   C     C_R   0.409449 0.988764 0.876132 -0.097232
C99   C     C_R   0.091091 0.490584 0.124207 -0.094779
C100  C     C_R   0.909306 0.504926 0.876375 -0.025261
C101  C     C_R   0.490339 0.985774 0.040660 0.075838
C102  C     C_R   0.511547 0.989218 0.958388 0.122979
C103  C     C_R   0.989475 0.496973 0.041394 0.121816
C104  C     C_R   0.010407 0.490492 0.959339 0.078504
C105  C     C_R   0.572049 0.998861 0.960765 -0.200065
C106  C     C_R   0.429887 0.975543 0.037826 -0.120823
C107  C     C_R   0.070505 0.477516 0.962416 -0.121578
C108  C     C_R   0.929933 0.512262 0.038994 -0.197514
C109  C     C_R   0.611461 0.005791 0.041137 -0.020051
C110  C     C_R   0.389608 0.975158 0.957416 -0.030355
C111  C     C_R   0.110771 0.476501 0.042929 -0.029711
C112  C     C_R   0.890425 0.518348 0.958572 -0.040470
H9    H     H_    0.534345 0.982788 0.784120 0.220343
H10   H     H_    0.465570 0.991342 0.214038 0.213485
H11   H     H_    0.034581 0.490751 0.785536 0.213874
H12   H     H_    0.965128 0.488120 0.213746 0.212621
H13   H     H_    0.589888 0.006208 0.900492 0.202483
H14   H     H_    0.412511 0.965929 0.097494 0.238999
H15   H     H_    0.087540 0.466179 0.902941 0.237320
H16   H     H_    0.913662 0.525026 0.099074 0.206112
C113  C     C_2   0.299110 0.254548 0.750146 0.574481
H17   H     H_    0.336414 0.222974 0.773216 0.091416
O17   O     O_2   0.290785 0.300758 0.796979 -0.504879
C114  C     C_2   0.655858 0.631584 0.282230 0.451277
H18   H     H_    0.673191 0.591890 0.247657 0.089862
O18   O     O_2   0.603558 0.644280 0.262041 -0.481174
C115  C     C_2   0.700186 0.250550 0.240286 0.560353
H19   H     H_    0.666646 0.215154 0.214387 0.093027
O19   O     O_2   0.703030 0.300611 0.197731 -0.522581
C116  C     C_2   0.344282 0.676600 0.756683 0.540260
H20   H     H_    0.391708 0.671974 0.765455 0.098803
O20   O     O_2   0.321866 0.685685 0.823147 -0.532835
C117  C     C_2   0.798944 0.751069 0.765509 0.572303
H21   H     H_    0.833377 0.716452 0.791094 0.095936
O21   O     O_2   0.793374 0.799273 0.810321 -0.515315
C118  C     C_2   0.154357 0.174312 0.243743 0.538428
H22   H     H_    0.106995 0.169458 0.235789 0.098073
O22   O     O_2   0.176251 0.182723 0.176589 -0.534284
C119  C     C_2   0.202924 0.749852 0.246306 0.573477
H23   H     H_    0.166667 0.717071 0.223020 0.092949
O23   O     O_2   0.210593 0.796017 0.198782 -0.506999
C120  C     C_2   0.848703 0.168660 0.743867 0.556918
H24   H     H_    0.894919 0.156607 0.749830 0.093025
O24   O     O_2   0.830059 0.185040 0.811408 -0.518756
N5    N     N_R   0.387979 0.217764 0.496640 0.205273
O25   O     O_R   0.373262 0.278842 0.492698 -0.302884
O26   O     O_R   0.441016 0.202118 0.535589 -0.330188
N6    N     N_R   0.609429 0.819713 0.429013 0.214406
O27   O     O_R   0.642951 0.832696 0.370526 -0.302189
O28   O     O_R   0.553742 0.809165 0.400840 -0.343479
N7    N     N_R   0.613776 0.214822 0.488170 0.206266
O29   O     O_R   0.629162 0.275562 0.487634 -0.306889
O30   O     O_R   0.560567 0.199199 0.450300 -0.329230
N8    N     N_R   0.385704 0.828312 0.578068 0.210049
O31   O     O_R   0.347826 0.845687 0.627828 -0.320894
O32   O     O_R   0.440258 0.819020 0.615611 -0.356451
N9    N     N_R   0.892871 0.715489 0.522967 0.206840
O33   O     O_R   0.879658 0.776546 0.529165 -0.311593
O34   O     O_R   0.945747 0.696625 0.558076 -0.326845
N10   N     N_R   0.108565 0.324880 0.421524 0.208392
O35   O     O_R   0.143706 0.342488 0.367412 -0.325518
O36   O     O_R   0.053069 0.316069 0.389224 -0.362048
N11   N     N_R   0.111969 0.716693 0.498574 0.206546
O37   O     O_R   0.126639 0.777721 0.500189 -0.303756
O38   O     O_R   0.058996 0.700762 0.459936 -0.327701
N12   N     N_R   0.891165 0.320514 0.571847 0.209934
O39   O     O_R   0.857066 0.333434 0.629505 -0.302963
O40   O     O_R   0.946978 0.311134 0.600866 -0.361604
N13   N     N_R   0.356138 0.041723 0.277300 0.194355
O41   O     O_R   0.373083 0.056554 0.201985 -0.383307
O42   O     O_R   0.343539 0.981817 0.292747 -0.370279
N14   N     N_R   0.593089 0.862307 0.744160 0.208642
O43   O     O_R   0.539430 0.842673 0.741183 -0.323943
O44   O     O_R   0.619844 0.891251 0.816796 -0.392533
N15   N     N_R   0.636913 0.063542 0.737413 0.177383
O45   O     O_R   0.602093 0.091433 0.784632 -0.397228
O46   O     O_R   0.650543 0.002696 0.750524 -0.399175
N16   N     N_R   0.407000 0.857928 0.259808 0.208922
O47   O     O_R   0.461578 0.842212 0.261288 -0.312818
O48   O     O_R   0.377206 0.884518 0.187407 -0.371155
N17   N     N_R   0.870672 0.587724 0.253320 0.227098
O49   O     O_R   0.913537 0.614413 0.221222 -0.365494
O50   O     O_R   0.847620 0.533838 0.218898 -0.367924
N18   N     N_R   0.094105 0.358204 0.740958 0.209241
O51   O     O_R   0.039520 0.342874 0.739971 -0.325661
O52   O     O_R   0.124190 0.384567 0.813132 -0.368614
N19   N     N_R   0.142983 0.543826 0.724329 0.193981
O53   O     O_R   0.126092 0.559214 0.799438 -0.383679
O54   O     O_R   0.154807 0.483655 0.709228 -0.368691
N20   N     N_R   0.900721 0.369719 0.255092 0.198785
O55   O     O_R   0.952853 0.349675 0.247169 -0.328582
O56   O     O_R   0.871099 0.405561 0.191477 -0.380460
C121  C     C_2   0.674494 0.759655 0.799999 0.573776
H25   H     H_    0.660954 0.784936 0.855807 0.138241
O57   O     O_2   0.690325 0.703242 0.811889 -0.505784
C122  C     C_2   0.236827 0.067520 0.235236 0.625968
H26   H     H_    0.250768 0.056392 0.171834 0.151508
O58   O     O_2   0.192147 0.042402 0.251690 -0.522827
C123  C     C_2   0.328741 0.750994 0.210986 0.589573
H27   H     H_    0.345764 0.772953 0.155602 0.134554
O59   O     O_2   0.309387 0.695859 0.200586 -0.500734
C124  C     C_2   0.759058 0.075412 0.769910 0.605966
H28   H     H_    0.745803 0.073587 0.835522 0.107812
O60   O     O_2   0.800822 0.042740 0.757075 -0.523745
C125  C     C_2   0.174041 0.252010 0.789050 0.577416
H29   H     H_    0.156761 0.273384 0.844508 0.134310
O61   O     O_2   0.194973 0.197512 0.799865 -0.502925
C126  C     C_2   0.759519 0.657774 0.197890 0.513282
H30   H     H_    0.721669 0.689549 0.181598 0.086136
O62   O     O_2   0.779722 0.634688 0.135347 -0.484616
C127  C     C_2   0.821926 0.266099 0.198236 0.586786
H31   H     H_    0.833158 0.294874 0.143475 0.138972
O63   O     O_2   0.807155 0.209760 0.182699 -0.509312
C128  C     C_2   0.262163 0.569797 0.766998 0.626775
H32   H     H_    0.247847 0.559277 0.830339 0.151547
O64   O     O_2   0.307172 0.544577 0.751915 -0.521663
C129  C     C_2   0.670544 0.030575 0.033149 0.560940
H33   H     H_    0.692009 0.013037 0.979303 0.099993
O65   O     O_2   0.693660 0.074064 0.082025 -0.497777
C130  C     C_2   0.328551 0.953764 0.960210 0.591256
H34   H     H_    0.302680 0.929543 0.902505 0.102453
O66   O     O_2   0.306810 0.962006 0.027545 -0.470559
C131  C     C_2   0.171351 0.453308 0.040289 0.590406
H35   H     H_    0.196532 0.428030 0.097812 0.102454
O67   O     O_2   0.193454 0.461286 0.973221 -0.469146
C132  C     C_2   0.832581 0.547372 0.964885 0.602136
H36   H     H_    0.810794 0.533963 0.020360 0.144126
O68   O     O_2   0.810842 0.589579 0.912159 -0.497770
N21   N     N_R   0.352992 0.021607 0.632459 0.245943
O69   O     O_R   0.328648 0.974568 0.581728 -0.281950
O70   O     O_R   0.329283 0.078862 0.621777 -0.407135
N22   N     N_R   0.647824 0.006899 0.371438 0.245881
O71   O     O_R   0.676126 0.956103 0.407565 -0.282737
O72   O     O_R   0.669391 0.063793 0.394935 -0.407862
N23   N     N_R   0.852069 0.508238 0.629056 0.245054
O73   O     O_R   0.830362 0.564946 0.604003 -0.406561
O74   O     O_R   0.823974 0.457098 0.594267 -0.283854
N24   N     N_R   0.147302 0.517167 0.369241 0.246409
O75   O     O_R   0.172521 0.468565 0.416095 -0.280566
O76   O     O_R   0.170793 0.574276 0.383265 -0.407745
N25   N     N_R   0.692458 0.981522 0.212521 0.253256
O77   O     O_R   0.732591 0.017126 0.261137 -0.242105
O78   O     O_R   0.708188 0.930101 0.172725 -0.323640
N26   N     N_R   0.310071 0.020914 0.794741 0.201828
O79   O     O_R   0.298192 0.069376 0.843846 -0.318668
O80   O     O_R   0.267567 0.992748 0.739961 -0.267287
N27   N     N_R   0.190988 0.518347 0.207417 0.201544
O81   O     O_R   0.204200 0.566828 0.159270 -0.321275
O82   O     O_R   0.232682 0.488377 0.261782 -0.265295
N28   N     N_R   0.807815 0.489689 0.790514 0.250700
O83   O     O_R   0.768119 0.524524 0.739327 -0.242756
O84   O     O_R   0.791341 0.441388 0.835880 -0.311509

loop_
_geom_bond_atom_site_label_1
_geom_bond_atom_site_label_2
_geom_bond_distance
_ccdc_geom_bond_type
C100  C112  1.411346 A    
C119  H23   1.085734 S    
C18   C50   1.419711 A    
O16   Zn4   1.941440 S    
C117  H21   1.085892 S    
N11   O38   1.301046 A    
C17   C49   1.412626 A    
O2    C2    1.319620 A    
C109  C129  1.485095 S    
N13   O41   1.299890 A    
C54   C74   1.418536 A    
C84   N28   1.439056 S    
C53   C73   1.416314 A    
C23   C31   1.408233 A    
N2    C86   1.363841 A    
C102  C105  1.408560 A    
C122  O58   1.221244 D    
O4    Zn1   1.966772 S    
N14   O44   1.300522 A    
C55   C75   1.420583 A    
C103  C104  1.411379 A    
C5    C16   1.466846 S    
C43   C59   1.413138 A    
N17   O49   1.301044 A    
C106  H14   1.065912 S    
C89   C93   1.407491 A    
C6    C15   1.493484 S    
C119  O23   1.221021 D    
C29   N18   1.433191 S    
O11   C3    1.325381 A    
C129  H33   1.085944 S    
C3    C10   1.467795 S    
C62   C69   1.407895 A    
C81   C97   1.412076 A    
C75   C115  1.485132 S    
C35   C43   1.415220 A    
C114  H18   1.084665 S    
C95   C103  1.411318 A    
N4    C92   1.336092 A    
C60   C67   1.408382 A    
C104  C107  1.408662 A    
N16   O47   1.300026 A    
N21   O69   1.299011 A    
C83   C99   1.411900 A    
O7    C7    1.314068 A    
C118  O22   1.221182 D    
C90   H9    1.072625 S    
C11   C35   1.414505 A    
C79   C119  1.485587 S    
C94   C98   1.425324 A    
C31   N20   1.433954 S    
C83   N27   1.437466 S    
C127  H31   1.083176 S    
C46   C54   1.427593 A    
C45   C53   1.414058 A    
N15   O46   1.298481 A    
C42   C50   1.427526 A    
C15   C39   1.412388 A    
C35   N8    1.437129 S    
N9    O34   1.301001 A    
C69   C77   1.394675 A    
C120  H24   1.085677 S    
C59   C68   1.402219 A    
C66   C74   1.394128 A    
C39   C47   1.422249 A    
O5    Zn3   1.969234 S    
C85   N22   1.429787 S    
C33   C41   1.419102 A    
C114  O18   1.221582 D    
C38   C46   1.415518 A    
C26   N13   1.427724 S    
O6    Zn4   1.969236 S    
C115  H19   1.085886 S    
C41   C57   1.412792 A    
N22   O71   1.299180 A    
C127  O63   1.221445 D    
C67   C75   1.393989 A    
N27   O81   1.301403 A    
C115  O19   1.221021 D    
O13   Zn4   1.945395 S    
O3    C3    1.312119 A    
N12   O39   1.301293 A    
N25   O78   1.301404 A    
C64   C71   1.411257 A    
O14   Zn3   1.945396 S    
C113  O17   1.221042 D    
C112  C132  1.484462 S    
C108  H16   1.072879 S    
N21   O70   1.298049 A    
C16   C32   1.408971 A    
C24   C128  1.487583 S    
C92   C96   1.405471 A    
C131  O67   1.221535 D    
C24   C32   1.402943 A    
O6    C6    1.315759 A    
C17   C121  1.492745 S    
C101  C106  1.408151 A    
O16   C8    1.330871 A    
C88   N23   1.429761 S    
C11   C27   1.424471 A    
C125  H29   1.082188 S    
O1    Zn1   1.969234 S    
N13   O42   1.298720 A    
C105  H13   1.072361 S    
C117  O21   1.221025 D    
C124  O60   1.221241 D    
C60   C63   1.403678 A    
C44   C60   1.421513 A    
C96   C100  1.426809 A    
C99   C111  1.410023 A    
C21   C29   1.409029 A    
C122  H26   1.085261 S    
C68   H4    1.079819 S    
N6    O28   1.300601 A    
O9    Zn2   1.945395 S    
N25   O77   1.301365 A    
C116  O20   1.221176 D    
C4    C9    1.495620 S    
N17   O50   1.299564 A    
Zn4   N3    2.072825 S    
C23   C55   1.413868 A    
C103  C108  1.407414 A    
C121  O57   1.221532 D    
C92   H11   1.070214 S    
C128  O64   1.221243 D    
C129  O65   1.220998 D    
C22   C54   1.418138 A    
N3    C91   1.336835 A    
N15   O45   1.300550 A    
C48   C64   1.419177 A    
C71   H7    1.078883 S    
C110  C130  1.488481 S    
N18   O51   1.300026 A    
C70   H6    1.079751 S    
C37   N10   1.438482 S    
C20   C124  1.485038 S    
C106  C110  1.387321 A    
C81   N25   1.438608 S    
N19   O53   1.300015 A    
N4    C88   1.365100 A    
C22   C126  1.495413 S    
C21   C125  1.493269 S    
C34   C42   1.414912 A    
C30   N17   1.428109 S    
C23   C127  1.491260 S    
C19   C27   1.410461 A    
C51   C79   1.417729 A    
O7    Zn4   1.966770 S    
C84   C88   1.394705 A    
O12   Zn2   1.941440 S    
C68   C76   1.386499 A    
O15   Zn3   1.941438 S    
O5    C5    1.312070 A    
N10   O36   1.301576 A    
C90   C94   1.403365 A    
C132  O68   1.221032 D    
N7    O29   1.301921 A    
C19   C123  1.493095 S    
C59   C64   1.404253 A    
C63   C72   1.400201 A    
C78   C118  1.483998 S    
C46   C62   1.419579 A    
N7    O30   1.301036 A    
C10   C34   1.395476 A    
C130  O66   1.221549 D    
C45   C61   1.414628 A    
C65   C73   1.393071 A    
C84   C100  1.410992 A    
N22   O72   1.298915 A    
C7    C14   1.472894 S    
O12   C4    1.337421 A    
C38   N9    1.445588 S    
C126  O62   1.220582 D    
C121  H25   1.081829 S    
N28   O83   1.301268 A    
O13   C5    1.325105 A    
C107  C111  1.388398 A    
C123  O59   1.221459 D    
C47   C63   1.418098 A    
C91   H12   1.074971 S    
N20   O56   1.300183 A    
N10   O35   1.301547 A    
Zn2   N1    2.072825 S    
C40   C48   1.413861 A    
N3    C87   1.364847 A    
C82   C86   1.394369 A    
Zn1   N2    2.072826 S    
C22   C30   1.409758 A    
C67   H3    1.080243 S    
C61   C70   1.402340 A    
C58   C65   1.411128 A    
O9    C1    1.326041 A    
C118  H22   1.085728 S    
C96   C104  1.414994 A    
N26   O80   1.301321 A    
C57   C66   1.401855 A    
C82   N26   1.437328 S    
N16   O48   1.299002 A    
C125  O61   1.221465 D    
C15   C31   1.422585 A    
C101  C102  1.412856 A    
C1    C12   1.475069 S    
N24   O76   1.298225 A    
N1    C85   1.364941 A    
C47   C55   1.418142 A    
C124  H28   1.085627 S    
O1    C1    1.316153 A    
N8    O32   1.300538 A    
C131  H35   1.084040 S    
C66   H2    1.081745 S    
C33   N6    1.437765 S    
C91   C95   1.402173 A    
C65   H1    1.078406 S    
N6    O27   1.301280 A    
C72   C80   1.388990 A    
C18   C122  1.487497 S    
C116  H20   1.085730 S    
C52   C80   1.423386 A    
C81   C85   1.395280 A    
C93   C101  1.416309 A    
N9    O33   1.301911 A    
C20   C28   1.404701 A    
C87   N24   1.429268 S    
C105  C109  1.384332 A    
C128  H32   1.085234 S    
C32   N19   1.427765 S    
C13   C37   1.413744 A    
C20   C52   1.423286 A    
C89   H10   1.069557 S    
N28   O84   1.301387 A    
C42   C58   1.419984 A    
O3    Zn2   1.966770 S    
C108  C112  1.383733 A    
C37   C45   1.417165 A    
C13   C29   1.423392 A    
C16   C40   1.395712 A    
N18   O52   1.299264 A    
O2    Zn2   1.969236 S    
Zn3   N4    2.072826 S    
C14   C30   1.411059 A    
N12   O40   1.300805 A    
N23   O73   1.299463 A    
C69   H5    1.079906 S    
C36   N7    1.446385 S    
C48   C56   1.427767 A    
C82   C98   1.412615 A    
C83   C87   1.394934 A    
C8    C13   1.490286 S    
C34   N5    1.446563 S    
C10   C26   1.408676 A    
C41   C49   1.416436 A    
O15   C7    1.327494 A    
O14   C6    1.334690 A    
C73   C113  1.485959 S    
C132  H36   1.085401 S    
C113  H17   1.085845 S    
C71   C79   1.394639 A    
C56   C76   1.418428 A    
N27   O82   1.301249 A    
O10   Zn1   1.945396 S    
N26   O79   1.301394 A    
C111  C131  1.488205 S    
C58   C61   1.406556 A    
N1    C89   1.336766 A    
C36   C44   1.418198 A    
C12   C28   1.405877 A    
C86   N21   1.428900 S    
C9    C33   1.411496 A    
C57   C62   1.404385 A    
O10   C2    1.331093 A    
C25   N14   1.436333 S    
C77   C117  1.485403 S    
C28   N15   1.428682 S    
C107  H15   1.066840 S    
C126  H30   1.084864 S    
O8    C8    1.318058 A    
C120  O24   1.221184 D    
C76   C116  1.483946 S    
N19   O54   1.298609 A    
C44   C52   1.429895 A    
C12   C36   1.396365 A    
N20   O55   1.300697 A    
C98   C110  1.409168 A    
C95   C99   1.424193 A    
C18   C26   1.403127 A    
C21   C53   1.410353 A    
N11   O37   1.301925 A    
O4    C4    1.314185 A    
O11   Zn1   1.941438 S    
C93   C97   1.426902 A    
C97   C109  1.412434 A    
N14   O43   1.299600 A    
C94   C102  1.415161 A    
C74   C114  1.487737 S    
N5    O25   1.301915 A    
C27   N16   1.432441 S    
C9    C25   1.427647 A    
C123  H27   1.082262 S    
C14   C38   1.397316 A    
O8    Zn3   1.966772 S    
C19   C51   1.410568 A    
N24   O75   1.299213 A    
N23   O74   1.298971 A    
C80   C120  1.482448 S    
C2    C11   1.493662 S    
C39   N12   1.437126 S    
C24   C56   1.419519 A    
N8    O31   1.301596 A    
C72   H8    1.080512 S    
C17   C25   1.411126 A    
C43   C51   1.412343 A    
C70   C78   1.386508 A    
N2    C90   1.337365 A    
C50   C78   1.418213 A    
C40   N11   1.447013 S    
C130  H34   1.084104 S    
N5    O26   1.301083 A    
C49   C77   1.420948 A    
