data_mof_unit_24721.cif
_audit_creation_date              2012-12-11T15:20:41-0500
_audit_creation_method            fapswitch 2.2
_symmetry_space_group_name_H-M    P1
_symmetry_Int_Tables_number       1
_space_group_crystal_system       triclinic
_cell_length_a                    12.808709
_cell_length_b                    13.081856
_cell_length_c                    15.382563
_cell_angle_alpha                 116.851453
_cell_angle_beta                  63.5246
_cell_angle_gamma                 97.492316
_cell_volume                      2050.30534564

loop_
_atom_site_label
_atom_site_type_symbol
_atom_type_description
_atom_site_fract_x
_atom_site_fract_y
_atom_site_fract_z
_atom_type_partial_charge
Br1   Br    Br    0.105001 0.518890 0.627829 -0.518483
Br2   Br    Br    0.810477 0.095932 0.984150 -0.520866
Br3   Br    Br    0.320257 0.920110 0.259780 -0.521038
Br4   Br    Br    0.635222 0.804335 0.533698 -0.492675
Br5   Br    Br    0.487099 0.204043 0.846881 -0.391398
Br6   Br    Br    0.878222 0.066627 0.291246 -0.516358
Br7   Br    Br    0.025317 0.614242 0.374209 -0.510286
Br8   Br    Br    0.610385 0.288868 0.015013 -0.452218
C1    C     C_R   0.995431 0.831092 0.059725 -0.079246
C2    C     C_R   0.301967 0.593099 0.788854 -0.179376
C3    C     C_R   0.262043 0.412443 0.041021 -0.004566
C4    C     C_R   0.679297 0.487580 0.216636 -0.088745
C5    C     C_R   0.061675 0.278581 0.685337 -0.074525
C6    C     C_R   0.366722 0.431560 0.967564 -0.027194
C7    C     C_R   0.053551 0.170122 0.680248 0.017631
C8    C     C_R   0.295060 0.566774 0.694067 0.004762
C9    C     C_R   0.988408 0.160908 0.062964 0.087952
C10   C     C_R   0.180542 0.950942 0.391294 0.353212
C11   C     C_R   0.173844 0.044037 0.486463 -0.200354
C12   C     C_R   0.668851 0.559431 0.319476 0.052754
C13   C     C_R   0.075204 0.064809 0.584187 0.071099
C14   C     C_R   0.985411 0.991751 0.588515 -0.107734
C15   C     C_R   0.989674 0.902882 0.495324 -0.094898
C16   C     C_R   0.756527 0.515259 0.889835 -0.174306
C17   C     C_R   0.085440 0.882641 0.396284 0.036952
C18   C     C_R   0.541307 0.676116 0.517967 0.341348
C19   C     C_R   0.450584 0.674341 0.611260 -0.200217
C20   C     C_R   0.379446 0.582922 0.601685 0.097065
C21   C     C_R   0.393961 0.497407 0.500257 -0.080409
C22   C     C_R   0.481714 0.498955 0.408755 -0.170426
C23   C     C_R   0.664204 0.449945 0.916710 0.027397
C24   C     C_R   0.559993 0.584245 0.416300 0.019054
C25   C     C_2   0.482243 0.368998 0.913107 0.358121
C26   C     C_2   0.578829 0.417488 0.871097 -0.169501
C27   C     C_2   0.808790 0.946748 0.112850 -0.275379
C28   C     C_R   0.019847 0.697071 0.300128 0.276320
C29   C     C_2   0.791127 0.035073 0.209146 0.410272
C30   C     C_R   0.678095 0.414733 0.983534 0.319325
C31   C     C_R   0.094490 0.801451 0.209370 -0.105220
C32   C     C_R   0.779826 0.564657 0.314257 -0.051147
C33   C     C_R   0.892806 0.746270 0.964977 -0.054412
C34   C     C_R   0.074335 0.794994 0.302391 0.031698
C35   C     C_R   0.900506 0.849190 0.045764 0.127691
C36   C     C_R   0.340677 0.516509 0.948998 -0.102612
C37   C     C_R   0.982975 0.180478 0.782723 -0.068511
C38   C     C_R   0.194609 0.513367 0.698175 0.264094
C39   C     C_R   0.042931 0.260035 0.096797 -0.160293
C40   C     C_R   0.937745 0.177940 0.006936 0.276587
H1    H     H_    0.027177 0.891400 0.115913 0.155301
H2    H     H_    0.959369 0.110943 0.804692 0.157405
H3    H     H_    0.078411 0.282747 0.154473 0.166132
H4    H     H_    0.361891 0.648102 0.817266 0.131567
H5    H     H_    0.608924 0.468221 0.193258 0.145861
H6    H     H_    0.914198 0.853364 0.500612 0.186899
H7    H     H_    0.437324 0.742018 0.690267 0.170598
H8    H     H_    0.342602 0.423860 0.491048 0.155198
H9    H     H_    0.572629 0.478685 0.843787 0.110569
H10   H     H_    0.744381 0.943203 0.084090 0.190919
H11   H     H_    0.782090 0.541936 0.826505 0.162141
H12   H     H_    0.251562 0.350346 0.071753 0.136466
H13   H     H_    0.144759 0.862229 0.180986 0.165723
H14   H     H_    0.107496 0.300318 0.618606 0.150497
H15   H     H_    0.243473 0.100970 0.484177 0.161963
H16   H     H_    0.906690 0.008165 0.662663 0.169557
H17   H     H_    0.494006 0.425858 0.332753 0.165214
H18   H     H_    0.803321 0.609238 0.380460 0.174148
H19   H     H_    0.824952 0.728765 0.937923 0.124057
H20   H     H_    0.399072 0.551403 0.894934 0.107474
N1    N     N_R   0.037310 0.720000 0.995790 -0.059598
N2    N     N_R   0.824890 0.517960 0.936420 -0.068007
N3    N     N_R   0.003210 0.648190 0.211380 -0.075637
N4    N     N_R   0.774330 0.457010 0.995840 -0.085479
N5    N     N_R   0.053760 0.709140 0.151960 -0.071344
N6    N     N_R   0.853860 0.498840 0.211410 -0.050145
N7    N     N_R   0.974240 0.667310 0.936390 -0.045216
N8    N     N_R   0.225670 0.542990 0.004160 -0.043988
N9    N     N_R   0.946240 0.290860 0.848040 -0.038494
N10   N     N_R   0.146140 0.501160 0.788590 -0.073542
N11   N     N_R   0.025760 0.332690 0.063610 -0.072312
N12   N     N_R   0.962690 0.280000 0.004210 -0.078945
N13   N     N_R   0.209210 0.553840 0.847990 -0.058841
N14   N     N_R   0.175110 0.482040 0.063580 -0.049389
N15   N     N_R   0.996790 0.351810 0.788620 -0.043015
N16   N     N_R   0.790790 0.446160 0.152010 -0.039118
Ni1   Ni    Ni4+2 0.130310 0.630310 0.999970 0.234580
Ni2   Ni    Ni4+2 0.869690 0.369690 0.000030 0.304891
Ni3   Ni    Ni4+2 0.985640 0.509470 0.863740 0.271341
Ni4   Ni    Ni4+2 0.014360 0.490530 0.136260 0.273626

loop_
_geom_bond_atom_site_label_1
_geom_bond_atom_site_label_2
_ccdc_geom_bond_type
N10   Ni3   S    
C8    C20   S    
N15   Ni3   S    
C18   C24   A    
Br7   C28   S    
C28   C34   A    
C9    C40   A    
C39   N11   A    
C2    H4    S    
C6    C25   S    
C16   N2    A    
C33   H19   S    
C18   C19   A    
C27   H10   S    
C20   C21   A    
C27   C29   D    
C1    N1    A    
C23   C26   S    
N6    N16   A    
C12   C32   A    
C3    C6    A    
C19   H7    S    
Br1   C38   S    
N9    N15   A    
C4    N16   A    
Br3   C10   S    
C10   C11   A    
C36   N8    A    
N12   Ni2   S    
C5    H14   S    
C11   H15   S    
Br5   C25   S    
C26   H9    S    
C27   C35   S    
C4    H5    S    
C28   N3    A    
C15   C17   A    
C32   H18   S    
C13   C14   A    
C33   C35   A    
C10   C17   A    
Br8   C30   S    
N2    Ni3   S    
N11   Ni4   S    
C31   C34   A    
C3    N14   A    
C31   H13   S    
C30   N4    A    
C1    C35   A    
C1    H1    S    
C8    C38   A    
C38   N10   A    
C39   H3    S    
Br2   C40   S    
N3    Ni4   S    
C21   C22   A    
C33   N7    A    
Br4   C18   S    
C4    C12   A    
C25   C26   D    
Br6   C29   S    
N5    Ni1   S    
N7    Ni3   S    
N9    Ni2   S    
C5    C7    A    
C36   H20   S    
C7    C37   A    
N8    N14   A    
C3    H12   S    
N1    Ni1   S    
C15   H6    S    
C6    C36   A    
C12   C24   S    
C11   C13   A    
C9    C39   A    
N16   Ni2   S    
C17   C34   S    
N4    Ni2   S    
C21   H8    S    
C5    N15   A    
C2    N13   A    
C23   C30   A    
N6    Ni4   S    
C40   N12   A    
C16   C23   A    
C2    C8    A    
C22   C24   A    
N10   N13   A    
C37   H2    S    
C16   H11   S    
N14   Ni4   S    
C32   N6    A    
N1    N7    A    
C31   N5    A    
C22   H17   S    
C14   H16   S    
N11   N12   A    
C7    C13   S    
N3    N5    A    
C19   C20   A    
C14   C15   A    
N2    N4    A    
C37   N9    A    
N8    Ni1   S    
N13   Ni1   S    
