data_mof_unit_61870.cif
_audit_creation_date              2012-12-10T19:27:30-0500
_audit_creation_method            fapswitch 2.2
_symmetry_space_group_name_H-M    P1
_symmetry_Int_Tables_number       1
_space_group_crystal_system       triclinic
_cell_length_a                    18.598536
_cell_length_b                    18.670967
_cell_length_c                    18.899506
_cell_angle_alpha                 109.363098
_cell_angle_beta                  108.979603
_cell_angle_gamma                 109.012912
_cell_volume                      5116.9785475

loop_
_atom_site_label
_atom_site_type_symbol
_atom_type_description
_atom_site_fract_x
_atom_site_fract_y
_atom_site_fract_z
_atom_type_partial_charge
C1    C     C_R   0.379694 0.380276 0.499998 0.861760
C2    C     C_R   0.778811 0.547435 0.705370 -0.027776
C3    C     C_R   0.814117 0.503047 0.812592 -0.128834
C4    C     C_R   0.725641 0.439123 0.769725 -0.016999
C5    C     C_R   0.663347 0.451658 0.718685 0.012600
C6    C     C_R   0.689668 0.500962 0.680663 -0.083204
C7    C     C_R   0.696742 0.358655 0.767233 0.129724
C8    C     C_R   0.611905 0.314616 0.753197 0.156006
C9    C     C_R   0.553877 0.345530 0.727891 0.182511
C10   C     C_R   0.576820 0.407999 0.702165 -0.249322
C11   C     C_R   0.323066 0.246088 0.506067 0.029530
C12   C     C_R   0.624765 0.504416 0.618245 0.896724
C13   C     C_R   0.314457 0.316019 0.502151 -0.168065
C14   C     C_R   0.245564 0.327753 0.507941 -0.189726
C15   C     C_R   0.179605 0.263668 0.506496 0.180469
C16   C     C_R   0.185557 0.189155 0.502856 -0.174232
C17   C     C_R   0.259514 0.183588 0.506883 0.040189
C18   C     C_3   0.266923 0.111662 0.449957 0.033458
C19   C     C_3   0.338323 0.181433 0.450028 0.219296
C20   C     C_R   0.301056 0.468759 0.232851 -0.127886
C21   C     C_R   0.321381 0.512413 0.317835 -0.226000
C22   C     C_R   0.285719 0.567557 0.340650 0.460846
C23   C     C_R   0.617596 0.619649 0.497874 0.988131
C24   C     C_R   0.219371 0.565492 0.274938 0.341937
C25   C     C_R   0.187746 0.505150 0.188417 -0.211719
C26   C     C_R   0.234508 0.464147 0.169181 -0.117104
C27   C     C_3   0.204925 0.371259 0.110248 0.508174
C28   C     C_3   0.281579 0.378022 0.179784 0.245490
C29   C     C_R   0.665511 0.706401 0.435013 -0.099434
C30   C     C_R   0.684577 0.686046 0.500611 -0.199299
C31   C     C_R   0.765135 0.739778 0.575882 0.430121
C32   C     C_R   0.832478 0.802280 0.576053 0.335245
C33   C     C_R   0.814771 0.814854 0.503265 -0.194307
C34   C     C_R   0.381024 0.502534 0.380808 0.918755
C35   C     C_R   0.729678 0.770155 0.436586 0.013235
C36   C     C_3   0.694037 0.723237 0.341597 -0.475535
C37   C     C_3   0.622063 0.652121 0.339442 0.577971
C38   C     C_R   0.000670 0.379586 0.880139 0.971613
C39   C     C_R   0.879657 0.501613 0.880405 0.877534
C40   C     C_R   0.996438 0.620166 0.116841 0.905927
C41   C     C_R   0.120190 0.498883 0.118762 0.920794
C42   C     C_R   0.997690 0.117884 0.618984 0.907307
C43   C     C_R   0.119784 0.120691 0.500442 0.852791
C44   C     C_R   0.002330 0.881628 0.380993 0.888615
C45   C     C_R   0.812768 0.577325 0.656876 0.120304
C46   C     C_R   0.880171 0.879137 0.499900 0.965195
C47   C     C_R   0.932697 0.226462 0.767908 -0.043561
C48   C     C_R   0.999306 0.313546 0.811713 -0.222902
C49   C     C_R   0.061544 0.337768 0.783939 0.451854
C50   C     C_R   0.062445 0.273128 0.719966 0.351622
C51   C     C_R   0.999053 0.185881 0.682619 -0.199317
C52   C     C_R   0.935298 0.164698 0.706280 -0.076795
C53   C     C_3   0.898374 0.093430 0.724504 0.180202
C54   C     C_3   0.893244 0.160924 0.794057 0.251587
C55   C     C_R   0.998185 0.680865 0.253412 -0.082945
C56   C     C_R   0.900187 0.643919 0.699465 0.154890
C57   C     C_R   0.995649 0.687318 0.181433 -0.207628
C58   C     C_R   0.008910 0.766401 0.181129 0.167385
C59   C     C_R   0.017313 0.834384 0.249723 0.417710
C60   C     C_R   0.010936 0.821982 0.317777 -0.245528
C61   C     C_R   0.008814 0.748219 0.321529 -0.077186
C62   C     C_3   0.956549 0.689263 0.344647 0.508868
C63   C     C_3   0.939868 0.612896 0.264732 0.212427
C64   C     C_R   0.949864 0.681552 0.788577 0.148223
C65   C     C_R   0.919756 0.640752 0.830439 -0.192839
C66   C     C_R   0.838357 0.565039 0.785091 0.025222
H1    H     H_    0.207587 0.068554 0.385997 0.083241
H2    H     H_    0.322094 0.176659 0.385901 0.113682
H3    H     H_    0.263049 0.334510 0.206533 0.145420
H4    H     H_    0.671283 0.758852 0.311021 0.217838
H5    H     H_    0.738137 0.703300 0.323212 0.226925
H6    H     H_    0.961072 0.669228 0.898184 0.209382
H7    H     H_    0.527758 0.422408 0.670834 0.174821
H8    H     H_    0.240643 0.384277 0.508840 0.186334
O1    O     O_R   0.408400 0.356680 0.448290 -0.643895
O2    O     O_R   0.051700 0.460090 0.908430 -0.549554
O3    O     O_R   0.856640 0.448300 0.908430 -0.604953
O4    O     O_R   0.960090 0.551710 0.908400 -0.631977
O5    O     O_R   0.948250 0.539920 0.091630 -0.596644
O6    O     O_R   0.051690 0.643330 0.091610 -0.610822
O7    O     O_R   0.039870 0.448310 0.091660 -0.585683
O8    O     O_R   0.143310 0.551720 0.091640 -0.607694
O9    O     O_R   0.051740 0.091620 0.643380 -0.596536
O10   O     O_R   0.948300 0.091670 0.539990 -0.593109
O11   O     O_R   0.143340 0.091640 0.551750 -0.594577
O12   O     O_R   0.408370 0.460100 0.551700 -0.612552
O13   O     O_R   0.039900 0.091690 0.448360 -0.604791
O14   O     O_R   0.051700 0.908430 0.460110 -0.588681
O15   O     O_R   0.948260 0.908480 0.356720 -0.614392
O16   O     O_R   0.960100 0.908410 0.551740 -0.602423
O17   O     O_R   0.856660 0.908460 0.448350 -0.611952
O18   O     O_R   0.591630 0.448290 0.539910 -0.610325
O19   O     O_R   0.591590 0.551710 0.643320 -0.608961
O20   O     O_R   0.591630 0.539900 0.448300 -0.584354
O21   O     O_R   0.591600 0.643320 0.551710 -0.585422
O22   O     O_R   0.408410 0.448290 0.356680 -0.601913
O23   O     O_R   0.408370 0.551710 0.460090 -0.559122
O24   O     O_R   0.948260 0.356680 0.908450 -0.603643
Zn1   Zn    Zn3+2 0.500020 0.430950 0.430950 1.078828
Zn2   Zn    Zn3+2 0.499980 0.569050 0.569050 1.090489
Zn3   Zn    Zn3+2 0.930910 0.430960 0.000050 1.097430
Zn4   Zn    Zn3+2 0.069050 0.569060 0.000020 1.083911
Zn5   Zn    Zn3+2 0.069070 0.000020 0.569080 1.100644
Zn6   Zn    Zn3+2 0.930930 0.000080 0.431020 1.061776
I1    I     I_    0.431320 0.298122 0.723092 -0.189681
I2    I     I_    0.072781 0.283193 0.504813 -0.214040
I3    I     I_    0.306247 0.043378 0.512791 -0.103795
O25   O     O_3   0.421119 0.191899 0.494022 -0.672883
H9    H     H_    0.462302 0.241641 0.494072 0.351260
O26   O     O_3   0.314592 0.620209 0.426453 -0.705310
H10   H     H_    0.282648 0.653100 0.432556 0.398468
O27   O     O_3   0.186692 0.621054 0.297886 -0.745820
H11   H     H_    0.145113 0.617216 0.246452 0.342359
O28   O     O_3   0.124781 0.313680 0.096941 -0.721660
H12   H     H_    0.125483 0.329028 0.152900 0.325777
I4    I     I_    0.206982 0.352781 0.992557 -0.147072
I5    I     I_    0.750707 0.501814 0.520314 -0.182821
O29   O     O_3   0.346660 0.374205 0.158461 -0.666103
H13   H     H_    0.375048 0.426513 0.154045 0.381658
O30   O     O_3   0.777102 0.726051 0.645481 -0.758162
H14   H     H_    0.834881 0.771594 0.695271 0.392004
O31   O     O_3   0.913850 0.848577 0.646621 -0.717356
H15   H     H_    0.952766 0.833782 0.626840 0.379787
I6    I     I_    0.496458 0.639009 0.275984 -0.248093
O32   O     O_3   0.622018 0.572149 0.311596 -0.685418
H16   H     H_    0.681616 0.582806 0.345350 0.359530
O33   O     O_3   0.123798 0.424169 0.823667 -0.701987
H17   H     H_    0.158139 0.432338 0.793779 0.398673
O34   O     O_3   0.128692 0.297515 0.699953 -0.741709
H18   H     H_    0.126880 0.246155 0.659868 0.346572
I7    I     I_    0.780234 0.988310 0.610158 -0.210325
I8    I     I_    0.962233 0.681398 0.631116 -0.190342
I9    I     I_    0.987707 0.047943 0.769371 -0.110507
I10   I     I_    0.764523 0.127069 0.777336 -0.121094
I11   I     I_    0.966804 0.193593 0.923765 -0.109781
I12   I     I_    0.007826 0.785253 0.075645 -0.209689
O35   O     O_3   0.029026 0.910098 0.246615 -0.710940
H19   H     H_    0.052204 0.957763 0.304751 0.326046
I13   I     I_    0.039240 0.714613 0.469813 -0.126442
O36   O     O_3   0.881529 0.694659 0.340265 -0.769036
H20   H     H_    0.857737 0.707395 0.293563 0.329318
I14   I     I_    0.989987 0.528226 0.284012 -0.161528
I15   I     I_    0.807176 0.536496 0.160867 -0.199441
I16   I     I_    0.075503 0.792717 0.863177 -0.161655
I17   I     I_    0.753109 0.286509 0.719024 -0.218603
I18   I     I_    0.572610 0.201592 0.766474 -0.101011

loop_
_geom_bond_atom_site_label_1
_geom_bond_atom_site_label_2
_ccdc_geom_bond_type
C24   C25   A    
O4    Zn4   S    
O3    Zn3   S    
C28   H3    S    
C24   O27   S    
O17   Zn6   S    
C38   O24   A    
O23   Zn2   S    
O28   H12   S    
C7    C8    A    
C38   O2    A    
C53   C54   S    
C52   C53   S    
C11   C19   S    
C26   C27   S    
C62   C63   S    
O9    Zn5   S    
C14   H8    S    
C15   I2    S    
C36   C37   S    
C34   O22   A    
C6    C12   S    
C5    C6    A    
C10   H7    S    
C54   I11   S    
C9    I1    S    
C15   C16   A    
C54   I10   S    
O22   Zn1   S    
C34   O23   A    
O25   H9    S    
C18   C19   S    
C31   O30   S    
O26   H10   S    
O29   H13   S    
C35   C36   S    
C45   C56   A    
C16   C17   A    
C22   O26   S    
C55   C63   S    
C47   C48   A    
C40   O6    A    
C53   I7    S    
C13   C14   A    
C62   I13   S    
O12   Zn2   S    
C9    C10   A    
C38   C48   S    
O11   Zn5   S    
C36   H5    S    
C42   C51   S    
C27   I4    S    
C3    C39   S    
C59   C60   A    
C21   C22   A    
C33   C46   S    
C2    C6    A    
C4    C7    A    
O1    Zn1   S    
O27   H11   S    
C25   C26   A    
C36   H4    S    
C17   C18   S    
C37   O32   S    
C2    C45   A    
O2    Zn4   S    
C49   O33   S    
C51   C52   A    
C1    O1    A    
C23   C30   S    
C32   O31   S    
C53   I9    S    
O36   H20   S    
C25   C41   S    
O21   Zn2   S    
C8    C9    A    
O7    Zn3   S    
C46   O17   A    
C64   I16   S    
C58   I12   S    
C18   H1    S    
C32   C33   A    
O6    Zn4   S    
C60   C61   A    
C43   O11   A    
C39   O4    A    
C29   C30   A    
C50   O34   S    
C37   I6    S    
C31   C32   A    
C16   C43   S    
C41   O7    A    
C56   C64   A    
C50   C51   A    
O8    Zn4   S    
C40   O5    A    
C42   O10   A    
C19   H2    S    
C18   I3    S    
O19   Zn2   S    
C56   I8    S    
C47   C54   S    
C46   O16   A    
C48   C49   A    
C49   C50   A    
C55   C57   A    
O15   Zn6   S    
O32   H16   S    
O10   Zn6   S    
C22   C24   A    
C12   O19   A    
C3    C66   A    
C1    C13   S    
O33   H17   S    
O24   Zn3   S    
C39   O3    A    
O14   Zn5   S    
O30   H14   S    
O34   H18   S    
C45   I5    S    
C1    O12   A    
C11   C17   A    
C40   C57   S    
C12   O18   A    
C8    I18   S    
C42   O9    A    
C4    C5    A    
C2    C66   A    
C47   C52   A    
C21   C34   S    
C65   H6    S    
C20   C28   S    
O35   H19   S    
C29   C35   A    
C23   O20   A    
C43   O13   A    
C64   C65   A    
C58   C59   A    
C5    C10   A    
C28   O29   S    
C19   O25   S    
C11   C13   A    
C57   C58   A    
C30   C31   A    
C20   C26   A    
O20   Zn1   S    
C44   C60   S    
C41   O8    A    
C55   C61   A    
C33   C35   A    
C63   I14   S    
C23   O21   A    
C61   C62   S    
O16   Zn5   S    
O13   Zn6   S    
C27   O28   S    
C20   C21   A    
C65   C66   A    
C29   C37   S    
C27   C28   S    
C63   I15   S    
C14   C15   A    
O5    Zn3   S    
C62   O36   S    
O31   H15   S    
C44   O14   A    
C59   O35   S    
C44   O15   A    
C3    C4    A    
O18   Zn1   S    
C7    I17   S    
