data_mof_unit_26701.cif
_audit_creation_date              2012-12-10T18:00:50-0500
_audit_creation_method            fapswitch 2.2
_symmetry_space_group_name_H-M    P1
_symmetry_Int_Tables_number       1
_space_group_crystal_system       triclinic
_cell_length_a                    15.885161
_cell_length_b                    10.827389
_cell_length_c                    9.582053
_cell_angle_alpha                 90.483219
_cell_angle_beta                  90.999832
_cell_angle_gamma                 91.167711
_cell_volume                      1647.40664498

loop_
_atom_site_label
_atom_site_type_symbol
_atom_type_description
_atom_site_fract_x
_atom_site_fract_y
_atom_site_fract_z
_atom_type_partial_charge
C1    C     C_R   0.499911 0.262257 0.499626 0.811411
C2    C     C_R   0.563267 0.556902 0.078390 -0.089767
C3    C     C_R   0.340008 0.499713 0.498954 0.827009
C4    C     C_R   0.659992 0.500287 0.501046 0.826991
C5    C     C_3   0.972368 0.404215 0.574101 -0.021708
C6    C     C_3   0.027632 0.595785 0.425899 -0.021710
C7    C     C_3   0.026596 0.393632 0.441700 -0.320840
C8    C     C_3   0.973404 0.606368 0.558299 -0.320851
C9    C     C_1   0.250484 0.499712 0.496997 -0.114898
C10   C     C_1   0.749516 0.500288 0.503003 -0.114907
C11   C     C_3   0.029917 0.509937 0.630546 -0.010905
C12   C     C_R   0.500088 0.737743 0.500374 0.811395
C13   C     C_3   0.970082 0.490063 0.369453 -0.010904
C14   C     C_3   0.083516 0.500698 0.498846 0.138228
C15   C     C_3   0.916483 0.499302 0.501154 0.138228
C16   C     C_1   0.175077 0.499981 0.497114 0.089813
C17   C     C_1   0.824922 0.500019 0.502886 0.089811
C18   C     C_R   0.504424 0.062968 0.373318 -0.128037
C19   C     C_R   0.495574 0.937032 0.626682 -0.128027
C20   C     C_2   0.944143 0.295364 0.658050 0.356995
C21   C     C_2   0.055857 0.704636 0.341949 0.356991
C22   C     C_2   0.939412 0.478597 0.221036 0.347835
C23   C     C_R   0.504529 0.935208 0.373741 -0.178417
C24   C     C_2   0.060587 0.521405 0.778963 0.347833
C25   C     C_2   0.364467 0.376265 0.131897 0.402644
C26   C     C_2   0.635527 0.623738 0.868094 0.402677
C27   C     C_R   0.495470 0.064791 0.626259 -0.178420
C28   C     C_R   0.500111 0.871696 0.500440 -0.023595
C29   C     C_R   0.499888 0.128304 0.499560 -0.023596
C30   C     C_R   0.436396 0.441668 0.069312 0.108047
C31   C     C_R   0.563604 0.558332 0.930687 0.108042
C32   C     C_R   0.436732 0.443099 0.921609 -0.089791
Cu1   Cu    Cu3+1 0.500000 0.500020 0.640660 1.002900
Cu2   Cu    Cu3+1 0.500000 0.499980 0.359340 1.002913
H1    H     H_    0.048523 0.306498 0.393893 0.161877
H2    H     H_    0.009307 0.764694 0.296069 0.077479
H3    H     H_    0.984615 0.472605 0.137850 0.072965
H4    H     H_    0.015384 0.527411 0.862147 0.072966
H5    H     H_    0.300895 0.401237 0.101846 0.060555
H6    H     H_    0.699102 0.598728 0.898085 0.060561
H7    H     H_    0.951476 0.693502 0.606106 0.161877
H8    H     H_    0.508118 0.110248 0.274375 0.181373
H9    H     H_    0.491881 0.889752 0.725625 0.181387
H10   H     H_    0.508232 0.886486 0.274907 0.162921
H11   H     H_    0.491767 0.113514 0.725093 0.162919
H12   H     H_    0.386618 0.396569 0.862407 0.140629
H13   H     H_    0.613382 0.603432 0.137591 0.140632
H14   H     H_    0.990693 0.235306 0.703930 0.077481
N1    N     N_R   0.500020 0.500030 0.852070 -0.175155
N2    N     N_R   0.499980 0.499970 0.147930 -0.175147
O1    O     O_R   0.500000 0.319660 0.618740 -0.598227
O2    O     O_2   0.130596 0.726275 0.324630 -0.526087
O3    O     O_2   0.864200 0.476039 0.192887 -0.539605
O4    O     O_2   0.135799 0.523951 0.807115 -0.539609
O5    O     O_2   0.374715 0.288139 0.208073 -0.536654
O6    O     O_2   0.625275 0.711900 0.791972 -0.536678
O7    O     O_R   0.500000 0.680340 0.381260 -0.598226
O8    O     O_R   0.499990 0.319630 0.381170 -0.535197
O9    O     O_R   0.500010 0.680370 0.618830 -0.535208
O10   O     O_R   0.379080 0.500000 0.618760 -0.579040
O11   O     O_R   0.620920 0.500000 0.381240 -0.579034
O12   O     O_R   0.379080 0.499970 0.381190 -0.564508
O13   O     O_R   0.620920 0.500030 0.618810 -0.564550
O14   O     O_2   0.869404 0.273724 0.675369 -0.526086

loop_
_geom_bond_atom_site_label_1
_geom_bond_atom_site_label_2
_ccdc_geom_bond_type
C20   O14   D    
Cu2   O7    S    
C24   H4    S    
C24   O4    D    
C3    C9    S    
C2    H13   S    
C6    C14   S    
C19   C27   A    
Cu2   O12   S    
Cu1   O13   S    
C3    O10   A    
C27   H11   S    
C13   C15   S    
Cu1   Cu2   S    
C30   N2    A    
C26   C31   S    
Cu1   O9    S    
C5    C20   S    
C23   C28   A    
C25   H5    S    
C6    C13   S    
C21   H2    S    
C19   C28   A    
C1    O1    A    
C4    O13   A    
C26   H6    S    
C20   H14   S    
C7    H1    S    
C31   N1    A    
C8    C11   S    
C12   O7    A    
C1    C29   S    
C12   O9    A    
C9    C16   T    
C19   H9    S    
C13   C22   S    
C5    C11   S    
C22   O3    D    
C5    C7    S    
C6    C21   S    
C18   H8    S    
Cu1   O10   S    
C11   C14   S    
C14   C16   S    
C32   N1    A    
Cu2   N2    S    
Cu1   O1    S    
C5    C15   S    
C10   C17   T    
C18   C29   A    
C18   C23   A    
C30   C32   A    
C11   C24   S    
C7    C13   S    
C27   C29   A    
C12   C28   S    
Cu2   O8    S    
Cu2   O11   S    
C3    O12   A    
C25   C30   S    
C15   C17   S    
C2    C31   A    
C6    C8    S    
C8    C15   S    
C2    N2    A    
C8    H7    S    
C1    O8    A    
C22   H3    S    
C32   H12   S    
C4    O11   A    
C21   O2    D    
C7    C14   S    
C23   H10   S    
C25   O5    D    
C4    C10   S    
Cu1   N1    S    
C26   O6    D    
