data_mof_unit_24250.cif
_audit_creation_date              2012-12-11T14:21:15-0500
_audit_creation_method            fapswitch 2.2
_symmetry_space_group_name_H-M    P1
_symmetry_Int_Tables_number       1
_space_group_crystal_system       triclinic
_cell_length_a                    22.031297
_cell_length_b                    7.201131
_cell_length_c                    14.86696
_cell_angle_alpha                 89.999781
_cell_angle_beta                  107.224117
_cell_angle_gamma                 90.000021
_cell_volume                      2252.8706698

loop_
_atom_site_label
_atom_site_type_symbol
_atom_type_description
_atom_site_fract_x
_atom_site_fract_y
_atom_site_fract_z
_atom_type_partial_charge
O1    O     O_R   0.584770 0.505770 0.002090 -0.550942
O2    O     O_R   0.415230 0.005770 0.997910 -0.550940
O3    O     O_R   0.467060 0.173340 0.861950 -0.526349
O4    O     O_R   0.532940 0.673340 0.138050 -0.526346
C1    C     C_R   0.455435 0.343934 0.825435 0.782061
C2    C     C_R   0.544565 0.843934 0.174565 0.782051
O5    O     O_R   0.587510 0.175890 0.993210 -0.510581
O6    O     O_R   0.412490 0.675890 0.006790 -0.510581
O7    O     O_R   0.536540 0.008150 0.130100 -0.528708
O8    O     O_R   0.463460 0.508150 0.869900 -0.528704
C3    C     C_R   0.612998 0.344683 0.997001 0.753847
C4    C     C_R   0.387002 0.844683 0.002998 0.753857
O9    O     O_3   0.483140 0.340040 0.044760 -0.376315
O10   O     O_3   0.516860 0.840040 0.955240 -0.376315
V1    V     V_3+5 0.503130 0.064190 0.991700 1.618999
V2    V     V_3+5 0.496870 0.564190 0.008300 1.619010
C5    C     C_2   0.213038 0.731914 0.000317 -0.138409
C6    C     C_2   0.786964 0.231912 0.999691 -0.138450
C7    C     C_2   0.177310 0.886986 0.986516 -0.303048
C8    C     C_2   0.822691 0.386985 0.013487 -0.303063
H1    H     H_    0.192973 0.602454 0.015990 0.161681
H2    H     H_    0.807030 0.102450 0.984023 0.161692
H3    H     H_    0.194914 0.014545 0.964545 0.191682
H4    H     H_    0.805087 0.514547 0.035453 0.191708
C9    C     C_2   0.277474 0.721655 0.987122 0.395919
C10   C     C_2   0.722526 0.221654 0.012882 0.395916
C11   C     C_2   0.321840 0.859426 0.013745 0.068560
C12   C     C_2   0.678161 0.359427 0.986255 0.068603
C13   C     C_R   0.925201 0.894632 0.722900 -0.040283
C14   C     C_R   0.074800 0.394625 0.277099 -0.040275
C15   C     C_R   0.570348 0.849354 0.277710 -0.199932
C16   C     C_R   0.429652 0.349356 0.722290 -0.199931
C17   C     C_R   0.927335 0.010971 0.571508 -0.131788
C18   C     C_R   0.072661 0.510910 0.428498 -0.131785
C19   C     C_R   0.958840 0.967171 0.664759 -0.157120
C20   C     C_R   0.041157 0.467123 0.335245 -0.157128
C21   C     C_R   0.859913 0.860235 0.686389 -0.184033
C22   C     C_R   0.140090 0.360255 0.313607 -0.184024
C23   C     C_R   0.826130 0.909746 0.592387 0.082181
C24   C     C_R   0.173871 0.409744 0.407612 0.082181
C25   C     C_R   0.861279 0.988058 0.535775 0.060072
C26   C     C_R   0.138719 0.488022 0.464228 0.060074
C27   C     C_R   0.758731 0.889889 0.553701 0.016611
C28   C     C_R   0.241269 0.389896 0.446298 0.016612
C29   C     C_R   0.728196 0.942836 0.458125 0.014308
C30   C     C_R   0.271803 0.442832 0.541876 0.014309
C31   C     C_R   0.764279 0.044721 0.409690 0.375991
C32   C     C_R   0.235717 0.544696 0.590314 0.375989
C33   C     C_R   0.829970 0.056864 0.446564 -0.216796
C34   C     C_R   0.170025 0.556819 0.553442 -0.216797
C35   C     C_R   0.720522 0.824335 0.608176 -0.166459
C36   C     C_R   0.279481 0.324352 0.391822 -0.166462
C37   C     C_R   0.655425 0.802526 0.569942 -0.045590
C38   C     C_R   0.344578 0.302545 0.430057 -0.045592
C39   C     C_R   0.625822 0.830900 0.473832 -0.019422
C40   C     C_R   0.374180 0.330912 0.526168 -0.019419
C41   C     C_R   0.662699 0.895300 0.416198 0.061017
C42   C     C_R   0.337301 0.395302 0.583802 0.061016
C43   C     C_R   0.560685 0.787382 0.433571 0.433315
C44   C     C_R   0.439316 0.287393 0.566429 0.433313
C45   C     C_R   0.533268 0.795947 0.335529 0.338520
C46   C     C_R   0.466732 0.295953 0.664472 0.338521
C47   C     C_R   0.634366 0.893605 0.317750 -0.176206
C48   C     C_R   0.365633 0.393602 0.682251 -0.176219
H5    H     H_    0.856554 0.131556 0.407238 0.167105
H6    H     H_    0.143439 0.631489 0.592772 0.167105
H7    H     H_    0.662543 0.910836 0.270105 0.211056
H8    H     H_    0.337457 0.410824 0.729897 0.211054
H9    H     H_    0.629191 0.753592 0.616352 0.188447
H10   H     H_    0.370812 0.253616 0.383647 0.188445
H11   H     H_    0.954236 0.071846 0.528558 0.121125
H12   H     H_    0.045758 0.571755 0.471453 0.121124
H13   H     H_    0.009083 0.997665 0.692887 0.118022
H14   H     H_    0.990912 0.497594 0.307120 0.118019
H15   H     H_    0.836693 0.805060 0.734950 0.098556
H16   H     H_    0.163312 0.305117 0.265041 0.098554
H17   H     H_    0.739176 0.790963 0.681764 0.113426
H18   H     H_    0.260827 0.290978 0.318234 0.113433
O11   O     O_R   0.036450 0.233070 0.130130 -0.538451
O12   O     O_R   0.963550 0.733070 0.869870 -0.538452
O13   O     O_R   0.912470 0.560570 0.006790 -0.540897
O14   O     O_R   0.087530 0.060570 0.993210 -0.540896
C49   C     C_R   0.887628 0.391929 0.004421 0.731343
C50   C     C_R   0.112373 0.891929 0.995580 0.731347
O15   O     O_R   0.032920 0.562940 0.138050 -0.538352
O16   O     O_R   0.967080 0.062940 0.861950 -0.538354
O17   O     O_R   0.084790 0.730500 0.002090 -0.536926
O18   O     O_R   0.915210 0.230500 0.997910 -0.536926
C51   C     C_R   0.045263 0.395007 0.174877 0.682671
C52   C     C_R   0.954736 0.895008 0.825123 0.682669
O19   O     O_3   0.016820 0.396170 0.955260 -0.376569
O20   O     O_3   0.983180 0.896170 0.044740 -0.376568
V3    V     V_3+5 0.996880 0.672090 0.008300 1.449974
V4    V     V_3+5 0.003120 0.172090 0.991700 1.449974
Cl1   Cl    Cl    0.730521 0.196991 0.314662 -0.621254
Cl2   Cl    Cl    0.269471 0.696964 0.685344 -0.621252
Cl3   Cl    Cl    0.512879 0.716060 0.504448 -0.498036
Cl4   Cl    Cl    0.487122 0.216069 0.495553 -0.498035
Cl5   Cl    Cl    0.292169 0.513715 0.934005 -0.651164
Cl6   Cl    Cl    0.707830 0.013716 0.065999 -0.651143
N1    N     N_2   0.306704 0.025037 0.055412 -0.556547
H19   H     H_    0.321719 0.145517 0.031221 0.313723
C53   C     C_3   0.322687 0.020907 0.156921 -0.457608
H20   H     H_    0.301738 0.143996 0.181527 0.191287
H21   H     H_    0.375057 0.025975 0.188410 0.235947
H22   H     H_    0.303298 0.893929 0.180863 0.221598
N2    N     N_2   0.693297 0.525037 0.944587 -0.556517
H23   H     H_    0.678251 0.645518 0.968732 0.313721
C54   C     C_3   0.677370 0.520845 0.843084 -0.457719
H24   H     H_    0.698326 0.643938 0.818493 0.191286
H25   H     H_    0.625005 0.525860 0.811534 0.236003
H26   H     H_    0.696793 0.393872 0.819193 0.221552
Cl7   Cl    Cl    0.453165 0.729524 0.284803 -0.611260
Cl8   Cl    Cl    0.546836 0.229528 0.715198 -0.611240

loop_
_geom_bond_atom_site_label_1
_geom_bond_atom_site_label_2
_ccdc_geom_bond_type
N1    H19   S    
O14   V4    S    
C39   C43   A    
C15   C45   A    
C6    C10   S    
C50   O17   A    
C37   H9    S    
C2    O7    A    
C31   C33   A    
C22   H16   S    
O5    C3    A    
C29   C41   A    
C33   H5    S    
C48   H8    S    
C46   Cl8   S    
C44   Cl4   S    
C54   H25   S    
C12   N2    S    
C14   C22   A    
C44   C46   A    
C29   C31   A    
O16   V4    S    
C17   C19   A    
O15   V3    S    
C9    Cl5   S    
C8    H4    S    
C28   C30   A    
C18   C26   A    
N2    H23   S    
C18   C20   A    
C1    C16   S    
C28   C36   A    
C32   C34   A    
C49   O18   A    
C21   H15   S    
O2    C4    A    
N1    C53   S    
C30   C42   A    
N2    C54   S    
C14   C51   S    
C36   H18   S    
C25   C33   A    
C13   C52   S    
O13   C49   A    
C36   C38   A    
C41   C47   A    
C47   H7    S    
C37   C39   A    
C42   C48   A    
C38   C40   A    
C43   C45   A    
C4    C11   S    
C15   C47   A    
C16   C48   A    
O11   V4    S    
C23   C25   A    
O16   C52   A    
C54   H26   S    
O15   C51   A    
C23   C27   A    
O5    V1    S    
C11   N1    S    
C5    H1    S    
C40   C44   A    
C35   C37   A    
O4    V2    S    
C7    H3    S    
C35   H17   S    
O13   V3    S    
C38   H10   S    
O6    C4    A    
C53   H21   S    
O1    V2    S    
O2    V1    S    
C34   H6    S    
C20   H14   S    
C26   C34   A    
O4    C2    A    
O14   C50   A    
C39   C41   A    
C45   Cl7   S    
C43   Cl3   S    
C8    C49   S    
C7    C50   S    
C18   H12   S    
O3    V1    S    
C19   H13   S    
C32   Cl2   S    
C6    H2    S    
O3    C1    A    
C9    C11   D    
C13   C19   A    
C10   C12   D    
C14   C20   A    
C5    C9    S    
O7    V1    S    
C17   C25   A    
C1    O8    A    
C21   C23   A    
O8    V2    S    
C54   H24   S    
O19   V4    S    
C22   C24   A    
C27   C35   A    
C3    C12   S    
O17   V3    S    
C24   C26   A    
O20   V3    S    
C5    C7    D    
C40   C42   A    
C2    C15   S    
C53   H22   S    
C6    C8    D    
O12   C52   A    
O11   C51   A    
C17   H11   S    
C16   C46   A    
C30   C32   A    
C24   C28   A    
O6    V2    S    
O9    V2    S    
C13   C21   A    
C53   H20   S    
O18   V4    S    
C31   Cl1   S    
O10   V1    S    
O1    C3    A    
O12   V3    S    
C27   C29   A    
C10   Cl6   S    
