data_mof_unit_48221.cif
_audit_creation_date              2013-03-05T16:33:48-0500
_audit_creation_method            fapswitch 2.2
_symmetry_space_group_name_H-M    P1
_symmetry_Int_Tables_number       1
_space_group_crystal_system       triclinic
_cell_length_a                    16.00804
_cell_length_b                    10.907367
_cell_length_c                    9.586879
_cell_angle_alpha                 91.206604
_cell_angle_beta                  89.788578
_cell_angle_gamma                 91.312032
_cell_volume                      1673.1038918

loop_
_atom_site_label
_atom_site_type_symbol
_atom_site_description
_atom_site_fract_x
_atom_site_fract_y
_atom_site_fract_z
_atom_type_partial_charge
O1    O     O_R   0.500000 0.319640 0.618810 -0.532500
O2    O     O_R   0.500010 0.319680 0.381230 -0.554960
C1    C     C_R   0.503033 0.262942 0.498723 0.852986
O3    O     O_R   0.380300 0.499950 0.618760 -0.548395
O4    O     O_R   0.380310 0.499990 0.381180 -0.514133
C2    C     C_R   0.341394 0.501009 0.500117 0.811824
Cu1   Cu    Cu3+1 0.500000 0.499980 0.640670 1.085180
Cu2   Cu    Cu3+1 0.500000 0.500020 0.359330 1.069991
O5    O     O_R   0.499990 0.680320 0.618770 -0.558702
O6    O     O_R   0.500000 0.680360 0.381190 -0.604223
O7    O     O_R   0.619690 0.500010 0.618820 -0.546114
O8    O     O_R   0.619700 0.500050 0.381240 -0.537440
C3    C     C_R   0.502420 0.737662 0.501043 0.831316
C4    C     C_R   0.658596 0.499692 0.499657 0.845058
C5    C     C_R   0.956097 0.485090 0.623981 0.268002
C6    C     C_R   0.912513 0.498195 0.498423 -0.096692
C7    C     C_R   0.955845 0.519595 0.374244 -0.240046
H1    H     H_    0.921037 0.531191 0.278801 0.227061
C8    C     C_R   0.043390 0.528211 0.372106 0.309686
C9    C     C_R   0.087510 0.515672 0.498493 -0.143192
C10   C     C_R   0.043792 0.496551 0.624444 0.223575
C11   C     C_1   0.822759 0.497607 0.497356 0.132475
C12   C     C_1   0.177387 0.511204 0.499090 0.138297
C13   C     C_1   0.252341 0.506198 0.500054 -0.096030
C14   C     C_1   0.747712 0.498372 0.498314 -0.000175
C15   C     C_R   0.478268 0.066960 0.614242 -0.135766
C16   C     C_R   0.505836 0.129922 0.496434 -0.137164
C17   C     C_R   0.534622 0.061887 0.378642 0.307367
C18   C     C_R   0.528780 0.933344 0.379545 -0.197001
H2    H     H_    0.549487 0.881842 0.288805 0.188598
C19   C     C_R   0.505164 0.871358 0.501018 -0.087391
C20   C     C_R   0.482688 0.940678 0.618514 -0.013754
C21   C     C_3   0.515656 0.945733 0.766130 0.459525
C22   C     C_3   0.502769 0.084152 0.764998 0.096879
H3    H     H_    0.449621 0.115253 0.830988 0.125474
C23   C     C_R   0.569851 0.532765 0.073706 0.170176
N1    N     N_R   0.500520 0.500930 0.147930 -0.266794
C24   C     C_R   0.437650 0.441549 0.074596 0.465299
C25   C     C_R   0.435286 0.446979 0.924444 0.465923
N2    N     N_R   0.500520 0.500890 0.852020 -0.247570
C26   C     C_R   0.571107 0.527709 0.927328 0.089275
C27   C     C_3   0.624488 0.640549 0.922494 0.081206
C28   C     C_3   0.619307 0.649503 0.082218 0.197796
H4    H     H_    0.592478 0.712744 0.867259 0.147929
H5    H     H_    0.581031 0.726322 0.123395 0.106913
N3    N     N_R   0.088582 0.487360 0.752824 0.138633
O9    O     O_R   0.132770 0.580765 0.799905 -0.317901
O10   O     O_R   0.079513 0.390290 0.828510 -0.279445
N4    N     N_R   0.579263 0.159109 0.787796 0.197742
O11   O     O_R   0.642392 0.153906 0.701892 -0.253870
O12   O     O_R   0.583564 0.234151 0.894827 -0.290225
O13   O     O_3   0.376927 0.377010 0.147207 -0.567599
C29   C     C_3   0.386798 0.249893 0.123717 -0.178858
H6    H     H_    0.358213 0.200342 0.212463 0.180428
H7    H     H_    0.453419 0.223338 0.117347 0.200767
H8    H     H_    0.353440 0.218521 0.027745 0.188210
O14   O     O_3   0.372196 0.386574 0.850866 -0.600250
C30   C     C_3   0.295566 0.444441 0.876774 -0.100383
H9    H     H_    0.251019 0.412087 0.795180 0.206862
H10   H     H_    0.301289 0.546238 0.870419 0.195359
H11   H     H_    0.268115 0.417903 0.978392 0.217023
N5    N     N_R   0.708263 0.614788 0.869326 0.188938
O15   O     O_R   0.745579 0.690877 0.785749 -0.282709
O16   O     O_R   0.746068 0.515822 0.904735 -0.199684
O17   O     O_3   0.696104 0.631897 0.150412 -0.521339
C31   C     C_3   0.732630 0.746824 0.186627 -0.103859
H12   H     H_    0.695048 0.794255 0.268334 0.140435
H13   H     H_    0.740687 0.805566 0.093781 0.220093
H14   H     H_    0.795501 0.731922 0.230620 0.186215
N6    N     N_R   0.911538 0.460560 0.750884 0.183364
O18   O     O_R   0.859488 0.367388 0.756443 -0.241891
O19   O     O_R   0.926622 0.526238 0.863244 -0.199056
N7    N     N_R   0.085807 0.549238 0.241466 0.152429
O20   O     O_R   0.156790 0.609658 0.237556 -0.317443
O21   O     O_R   0.049676 0.518108 0.124189 -0.231655
N8    N     N_R   0.579317 0.119721 0.266408 0.123707
O22   O     O_R   0.577521 0.070183 0.141917 -0.281584
O23   O     O_R   0.636172 0.203850 0.294105 -0.294414
N9    N     N_R   0.461281 0.881882 0.866034 0.072744
O24   O     O_R   0.401399 0.807628 0.823384 -0.356878
O25   O     O_R   0.471788 0.900338 0.999328 -0.350294
N10   N     N_R   0.604146 0.914485 0.780299 0.125892
O26   O     O_R   0.641781 0.934528 0.898996 -0.263845
O27   O     O_R   0.648177 0.878896 0.673088 -0.325430

loop_
_geom_bond_atom_site_label_1
_geom_bond_atom_site_label_2
_geom_bond_distance
_ccdc_geom_bond_type
C31   H13   1.113022 S    
C15   C20   1.382307 A    
N7    O20   1.301278 A    
C8    C9    1.415397 A    
Cu1   Cu2   2.697182 S    
C29   H6    1.109289 S    
Cu1   O7    1.926644 S    
C15   C16   1.398949 A    
C18   H2    1.080747 S    
C17   C18   1.403252 A    
N8    O23   1.301606 A    
C24   C25   1.442627 A    
O7    C4    1.299100 A    
C31   H14   1.109379 S    
C24   O13   1.381786 S    
C30   H10   1.114943 S    
C5    C6    1.405042 A    
C25   O14   1.380892 S    
C22   H3    1.113270 S    
C26   C27   1.483622 S    
O5    C3    1.301848 A    
N5    O16   1.301382 A    
C15   C22   1.505739 S    
C6    C7    1.396824 A    
N4    O12   1.300052 A    
C11   C14   1.201582 T    
Cu1   N2    2.026049 S    
N6    O18   1.301170 A    
C21   N10   1.471983 S    
C27   N5    1.464041 S    
C28   O17   1.413386 S    
C30   H11   1.108529 S    
C31   H12   1.112159 S    
N7    O21   1.301391 A    
C23   C26   1.403324 A    
C27   H4    1.095948 S    
O3    Cu1   1.928404 S    
C7    H1    1.084229 S    
C29   H7    1.112603 S    
N3    O10   1.301190 A    
C8    N7    1.442548 S    
N8    O22   1.299827 A    
O3    C2    1.299175 A    
C25   N2    1.379161 A    
N9    O25   1.300376 A    
C21   N9    1.467718 S    
C30   H9    1.107209 S    
O1    C1    1.296606 A    
N1    C24   1.372168 A    
C19   C20   1.394113 A    
C9    C12   1.440738 S    
Cu2   O8    1.928401 S    
C2    C13   1.427973 S    
N5    O15   1.299763 A    
C21   C22   1.528762 S    
C28   H5    1.114057 S    
N2    C26   1.365874 A    
O8    C4    1.296931 A    
N10   O26   1.301612 A    
N10   O27   1.301648 A    
Cu2   N1    2.026886 S    
C17   N8    1.438676 S    
O13   C29   1.412346 S    
C10   N3    1.433152 S    
C29   H8    1.109408 S    
Cu1   O5    1.982604 S    
C5    N6    1.434948 S    
N3    O9    1.300783 A    
C23   N1    1.358530 A    
C22   N4    1.471139 S    
C6    C11   1.436728 S    
O1    Cu1   1.973774 S    
C3    C19   1.457934 S    
O2    Cu2   1.982601 S    
O6    C3    1.296673 A    
O4    Cu2   1.926644 S    
C20   C21   1.511680 S    
C1    C16   1.452324 S    
O2    C1    1.298157 A    
C18   C19   1.405132 A    
O14   C30   1.411196 S    
O4    C2    1.297263 A    
C7    C8    1.402521 A    
O17   C31   1.408338 S    
C4    C14   1.426971 S    
C12   C13   1.202436 T    
N9    O24   1.302095 A    
C5    C10   1.406534 A    
C9    C10   1.410305 A    
Cu2   O6    1.973774 S    
N4    O11   1.302774 A    
C27   C28   1.534379 S    
C16   C17   1.419428 A    
C23   C28   1.484815 S    
N6    O19   1.301271 A    
