data_mof_unit_32742.cif
_audit_creation_date              2012-12-11T15:29:28-0500
_audit_creation_method            fapswitch 2.2
_symmetry_space_group_name_H-M    P1
_symmetry_Int_Tables_number       1
_space_group_crystal_system       triclinic
_cell_length_a                    13.525211
_cell_length_b                    13.514432
_cell_length_c                    27.566339
_cell_angle_alpha                 90.632398
_cell_angle_beta                  89.762066
_cell_angle_gamma                 60.065895
_cell_volume                      4366.02398493

loop_
_atom_site_label
_atom_site_type_symbol
_atom_type_description
_atom_site_fract_x
_atom_site_fract_y
_atom_site_fract_z
_atom_type_partial_charge
C1    C     C_R   0.619205 0.100327 0.570341 0.549509
C2    C     C_1   0.632651 0.729338 0.615358 0.009626
C3    C     C_3   0.713720 0.555806 0.766757 0.031225
C4    C     C_3   0.691565 0.650307 0.804213 0.054449
C5    C     C_3   0.602603 0.638399 0.740327 -0.075528
C6    C     C_3   0.671948 0.676572 0.708887 0.029252
C7    C     C_3   0.580924 0.733635 0.778059 -0.096745
C8    C     C_3   0.650110 0.772073 0.745947 -0.143094
C9    C     C_1   0.695925 0.631929 0.856669 0.062075
C10   C     C_1   0.653951 0.699787 0.656896 -0.001026
C11   C     C_3   0.061191 0.179186 0.736140 -0.089514
C12   C     C_R   0.599619 0.779254 0.568375 0.544370
C13   C     C_3   0.137672 0.082460 0.771458 -0.068209
C14   C     C_1   0.096506 0.200682 0.899856 0.013577
C15   C     C_1   0.224030 0.141750 0.616027 0.006529
C16   C     C_3   0.066247 0.268127 0.770635 -0.092133
C17   C     C_3   0.143211 0.171340 0.805008 0.020612
C18   C     C_3   0.174171 0.252149 0.743730 -0.110771
C19   C     C_3   0.168777 0.163515 0.709954 0.044912
C20   C     C_3   0.250851 0.155677 0.778923 -0.137578
C21   C     C_3   0.244471 0.068129 0.744669 0.038464
C22   C     C_1   0.122923 0.182543 0.857539 -0.028227
C23   C     C_R   0.276675 0.122382 0.569057 0.546885
C24   C     C_1   0.192502 0.154264 0.657694 -0.018919
C25   C     C_3   0.687441 0.225251 0.738816 -0.105640
C26   C     C_3   0.585033 0.277178 0.775075 -0.101185
C27   C     C_1   0.688938 0.203887 0.902794 0.045219
C28   C     C_1   0.629848 0.128032 0.619575 -0.002891
C29   C     C_3   0.754535 0.125757 0.773669 0.047068
C30   C     C_3   0.653813 0.177262 0.809695 0.057793
C31   C     C_3   0.707783 0.054378 0.749224 -0.081075
C32   C     C_3   0.639112 0.155223 0.715041 0.007511
C33   C     C_3   0.606048 0.107566 0.785431 0.019489
C34   C     C_R   0.620378 0.096685 0.430097 0.523682
C35   C     C_3   0.536119 0.206868 0.750405 -0.147040
C36   C     C_1   0.668846 0.190809 0.861480 0.043787
C37   C     C_1   0.634408 0.143017 0.662439 -0.043856
C38   C     C_R   0.630082 0.739824 0.381338 0.046041
C39   C     C_R   0.710877 0.628015 0.367810 -0.108127
C40   C     C_R   0.735757 0.600727 0.318686 -0.060760
C41   C     C_R   0.680665 0.686223 0.284154 0.077235
C42   C     C_R   0.604946 0.798749 0.298226 -0.074059
C43   C     C_R   0.578836 0.825240 0.346719 -0.124107
C44   C     C_R   0.597992 0.646596 0.211501 0.041931
C45   C     C_R   0.602614 0.775595 0.431148 0.526470
C46   C     C_R   0.600022 0.632540 0.161468 -0.131380
C47   C     C_R   0.777930 0.634983 0.155279 -0.127885
C48   C     C_R   0.774472 0.654179 0.204997 -0.145854
C49   C     C_R   0.686699 0.657419 0.233193 0.030784
C50   C     C_R   0.692012 0.621377 0.133421 0.015895
C51   C     C_R   0.232364 0.132958 0.382203 0.014045
C52   C     C_R   0.267951 0.034623 0.353259 -0.157460
C53   C     C_R   0.254176 0.042150 0.303155 0.013900
C54   C     C_R   0.193112 0.151553 0.282182 0.039143
C55   C     C_R   0.150198 0.249893 0.311953 -0.148253
C56   C     C_R   0.279861 0.119493 0.430808 0.540659
C57   C     C_R   0.171756 0.240741 0.361447 -0.126139
C58   C     C_R   0.185366 0.245186 0.203897 -0.101963
C59   C     C_R   0.152991 0.265972 0.155547 -0.107034
C60   C     C_R   0.097245 0.121076 0.158070 -0.121643
C61   C     C_R   0.124095 0.104599 0.206832 -0.066568
C62   C     C_R   0.168797 0.166113 0.230060 0.064322
C63   C     C_R   0.105828 0.205993 0.132707 0.015593
C64   C     C_R   0.638852 0.130548 0.382030 -0.005784
C65   C     C_R   0.581383 0.247632 0.371018 -0.129719
C66   C     C_R   0.584416 0.283495 0.324138 -0.132265
C67   C     C_3   0.782430 0.593731 0.734805 -0.015086
C68   C     C_R   0.643206 0.202279 0.287703 -0.022903
C69   C     C_R   0.702449 0.086279 0.298371 -0.085945
C70   C     C_R   0.702261 0.048238 0.345012 0.005327
C71   C     C_R   0.762561 0.195727 0.220788 -0.131937
C72   C     C_R   0.783637 0.192021 0.171738 -0.125286
C73   C     C_R   0.581551 0.277819 0.155707 -0.093023
C74   C     C_R   0.558944 0.277948 0.205589 0.034920
C75   C     C_R   0.651867 0.233659 0.238043 -0.005887
C76   C     C_R   0.694212 0.230112 0.138840 0.004382
C77   C     C_R   0.049763 0.234875 0.947882 0.552850
C78   C     C_3   0.760465 0.687923 0.772490 -0.015431
C79   C     C_R   0.712502 0.561716 0.946459 0.554874
C80   C     C_R   0.722515 0.223670 0.949422 0.555064
C81   C     C_R   0.048054 0.243630 0.086170 0.540093
C82   C     C_R   0.709510 0.570435 0.084952 0.546750
C83   C     C_R   0.721260 0.234973 0.088184 0.539317
C84   C     C_1   0.700414 0.606896 0.898713 0.053713
Cr1   Cr    Cr6+3 0.417550 0.169090 0.500530 1.035857
Cr2   Cr    Cr6+3 0.669180 0.913420 0.499920 1.036027
Cr3   Cr    Cr6+3 0.413260 0.917540 0.499520 1.044039
Cr4   Cr    Cr6+3 0.909770 0.175810 0.018240 1.049291
Cr5   Cr    Cr6+3 0.913300 0.427650 0.016090 1.055765
Cr6   Cr    Cr6+3 0.657770 0.431010 0.016900 1.053048
H1    H     H_    0.993487 0.351109 0.782980 0.124054
H2    H     H_    0.445781 0.239586 0.740254 0.109929
H3    H     H_    0.793871 0.513254 0.307467 0.111184
H4    H     H_    0.840916 0.665067 0.221676 0.141512
H5    H     H_    0.563006 0.864764 0.271488 0.153418
H6    H     H_    0.219793 0.293318 0.221418 0.157828
H7    H     H_    0.108359 0.044913 0.226612 0.121608
H8    H     H_    0.532800 0.311457 0.398701 0.137128
H9    H     H_    0.834123 0.162369 0.245384 0.126331
H10   H     H_    0.870282 0.160634 0.159477 0.127605
H11   H     H_    0.499237 0.791395 0.797088 0.163482
H12   H     H_    0.538084 0.617199 0.726803 0.153892
O1    O     O_R   0.301780 0.195490 0.553940 -0.503004
O2    O     O_R   0.658840 0.818280 0.449970 -0.517612
O3    O     O_R   0.503160 0.801780 0.445740 -0.503643
O4    O     O_R   0.319320 0.022190 0.450230 -0.504564
O5    O     O_3   0.499990 0.000010 0.499990 -0.260571
O6    O     O_R   0.819250 0.149410 0.965240 -0.494533
O7    O     O_R   0.006940 0.180310 0.968270 -0.491225
O8    O     O_R   0.028420 0.332670 0.963010 -0.494669
O9    O     O_R   0.810130 0.520390 0.966030 -0.486682
O10   O     O_R   0.636050 0.541380 0.962520 -0.496383
O11   O     O_R   0.666480 0.323610 0.968170 -0.489265
O12   O     O_R   0.522450 0.158840 0.550250 -0.493764
O13   O     O_R   0.817280 0.156800 0.072180 -0.512394
O14   O     O_R   0.005110 0.187160 0.067410 -0.508579
O15   O     O_R   0.026450 0.340060 0.069950 -0.515285
O16   O     O_R   0.808300 0.527240 0.065170 -0.502580
O17   O     O_R   0.634070 0.548770 0.069460 -0.516120
O18   O     O_R   0.664650 0.330470 0.067300 -0.500947
O19   O     O_3   0.826940 0.344820 0.017080 -0.262230
O20   O     O_R   0.694460 0.003360 0.553820 -0.497411
O21   O     O_R   0.657750 0.819520 0.549120 -0.493717
O22   O     O_R   0.501990 0.803120 0.552700 -0.497619
O23   O     O_R   0.318230 0.023430 0.549370 -0.489167
O24   O     O_R   0.302950 0.194150 0.446980 -0.511249
O25   O     O_R   0.523540 0.157600 0.451100 -0.497216
O26   O     O_R   0.695630 0.002030 0.446860 -0.526432
C85   C     C_2   0.847132 0.718271 0.789437 0.226750
H13   H     H_    0.889417 0.744549 0.763333 0.116258
O27   O     O_2   0.870450 0.713825 0.832347 -0.459043
H14   H     H_    0.327083 0.147354 0.797372 0.119198
H15   H     H_    0.188174 0.322428 0.731782 0.121035
H16   H     H_    0.534326 0.368593 0.786021 0.161391
H17   H     H_    0.721299 0.272094 0.718182 0.116808
C86   C     C_2   0.560736 0.041512 0.811365 0.226550
H18   H     H_    0.521302 0.001758 0.791000 0.071699
O28   O     O_2   0.566913 0.032753 0.855391 -0.475836
H19   H     H_    0.758064 0.962973 0.738176 0.126641
C87   C     C_2   0.876158 0.081377 0.787283 0.222409
H20   H     H_    0.901179 0.138226 0.804249 0.106942
O29   O     O_2   0.947080 0.981394 0.779698 -0.497206
H21   H     H_    0.752286 0.562686 0.394840 0.103397
C88   C     C_2   0.893764 0.516817 0.709669 0.189451
H22   H     H_    0.969315 0.521034 0.719153 0.103979
O30   O     O_2   0.900111 0.448539 0.678746 -0.512759
C89   C     C_2   0.503902 0.645131 0.239111 0.237893
H23   H     H_    0.430238 0.653589 0.219879 0.121721
O31   O     O_2   0.508139 0.631153 0.282877 -0.523420
H24   H     H_    0.533574 0.621356 0.144939 0.131150
H25   H     H_    0.849869 0.626271 0.134341 0.141427
H26   H     H_    0.519430 0.912811 0.357451 0.098733
H27   H     H_    0.316920 0.950755 0.369015 0.134271
H28   H     H_    0.160709 0.331752 0.136714 0.159683
H29   H     H_    0.626177 0.860104 0.735435 0.085639
C90   C     C_2   0.312939 0.933693 0.274695 0.189695
H30   H     H_    0.330597 0.854504 0.291619 0.146566
O32   O     O_2   0.347579 0.930213 0.233392 -0.514638
H31   H     H_    0.063115 0.072018 0.141135 0.128377
H32   H     H_    0.101686 0.334230 0.296656 0.114812
H33   H     H_    0.143905 0.317527 0.383225 0.136367
H34   H     H_    0.540377 0.373776 0.316162 0.151009
C91   C     C_2   0.440203 0.319688 0.222634 0.215356
H35   H     H_    0.422322 0.308704 0.259917 0.116473
O33   O     O_2   0.360095 0.367734 0.195007 -0.536159
H36   H     H_    0.512552 0.311509 0.129861 0.162225
H37   H     H_    0.747481 0.024767 0.269348 0.164126
C92   C     C_2   0.763681 0.922409 0.351948 0.222190
H38   H     H_    0.739131 0.883666 0.379911 0.161122
O34   O     O_2   0.842643 0.858849 0.325036 -0.519644
C93   C     C_2   0.750287 0.434557 0.778519 0.192297
H39   H     H_    0.809794 0.366190 0.754731 0.110042
O35   O     O_2   0.711671 0.412353 0.814181 -0.542628
H40   H     H_    0.126058 0.011002 0.783685 0.189675
H41   H     H_    0.983507 0.189451 0.718062 0.131609
C94   C     C_2   0.343042 0.956800 0.727873 0.210292
H42   H     H_    0.418199 0.954275 0.712525 0.084540
O36   O     O_2   0.338119 0.869287 0.730339 -0.505017

loop_
_geom_bond_atom_site_label_1
_geom_bond_atom_site_label_2
_ccdc_geom_bond_type
C44   C49   A    
C58   C62   A    
C66   C68   A    
C93   H39   S    
Cr3   O4    S    
C41   C42   A    
Cr2   O5    S    
C60   H31   S    
Cr6   O10   S    
C40   H3    S    
C72   C76   A    
C2    C12   S    
C17   C20   S    
C7    C8    S    
C53   C54   A    
C68   C75   S    
C93   O35   D    
C11   C19   S    
C48   H4    S    
C79   O10   A    
C63   C81   S    
C60   C63   A    
C5    C6    S    
Cr1   O12   S    
C89   O31   D    
C78   C85   S    
C87   O29   D    
C65   H8    S    
C18   C19   S    
C70   C92   S    
C79   C84   S    
Cr4   O6    S    
Cr6   O11   S    
C81   O15   A    
C44   C89   S    
C66   H34   S    
C18   H15   S    
C51   C56   S    
C73   C74   A    
C14   C77   S    
C8    H29   S    
C58   H6    S    
C1    O20   A    
C38   C45   S    
C5    H12   S    
C23   O1    A    
C89   H23   S    
C52   H27   S    
C45   O3    A    
C34   O25   A    
C12   O22   A    
Cr2   O20   S    
C1    C28   S    
C31   C33   S    
C94   H42   S    
C51   C57   A    
C56   O24   A    
Cr1   O1    S    
C23   O23   A    
C35   H2    S    
C25   C32   S    
C92   O34   D    
Cr2   O2    S    
Cr5   O9    S    
C8    C78   S    
Cr1   O24   S    
C69   C70   A    
C67   C78   S    
C82   O17   A    
C20   H14   S    
C4    C7    S    
C67   C88   S    
C76   C83   S    
C41   C49   S    
C79   O9    A    
C59   H28   S    
C44   C46   A    
C47   C50   A    
C25   C29   S    
C38   C39   A    
C3    C67   S    
C74   C75   A    
Cr2   O26   S    
C42   H5    S    
C32   C35   S    
C92   H38   S    
C87   H20   S    
C86   O28   D    
C27   C80   S    
C39   C40   A    
C5    C7    S    
C16   C17   S    
C6    C8    S    
C54   C62   S    
C25   C26   S    
C71   H9    S    
Cr5   O8    S    
C51   C52   A    
C60   C61   A    
C90   H30   S    
C83   O18   A    
Cr4   O14   S    
C69   H37   S    
C73   C76   A    
C4    C78   S    
C29   C30   S    
C26   H16   S    
C45   O2    A    
C83   O13   A    
C11   C16   S    
C47   C48   A    
Cr3   O3    S    
C21   C94   S    
C34   C64   S    
C13   C21   S    
C16   C18   S    
C15   C24   T    
C32   C37   S    
C80   O11   A    
C77   O7    A    
C56   O4    A    
C53   C90   S    
Cr4   O7    S    
C88   O30   D    
C40   C41   A    
C46   H24   S    
C39   H21   S    
C26   C30   S    
C64   C70   A    
C55   C57   A    
C7    H11   S    
Cr6   O19   S    
Cr1   O25   S    
C1    O12   A    
C82   O16   A    
C31   H19   S    
C3    C4    S    
C2    C10   T    
Cr3   O23   S    
C52   C53   A    
C50   C82   S    
C85   H13   S    
C72   H10   S    
C29   C87   S    
C46   C50   A    
C54   C55   A    
C55   H32   S    
C30   C33   S    
C19   C21   S    
C59   C63   A    
C68   C69   A    
C31   C32   S    
C61   H7    S    
Cr5   O15   S    
C73   H36   S    
C3    C5    S    
Cr3   O5    S    
C13   H40   S    
C6    C10   S    
C13   C17   S    
C27   C36   T    
C80   O6    A    
C11   H41   S    
C17   C22   S    
C30   C36   S    
C88   H22   S    
C64   C65   A    
C14   C22   T    
Cr4   O13   S    
C90   O32   D    
C19   C24   S    
C58   C59   A    
C38   C43   A    
C29   C31   S    
C6    C67   S    
Cr6   O17   S    
C71   C75   A    
C11   C13   S    
C33   C86   S    
C3    C93   S    
C74   C91   S    
C12   O21   A    
Cr5   O19   S    
C28   C37   T    
C48   C49   A    
C81   O14   A    
C15   C23   S    
C33   C35   S    
C57   H33   S    
C18   C20   S    
C61   C62   A    
C25   H17   S    
Cr5   O16   S    
C91   H35   S    
C47   H25   S    
C9    C84   T    
C26   C35   S    
C71   C72   A    
Cr3   O22   S    
C20   C21   S    
C16   H1    S    
C34   O26   A    
C65   C66   A    
C42   C43   A    
Cr2   O21   S    
C86   H18   S    
C91   O33   D    
C4    C9    S    
Cr1   O5    S    
C77   O8    A    
C43   H26   S    
Cr4   O19   S    
Cr6   O18   S    
C94   O36   D    
C85   O27   D    
