data_mof_unit_50865.cif
_audit_creation_date              2012-12-11T14:04:08-0500
_audit_creation_method            fapswitch 2.2
_symmetry_space_group_name_H-M    P1
_symmetry_Int_Tables_number       1
_space_group_crystal_system       triclinic
_cell_length_a                    19.235382
_cell_length_b                    10.901842
_cell_length_c                    18.771953
_cell_angle_alpha                 90.836957
_cell_angle_beta                  89.297813
_cell_angle_gamma                 90.34852
_cell_volume                      3935.71491697

loop_
_atom_site_label
_atom_site_type_symbol
_atom_type_description
_atom_site_fract_x
_atom_site_fract_y
_atom_site_fract_z
_atom_type_partial_charge
C1    C     C_R   0.240815 0.462047 0.648754 0.540662
C2    C     C_R   0.758662 0.464965 0.351881 0.515446
C3    C     C_R   0.740815 0.962046 0.648755 0.540679
C4    C     C_R   0.258662 0.964965 0.351881 0.515446
C5    C     C_2   0.273065 0.817222 0.530383 -0.123593
C6    C     C_2   0.737797 0.781696 0.476727 -0.148873
C7    C     C_2   0.773065 0.317223 0.530383 -0.123596
C8    C     C_2   0.237800 0.281692 0.476728 -0.148865
C9    C     C_R   0.958031 0.657086 0.439405 -0.046523
C10   C     C_R   0.039383 0.660843 0.562608 -0.038176
C11   C     C_R   0.458029 0.157086 0.439405 -0.046519
C12   C     C_R   0.539381 0.160843 0.562609 -0.038170
C13   C     C_R   0.935008 0.877211 0.459143 -0.092279
C14   C     C_R   0.027317 0.890013 0.567591 -0.063121
C15   C     C_R   0.435006 0.377212 0.459143 -0.092277
C16   C     C_R   0.527314 0.390012 0.567592 -0.063126
C17   C     C_R   0.938454 0.983635 0.500363 -0.077540
C18   C     C_R   0.986384 0.991183 0.554202 -0.106136
C19   C     C_R   0.438453 0.483636 0.500363 -0.077541
C20   C     C_R   0.486382 0.491184 0.554203 -0.106140
C21   C     C_R   0.013007 0.773067 0.536265 0.013143
C22   C     C_R   0.968977 0.769134 0.477019 -0.015851
C23   C     C_R   0.513004 0.273067 0.536266 0.013147
C24   C     C_R   0.468974 0.269134 0.477020 -0.015837
C25   C     C_R   0.026964 0.549933 0.524891 0.008936
C26   C     C_R   0.977361 0.546543 0.471801 0.019061
C27   C     C_R   0.526961 0.049934 0.524891 0.008941
C28   C     C_R   0.477358 0.046543 0.471801 0.019066
C29   C     C_R   0.060655 0.439897 0.541402 -0.075852
C30   C     C_R   0.950221 0.431244 0.450588 -0.077523
C31   C     C_R   0.560653 0.939898 0.541402 -0.075848
C32   C     C_R   0.450219 0.931244 0.450588 -0.077520
C33   C     C_R   0.037906 0.326855 0.514659 -0.119801
C34   C     C_R   0.980779 0.322517 0.470798 -0.124348
C35   C     C_R   0.537905 0.826856 0.514658 -0.119800
C36   C     C_R   0.480778 0.822518 0.470798 -0.124347
C37   C     C_2   0.237733 0.899052 0.928641 -0.102678
C38   C     C_2   0.744201 0.935967 0.086153 -0.105962
C39   C     C_2   0.737733 0.399052 0.928641 -0.102677
C40   C     C_2   0.244201 0.435967 0.086153 -0.105962
C41   C     C_2   0.249087 0.894954 0.084586 -0.109458
C42   C     C_2   0.728478 0.986005 0.933515 -0.098716
C43   C     C_2   0.749087 0.394954 0.084586 -0.109458
C44   C     C_2   0.228478 0.486005 0.933515 -0.098717
C45   C     C_R   0.226721 0.872335 0.646867 0.524455
C46   C     C_R   0.788009 0.834746 0.360389 0.525347
C47   C     C_R   0.726721 0.372335 0.646867 0.524455
C48   C     C_R   0.288009 0.334745 0.360389 0.525348
C49   C     C_2   0.189465 0.909448 0.050237 -0.158316
C50   C     C_2   0.765770 0.056896 0.978055 -0.159935
C51   C     C_2   0.689465 0.409448 0.050237 -0.158317
C52   C     C_2   0.265770 0.556895 0.978055 -0.159936
C53   C     C_2   0.183928 0.884888 0.974299 -0.151981
C54   C     C_2   0.781366 0.020712 0.051093 -0.155840
C55   C     C_2   0.683928 0.384888 0.974299 -0.151980
C56   C     C_2   0.281366 0.520712 0.051093 -0.155841
C57   C     C_2   0.989915 0.665927 0.916732 -0.121397
C58   C     C_2   0.989374 0.654583 0.073325 -0.094763
C59   C     C_2   0.489915 0.165927 0.916732 -0.121395
C60   C     C_2   0.489374 0.154583 0.073325 -0.094763
C61   C     C_2   0.959876 0.570944 0.029477 -0.149714
C62   C     C_2   0.973645 0.565788 0.953403 -0.168299
C63   C     C_2   0.459876 0.070944 0.029477 -0.149716
C64   C     C_2   0.473645 0.065788 0.953403 -0.168296
C65   C     C_R   0.061317 0.651170 0.637170 0.540711
C66   C     C_R   0.938348 0.651203 0.363120 0.528691
C67   C     C_R   0.561317 0.151170 0.637170 0.540699
C68   C     C_R   0.438347 0.151203 0.363120 0.528690
C69   C     C_R   0.224844 0.517017 0.858764 0.566784
C70   C     C_R   0.761130 0.463054 0.150212 0.551434
C71   C     C_R   0.724844 0.017017 0.858764 0.566787
C72   C     C_R   0.261130 0.963054 0.150212 0.551434
C73   C     C_R   0.225360 0.870828 0.854440 0.540363
C74   C     C_R   0.772052 0.876175 0.148491 0.570520
C75   C     C_R   0.725360 0.370828 0.854440 0.540359
C76   C     C_R   0.272052 0.376175 0.148491 0.570520
C77   C     C_R   0.027786 0.653296 0.849976 0.545050
C78   C     C_R   0.969055 0.651428 0.147723 0.565374
C79   C     C_R   0.527786 0.153296 0.849976 0.545041
C80   C     C_R   0.469055 0.151428 0.147723 0.565374
C81   C     C_2   0.246679 0.904861 0.574402 -0.090569
C82   C     C_2   0.770455 0.863854 0.434995 -0.100972
C83   C     C_2   0.746679 0.404861 0.574403 -0.090574
C84   C     C_2   0.270456 0.363852 0.434995 -0.100973
C85   C     C_2   0.235279 0.898753 0.416035 0.249029
C86   C     C_2   0.764451 0.873517 0.593717 0.255208
C87   C     C_2   0.735279 0.398753 0.416035 0.249030
C88   C     C_2   0.264452 0.373518 0.593716 0.255204
C89   C     C_2   0.281173 0.834963 0.453268 -0.132125
C90   C     C_2   0.719807 0.813228 0.551281 -0.157095
C91   C     C_2   0.781173 0.334964 0.453269 -0.132126
C92   C     C_2   0.219810 0.313225 0.551281 -0.157085
Cr1   Cr    Cr6+3 0.113970 0.508630 0.747920 0.995018
Cr2   Cr    Cr6+3 0.886030 0.508630 0.252080 0.998863
Cr3   Cr    Cr6+3 0.613970 0.008630 0.747920 0.995011
Cr4   Cr    Cr6+3 0.386030 0.008630 0.252080 0.998863
Cr5   Cr    Cr6+3 0.269200 0.666740 0.749850 1.007812
Cr6   Cr    Cr6+3 0.730800 0.666740 0.250150 1.003803
Cr7   Cr    Cr6+3 0.769200 0.166740 0.749850 1.007818
Cr8   Cr    Cr6+3 0.230800 0.166740 0.250150 1.003803
Cr9   Cr    Cr6+3 0.112300 0.820070 0.749800 0.993259
Cr10  Cr    Cr6+3 0.887700 0.820070 0.250200 0.987744
Cr11  Cr    Cr6+3 0.612300 0.320070 0.749800 0.993249
Cr12  Cr    Cr6+3 0.387700 0.320070 0.250200 0.987743
H1    H     H_    0.325663 0.793755 0.426743 0.077593
H2    H     H_    0.668992 0.789265 0.571122 0.086003
H3    H     H_    0.825663 0.293756 0.426743 0.077593
H4    H     H_    0.168994 0.289263 0.571121 0.086001
H5    H     H_    0.132224 0.862818 0.954889 0.149523
H6    H     H_    0.828546 0.058746 0.074003 0.152005
H7    H     H_    0.632224 0.362818 0.954889 0.149524
H8    H     H_    0.328546 0.558746 0.074002 0.152005
H9    H     H_    0.290085 0.920129 0.946189 0.087894
H10   H     H_    0.694888 0.902317 0.066122 0.105355
H11   H     H_    0.790085 0.420129 0.946189 0.087894
H12   H     H_    0.194888 0.402317 0.066122 0.105355
H13   H     H_    0.927068 0.497929 0.050378 0.150873
H14   H     H_    0.975165 0.475150 0.928575 0.154980
H15   H     H_    0.427068 0.997929 0.050378 0.150873
H16   H     H_    0.475165 0.975150 0.928575 0.154982
H17   H     H_    0.021964 0.728934 0.053989 0.086026
H18   H     H_    0.984667 0.757006 0.940399 0.107276
H19   H     H_    0.521964 0.228934 0.053989 0.086026
H20   H     H_    0.484667 0.257006 0.940399 0.107274
H21   H     H_    0.906909 0.061841 0.487610 0.100899
H22   H     H_    0.994377 0.076731 0.582962 0.104281
H23   H     H_    0.406909 0.561843 0.487610 0.100898
H24   H     H_    0.494376 0.576731 0.582963 0.104282
H25   H     H_    0.144448 0.950228 0.076649 0.151924
H26   H     H_    0.792347 0.137877 0.958003 0.143324
H27   H     H_    0.644448 0.450228 0.076649 0.151924
H28   H     H_    0.292347 0.637877 0.958003 0.143325
O1    O     O_R   0.043230 0.549300 0.667990 -0.526698
O2    O     O_R   0.956770 0.549300 0.332010 -0.503388
O3    O     O_R   0.543230 0.049300 0.667990 -0.526716
O4    O     O_R   0.456770 0.049300 0.332010 -0.503388
O5    O     O_R   0.262920 0.788600 0.824420 -0.514485
O6    O     O_R   0.737080 0.788600 0.175580 -0.486829
O7    O     O_R   0.762920 0.288600 0.824420 -0.514487
O8    O     O_R   0.237080 0.288600 0.175580 -0.486829
O9    O     O_R   0.167530 0.905110 0.830340 -0.506539
O10   O     O_R   0.832470 0.905110 0.169660 -0.509017
O11   O     O_R   0.667530 0.405110 0.830340 -0.506540
O12   O     O_R   0.332470 0.405110 0.169660 -0.509017
O13   O     O_R   0.054010 0.748440 0.822860 -0.499700
O14   O     O_R   0.945990 0.748440 0.177140 -0.490881
O15   O     O_R   0.554010 0.248440 0.822860 -0.499700
O16   O     O_R   0.445990 0.248440 0.177140 -0.490881
O17   O     O_3   0.165160 0.665150 0.749190 -0.278065
O18   O     O_3   0.834840 0.665150 0.250810 -0.272744
O19   O     O_3   0.665160 0.165150 0.749190 -0.278062
O20   O     O_3   0.334840 0.165150 0.250810 -0.272744
O21   O     O_R   0.178620 0.457600 0.674100 -0.553555
O22   O     O_R   0.821380 0.457600 0.325900 -0.552673
O23   O     O_R   0.678620 0.957600 0.674100 -0.553554
O24   O     O_R   0.321380 0.957600 0.325900 -0.552673
O25   O     O_R   0.284680 0.542100 0.669460 -0.487875
O26   O     O_R   0.715320 0.542100 0.330540 -0.531235
O27   O     O_R   0.784680 0.042100 0.669460 -0.487866
O28   O     O_R   0.215320 0.042100 0.330540 -0.531236
O29   O     O_R   0.262860 0.790390 0.676650 -0.495972
O30   O     O_R   0.737140 0.790390 0.323350 -0.481679
O31   O     O_R   0.762860 0.290390 0.676650 -0.495976
O32   O     O_R   0.237140 0.290390 0.323350 -0.481679
O33   O     O_R   0.167460 0.907030 0.670940 -0.541551
O34   O     O_R   0.832540 0.907030 0.329060 -0.546685
O35   O     O_R   0.667460 0.407030 0.670940 -0.541549
O36   O     O_R   0.332540 0.407030 0.329060 -0.546686
O37   O     O_R   0.053950 0.750220 0.675100 -0.519506
O38   O     O_R   0.946050 0.750220 0.324900 -0.532964
O39   O     O_R   0.553950 0.250220 0.675100 -0.519513
O40   O     O_R   0.446050 0.250220 0.324900 -0.532965
O41   O     O_R   0.043300 0.547370 0.827390 -0.514437
O42   O     O_R   0.956700 0.547370 0.172610 -0.505808
O43   O     O_R   0.543300 0.047370 0.827390 -0.514447
O44   O     O_R   0.456700 0.047370 0.172610 -0.505808
O45   O     O_R   0.178690 0.455820 0.821860 -0.499357
O46   O     O_R   0.821310 0.455820 0.178140 -0.502656
O47   O     O_R   0.678690 0.955820 0.821860 -0.499355
O48   O     O_R   0.321310 0.955820 0.178140 -0.502656
O49   O     O_R   0.284750 0.540170 0.828860 -0.513347
O50   O     O_R   0.715250 0.540170 0.171140 -0.514339
O51   O     O_R   0.784750 0.040170 0.828860 -0.513337
O52   O     O_R   0.215250 0.040170 0.171140 -0.514339
H29   H     H_    0.292599 0.846968 0.059693 0.093817
H30   H     H_    0.702068 0.903303 0.950798 0.109087
H31   H     H_    0.792599 0.346968 0.059693 0.093817
H32   H     H_    0.202069 0.403303 0.950798 0.109086
H33   H     H_    0.289516 0.729575 0.551028 0.146950
H34   H     H_    0.718782 0.695621 0.454439 0.149069
H35   H     H_    0.789518 0.229576 0.551028 0.146950
H36   H     H_    0.218786 0.195616 0.454440 0.149068
O53   O     O_3   0.169751 0.922359 0.446383 -0.593992
C93   C     C_3   0.115495 0.914928 0.395757 0.051274
H37   H     H_    0.077563 0.846491 0.414223 0.158427
H38   H     H_    0.131740 0.878569 0.342282 0.134831
C94   C     C_3   0.079323 0.040278 0.390122 -0.241475
H39   H     H_    0.049412 0.059755 0.439026 0.146142
H40   H     H_    0.116907 0.117263 0.387080 0.202332
C95   C     C_3   0.031788 0.045564 0.325836 -0.456150
H41   H     H_    0.991122 0.973520 0.328882 0.176015
H42   H     H_    0.062477 0.032818 0.275794 0.155702
H43   H     H_    0.006026 0.136380 0.324675 0.131888
O54   O     O_3   0.834943 0.850107 0.587494 -0.558046
C96   C     C_3   0.848857 0.737989 0.622304 0.012275
H44   H     H_    0.894640 0.694882 0.596464 0.166476
H45   H     H_    0.806333 0.668423 0.616677 0.109629
C97   C     C_3   0.865064 0.760380 0.701248 -0.253837
H46   H     H_    0.913645 0.815458 0.705867 0.194888
H47   H     H_    0.822230 0.812255 0.727606 0.182068
C98   C     C_3   0.873333 0.639557 0.740209 -0.455507
H48   H     H_    0.824489 0.584832 0.737517 0.147937
H49   H     H_    0.884950 0.658611 0.797067 0.152440
H50   H     H_    0.916417 0.585302 0.716167 0.193182
O55   O     O_3   0.669751 0.422358 0.446383 -0.593992
C99   C     C_3   0.615495 0.414927 0.395758 0.051273
H51   H     H_    0.577563 0.346490 0.414224 0.158425
H52   H     H_    0.631740 0.378567 0.342283 0.134832
C100  C     C_3   0.579323 0.540276 0.390122 -0.241477
H53   H     H_    0.549412 0.559753 0.439027 0.146142
H54   H     H_    0.616907 0.617262 0.387080 0.202332
C101  C     C_3   0.531788 0.545562 0.325836 -0.456149
H55   H     H_    0.491121 0.473520 0.328882 0.176015
H56   H     H_    0.562478 0.532815 0.275794 0.155703
H57   H     H_    0.506028 0.636379 0.324674 0.131888
O56   O     O_3   0.334944 0.350107 0.587496 -0.558046
C102  C     C_3   0.348858 0.238008 0.622327 0.012292
H58   H     H_    0.394642 0.194882 0.596491 0.166481
H59   H     H_    0.306331 0.168441 0.616716 0.109618
C103  C     C_3   0.365066 0.260448 0.701269 -0.253828
H60   H     H_    0.413638 0.315551 0.705876 0.194879
H61   H     H_    0.322225 0.312312 0.727619 0.182084
C104  C     C_3   0.373357 0.139654 0.740251 -0.455538
H62   H     H_    0.324544 0.084842 0.737513 0.147934
H63   H     H_    0.384905 0.158748 0.797122 0.152414
H64   H     H_    0.416496 0.085471 0.716264 0.193253
H65   H     H_    0.230912 0.993322 0.554440 0.135790
H66   H     H_    0.787385 0.951545 0.457202 0.126162
H67   H     H_    0.730911 0.493321 0.554440 0.135788
H68   H     H_    0.287385 0.451544 0.457202 0.126160
H69   H     H_    0.903986 0.879269 0.414976 0.159385
H70   H     H_    0.069895 0.906688 0.602046 0.184520
H71   H     H_    0.403987 0.379272 0.414975 0.159385
H72   H     H_    0.569892 0.406688 0.602047 0.184520
H73   H     H_    0.906762 0.425512 0.416037 0.149388
H74   H     H_    0.103910 0.443084 0.576059 0.144888
H75   H     H_    0.406760 0.925512 0.416036 0.149389
H76   H     H_    0.603908 0.943085 0.576058 0.144890
H77   H     H_    0.063158 0.242689 0.529034 0.096168
H78   H     H_    0.961449 0.235999 0.450396 0.093011
H79   H     H_    0.563157 0.742690 0.529033 0.096168
H80   H     H_    0.461448 0.735999 0.450395 0.093011

loop_
_geom_bond_atom_site_label_1
_geom_bond_atom_site_label_2
_ccdc_geom_bond_type
Cr10  O38   S    
C7    C83   D    
Cr11  O35   S    
C6    C82   D    
C30   H73   S    
C87   C91   D    
C94   C95   S    
C29   H74   S    
C14   C18   A    
Cr1   O17   S    
C35   C36   A    
C42   C50   D    
C99   C100  S    
C57   C77   S    
C7    H35   S    
C103  H61   S    
C65   O1    A    
Cr11  O15   S    
C57   C62   D    
Cr4   O4    S    
C73   O9    A    
C96   H44   S    
Cr8   O20   S    
C15   C19   A    
C74   O6    A    
C12   C23   A    
Cr9   O13   S    
C59   C64   D    
C50   C54   S    
C73   O5    A    
Cr6   O6    S    
C60   C63   D    
C32   C36   A    
C14   C21   A    
C99   H52   S    
C20   H24   S    
Cr7   O27   S    
C97   C98   S    
C38   C74   S    
C38   H10   S    
C9    C22   A    
C96   C97   S    
C93   C94   S    
C37   H9    S    
C94   H39   S    
Cr4   O20   S    
C29   C33   A    
C11   C24   A    
C47   O35   A    
C54   H6    S    
C103  C104  S    
C17   C18   A    
Cr2   O46   S    
C71   O47   A    
C94   H40   S    
C102  H58   S    
Cr3   O43   S    
C9    C66   S    
C45   O29   A    
C50   H26   S    
C69   O45   A    
C57   H18   S    
C14   H70   S    
Cr9   O9    S    
C60   C80   S    
C92   H4    S    
C39   C55   D    
Cr6   O26   S    
C95   H41   S    
C40   C56   D    
C48   O36   A    
Cr8   O52   S    
O54   C96   S    
C23   C24   A    
Cr12  O12   S    
Cr9   O37   S    
C8    C92   S    
C39   C75   S    
Cr8   O8    S    
C104  H62   S    
C51   C55   S    
Cr2   O22   S    
Cr12  O40   S    
C37   C53   D    
C44   C52   D    
C58   C61   D    
C96   H45   S    
C93   H37   S    
C74   O10   A    
Cr10  O34   S    
C66   O2    A    
C21   C22   A    
C3    C86   S    
Cr11  O39   S    
C40   H12   S    
Cr7   O7    S    
C103  H60   S    
C58   C78   S    
C85   O53   S    
Cr5   O5    S    
Cr6   O30   S    
C70   O50   A    
C9    C26   A    
C33   C34   A    
C83   H67   S    
C76   O8    A    
C10   C21   A    
C25   C29   A    
C12   C67   S    
C15   H71   S    
O56   C102  S    
C30   C34   A    
C32   H75   S    
C61   H13   S    
C52   H28   S    
C91   H3    S    
C28   C32   A    
C99   H51   S    
C80   O44   A    
C34   H78   S    
C86   C90   D    
C59   C79   S    
C100  H53   S    
C85   C89   D    
C70   O46   A    
C79   O15   A    
C4    C85   S    
C12   C27   A    
C101  H57   S    
C67   O39   A    
C25   C26   A    
C6    C90   S    
C49   H25   S    
Cr1   O21   S    
C44   H32   S    
C47   C83   S    
C48   C84   S    
C65   O37   A    
Cr5   O25   S    
Cr6   O50   S    
C60   H19   S    
C33   H77   S    
O55   C99   S    
C17   H21   S    
C67   O3    A    
C79   O43   A    
C100  H54   S    
C5    C81   D    
Cr8   O28   S    
C98   H48   S    
C38   C54   D    
C68   O4    A    
C16   C20   A    
C7    C91   S    
Cr11  O19   S    
C6    H34   S    
Cr3   O3    S    
C93   H38   S    
C41   H29   S    
C2    C87   S    
Cr8   O32   S    
C88   C92   D    
Cr4   O48   S    
C39   H11   S    
C1    O21   A    
C104  H63   S    
C90   H2    S    
C75   O11   A    
Cr10  O18   S    
C41   C72   S    
Cr7   O31   S    
C16   H72   S    
C10   C25   A    
Cr3   O47   S    
C15   C24   A    
C98   H49   S    
Cr2   O42   S    
C26   C30   A    
C16   C23   A    
Cr5   O29   S    
C27   C31   A    
C46   O30   A    
Cr9   O33   S    
C31   C35   A    
C31   H76   S    
Cr3   O19   S    
C3    O23   A    
Cr4   O24   S    
C4    O24   A    
C86   O54   S    
C27   C28   A    
C11   C68   S    
Cr6   O18   S    
C10   C65   S    
C53   H5    S    
C59   H20   S    
C37   C73   S    
C101  H56   S    
C58   H17   S    
C77   O41   A    
C46   O34   A    
C55   H7    S    
C63   H15   S    
C72   O52   A    
Cr7   O51   S    
C66   O38   A    
Cr5   O17   S    
C84   H68   S    
C88   O56   S    
C76   O12   A    
Cr11  O11   S    
C43   H31   S    
Cr4   O44   S    
Cr2   O2    S    
Cr12  O36   S    
Cr5   O49   S    
C48   O32   A    
C46   C82   S    
C43   C70   S    
C41   C49   D    
Cr10  O10   S    
Cr1   O1    S    
C64   H16   S    
C87   O55   S    
C13   C17   A    
C97   H47   S    
Cr12  O20   S    
C19   C20   A    
C1    O25   A    
Cr1   O45   S    
C47   O31   A    
Cr12  O16   S    
C102  H59   S    
C75   O7    A    
C2    O22   A    
C18   H22   S    
C100  C101  S    
C42   H30   S    
C68   O40   A    
C43   C51   D    
C4    O28   A    
C77   O13   A    
Cr7   O19   S    
C11   C28   A    
C1    C88   S    
C95   H43   S    
C49   C53   S    
C82   H66   S    
Cr1   O41   S    
C42   C71   S    
C36   H80   S    
C81   H65   S    
C13   C22   A    
C97   H46   S    
Cr3   O23   S    
Cr9   O17   S    
C72   O48   A    
C61   C62   S    
C8    H36   S    
C104  H64   S    
C5    C89   S    
C62   H14   S    
C78   O14   A    
C3    O27   A    
C5    H33   S    
C63   C64   S    
C40   C76   S    
Cr2   O18   S    
C80   O16   A    
C102  C103  S    
C2    O26   A    
C51   H27   S    
O53   C93   S    
C8    C84   D    
C89   H1    S    
C35   H79   S    
C78   O42   A    
C44   C69   S    
C13   H69   S    
C19   H23   S    
C45   C81   S    
C98   H50   S    
C45   O33   A    
C101  H55   S    
C56   H8    S    
C95   H42   S    
Cr10  O14   S    
C52   C56   S    
C69   O49   A    
C71   O51   A    
