data_mof_unit_34740.cif
_audit_creation_date              2012-12-10T19:01:18-0500
_audit_creation_method            fapswitch 2.2
_symmetry_space_group_name_H-M    P1
_symmetry_Int_Tables_number       1
_space_group_crystal_system       triclinic
_cell_length_a                    9.587787
_cell_length_b                    10.728753
_cell_length_c                    15.492945
_cell_angle_alpha                 89.727527
_cell_angle_beta                  74.322778
_cell_angle_gamma                 89.060179
_cell_volume                      1534.18910226

loop_
_atom_site_label
_atom_site_type_symbol
_atom_type_description
_atom_site_fract_x
_atom_site_fract_y
_atom_site_fract_z
_atom_type_partial_charge
C1    C     C_R   0.001227 0.262734 0.499649 0.797103
C2    C     C_R   0.671676 0.480395 0.906064 0.090323
C3    C     C_R   0.770663 0.437472 0.953471 0.167909
C4    C     C_R   0.521283 0.492670 0.951298 0.066634
C5    C     C_R   0.474191 0.471270 0.045472 0.065375
C6    C     C_R   0.577059 0.428596 0.089996 -0.222395
C7    C     C_R   0.721922 0.411575 0.044576 -0.243704
C8    C     C_R   0.415980 0.522231 0.905174 -0.220233
C9    C     C_R   0.270406 0.535486 0.950138 -0.242514
C10   C     C_R   0.223824 0.521379 0.042680 0.170317
C11   C     C_R   0.325166 0.490899 0.091606 0.090433
C12   C     C_R   0.918281 0.498509 0.671954 0.788681
C13   C     C_R   0.076375 0.538276 0.086982 -0.220240
C14   C     C_R   0.027995 0.527074 0.179779 -0.207138
C15   C     C_R   0.274056 0.484660 0.185473 -0.254052
C16   C     C_R   0.976954 0.064430 0.579407 0.100816
C17   C     C_R   0.002757 0.129523 0.498862 -0.076973
C18   C     C_R   0.008645 0.065391 0.419274 -0.256795
C19   C     C_R   0.006337 0.935272 0.419749 -0.204073
C20   C     C_R   0.996024 0.870552 0.499954 -0.031448
C21   C     C_R   0.973191 0.936130 0.580041 0.126479
C22   C     C_3   0.049505 0.926359 0.652049 -0.496805
C23   C     C_R   0.998912 0.737286 0.500373 0.806531
C24   C     C_3   0.054803 0.067932 0.650733 -0.479749
C25   C     C_R   0.561798 0.605805 0.521068 0.204348
C26   C     C_R   0.583135 0.393825 0.483542 -0.082872
C27   C     C_R   0.434900 0.393755 0.483814 -0.079615
C28   C     C_R   0.415181 0.604998 0.520343 0.139572
C29   C     C_3   0.424683 0.725201 0.471960 -0.647985
C30   C     C_3   0.583895 0.731024 0.474960 0.786470
C31   C     C_R   0.081779 0.500357 0.327968 0.785334
C32   C     C_R   0.872733 0.486646 0.769844 -0.048706
C33   C     C_R   0.127244 0.502730 0.229588 -0.054078
C34   C     C_R   0.917790 0.419194 0.908914 -0.223130
C35   C     C_R   0.968506 0.443026 0.817476 -0.206929
C36   C     C_R   0.727121 0.508851 0.814674 -0.246241
Cu1   Cu    Cu3+1 0.140670 0.499980 0.500000 0.937982
Cu2   Cu    Cu3+1 0.859330 0.500020 0.500000 0.990056
H1    H     H_    0.796489 0.377598 0.081259 0.147668
H2    H     H_    0.998602 0.561799 0.049929 0.146000
H3    H     H_    0.019238 0.115497 0.357007 0.143024
H4    H     H_    0.017499 0.885355 0.357628 0.141523
H5    H     H_    0.978458 0.888465 0.715360 0.201880
H6    H     H_    0.157943 0.880717 0.629127 0.191648
H7    H     H_    0.987611 0.111582 0.713498 0.202033
H8    H     H_    0.166447 0.104561 0.626011 0.199528
H9    H     H_    0.645164 0.307985 0.468463 0.143976
H10   H     H_    0.388439 0.307910 0.469288 0.139037
H11   H     H_    0.411831 0.712247 0.403339 0.211671
H12   H     H_    0.347132 0.469391 0.226381 0.155666
H13   H     H_    0.347288 0.794033 0.512140 0.170117
H14   H     H_    0.913883 0.540865 0.212620 0.176656
H15   H     H_    0.193782 0.558192 0.912015 0.150096
H16   H     H_    0.993130 0.383832 0.944500 0.142659
H17   H     H_    0.081432 0.424401 0.783776 0.156375
H18   H     H_    0.659457 0.548674 0.776186 0.150830
H19   H     H_    0.549015 0.403276 0.159800 0.143880
H20   H     H_    0.441237 0.532733 0.833526 0.144311
N1    N     N_R   0.648210 0.500930 0.499430 -0.184040
N2    N     N_R   0.352300 0.500890 0.499430 -0.162670
O1    O     O_R   0.118810 0.319640 0.500000 -0.591339
O2    O     O_R   0.881230 0.319680 0.499990 -0.593852
O3    O     O_R   0.055580 0.499970 0.629840 -0.580600
O4    O     O_R   0.818000 0.500010 0.629830 -0.582190
O5    O     O_R   0.118770 0.680320 0.500010 -0.590112
O6    O     O_R   0.881190 0.680360 0.500000 -0.514111
O7    O     O_R   0.182000 0.499990 0.370170 -0.582995
O8    O     O_R   0.944420 0.500030 0.370160 -0.555600
O9    O     O_3   0.686567 0.719556 0.390081 -0.561944
C37   C     C_3   0.695746 0.831705 0.340948 0.067871
H21   H     H_    0.742440 0.906507 0.373363 0.180823
H22   H     H_    0.587945 0.862852 0.334181 0.122509
C38   C     C_3   0.794840 0.810859 0.247220 -0.816203
H23   H     H_    0.749338 0.738463 0.212064 0.249345
H24   H     H_    0.804978 0.899004 0.208320 0.204258
H25   H     H_    0.904102 0.780058 0.251086 0.246845
O10   O     O_3   0.623580 0.819845 0.532372 -0.583523
C39   C     C_3   0.537791 0.930542 0.545256 -0.012582
H26   H     H_    0.437713 0.915980 0.600388 0.158390
H27   H     H_    0.508757 0.961141 0.483496 0.125046
C40   C     C_3   0.619787 0.035799 0.573423 -0.771143
H28   H     H_    0.713725 0.060336 0.516968 0.248296
H29   H     H_    0.547899 0.119326 0.591235 0.194113
H30   H     H_    0.657422 0.007452 0.632509 0.258146

loop_
_geom_bond_atom_site_label_1
_geom_bond_atom_site_label_2
_ccdc_geom_bond_type
C27   H10   S    
C8    C9    A    
C16   C21   A    
C38   H23   S    
C19   C20   A    
C4    C8    A    
C1    O2    A    
C30   O9    S    
C14   C33   A    
C40   H28   S    
C29   H11   S    
O10   C39   S    
C25   C28   A    
C31   O7    A    
C26   C27   A    
C29   C30   S    
C24   H7    S    
C32   C36   A    
C23   O6    A    
C28   C29   S    
C5    C11   A    
C3    C7    A    
C27   N2    A    
C5    C6    A    
C12   O4    A    
C39   H27   S    
C34   C35   A    
C15   H12   S    
C13   H2    S    
Cu1   O3    S    
C30   O10   S    
C11   C15   A    
C22   H6    S    
Cu2   O6    S    
C16   C17   A    
Cu1   O5    S    
C31   C33   S    
C37   H21   S    
C9    C10   A    
C19   H4    S    
C8    H20   S    
C16   C24   S    
C13   C14   A    
C12   C32   S    
C38   H24   S    
C6    H19   S    
C40   H29   S    
Cu2   O4    S    
C28   N2    A    
C31   O8    A    
C14   H14   S    
C35   H17   S    
C32   C35   A    
C18   H3    S    
C12   O3    A    
C39   H26   S    
C18   C19   A    
C3    C34   A    
C2    C4    A    
Cu1   Cu2   S    
C36   H18   S    
C22   H5    S    
C20   C23   S    
C37   C38   S    
C17   C18   A    
C26   H9    S    
Cu2   O8    S    
C34   H16   S    
C38   H25   S    
C22   C24   S    
C9    H15   S    
C40   H30   S    
C29   H13   S    
C2    C36   A    
C25   C30   S    
C4    C5    A    
C10   C13   A    
C1    O1    A    
Cu1   O1    S    
C6    C7    A    
C1    C17   S    
C24   H8    S    
C23   O5    A    
C2    C3    A    
C39   C40   S    
Cu1   O7    S    
O9    C37   S    
Cu1   N2    S    
C10   C11   A    
Cu2   N1    S    
C20   C21   A    
C7    H1    S    
C26   N1    A    
C37   H22   S    
C25   N1    A    
C21   C22   S    
C15   C33   A    
Cu2   O2    S    
