data_mof_unit_9728.cif
_audit_creation_date              2012-12-10T17:08:39-0500
_audit_creation_method            fapswitch 2.2
_symmetry_space_group_name_H-M    P1
_symmetry_Int_Tables_number       1
_space_group_crystal_system       triclinic
_cell_length_a                    15.714997
_cell_length_b                    10.660471
_cell_length_c                    10.184535
_cell_angle_alpha                 90.289922
_cell_angle_beta                  92.911014
_cell_angle_gamma                 91.901794
_cell_volume                      1703.02854948

loop_
_atom_site_label
_atom_site_type_symbol
_atom_type_description
_atom_site_fract_x
_atom_site_fract_y
_atom_site_fract_z
_atom_type_partial_charge
C1    C     C_R   0.491470 0.262784 0.498754 0.950344
C2    C     C_3   0.950536 0.375297 0.573333 0.550056
C3    C     C_3   0.916163 0.495263 0.495335 -0.149890
C4    C     C_3   0.960211 0.610487 0.575284 0.082428
C5    C     C_3   0.056793 0.615047 0.559694 0.078837
C6    C     C_1   0.825270 0.499405 0.505208 0.119381
C7    C     C_1   0.174395 0.495696 0.484800 0.234896
C8    C     C_1   0.249826 0.497330 0.489424 -0.069013
C9    C     C_2   0.452570 0.927679 0.398838 0.407114
C10   C     C_2   0.497134 0.869867 0.495217 -0.472232
C11   C     C_2   0.466438 0.060903 0.388696 0.340134
C12   C     C_R   0.338743 0.499554 0.496948 0.844447
C13   C     C_2   0.456689 0.134962 0.495092 -0.225387
C14   C     C_2   0.553747 0.569170 0.928920 0.021178
C15   C     C_2   0.552500 0.568624 0.079011 0.451970
C16   C     C_R   0.498574 0.737012 0.499596 0.998429
C17   C     C_R   0.661257 0.500781 0.502785 0.906020
C18   C     C_3   0.049570 0.374832 0.559340 0.115407
C19   C     C_3   0.042960 0.500940 0.338019 0.608342
C20   C     C_3   0.940363 0.489984 0.340378 0.038241
C21   C     C_1   0.750124 0.500708 0.507796 -0.128691
C22   C     C_3   0.082368 0.495026 0.483882 -0.202574
H1    H     H_    0.080992 0.379581 0.659639 0.208919
H2    H     H_    0.536504 0.922370 0.568850 0.140256
H3    H     H_    0.500367 0.407666 0.873474 0.165882
H4    H     H_    0.074356 0.701176 0.505393 0.239774
H5    H     H_    0.950931 0.595482 0.680313 0.246190
N1    N     N_2   0.500900 0.501330 0.852150 -0.232232
N2    N     N_2   0.500920 0.501360 0.147810 -0.092986
O1    O     O_R   0.499990 0.319060 0.613040 -0.626105
O2    O     O_R   0.500010 0.319100 0.386900 -0.586343
O3    O     O_R   0.377130 0.499990 0.613120 -0.603317
O4    O     O_R   0.377160 0.500030 0.386980 -0.628472
O5    O     O_R   0.499990 0.680900 0.613100 -0.641112
O6    O     O_R   0.500010 0.680940 0.386960 -0.500836
O7    O     O_R   0.622840 0.499970 0.613020 -0.634900
O8    O     O_R   0.622870 0.500010 0.386880 -0.561873
Zn1   Zn    Zn3+2 0.499980 0.499970 0.650990 0.945325
Zn2   Zn    Zn3+2 0.500020 0.500030 0.349010 1.055280
Cl1   Cl    Cl    0.894969 0.227665 0.533854 -0.479424
Cl2   Cl    Cl    0.930033 0.378267 0.746896 -0.606006
Cl3   Cl    Cl    0.915537 0.762719 0.574963 -0.589907
Cl4   Cl    Cl    0.381648 0.851605 0.280901 -0.476658
Cl5   Cl    Cl    0.517454 0.106564 0.244283 -0.559111
C23   C     C_3   0.404174 0.092351 0.611112 -0.470042
C24   C     C_3   0.324113 0.169903 0.621851 -0.359806
C25   C     C_3   0.266293 0.116441 0.725350 -0.678494
H6    H     H_    0.241064 0.021451 0.695338 0.292774
H7    H     H_    0.302087 0.110409 0.821811 0.247010
H8    H     H_    0.211753 0.178624 0.736263 0.275137
H9    H     H_    0.342509 0.267745 0.650435 0.239121
H10   H     H_    0.287782 0.170938 0.525294 0.264922
H11   H     H_    0.381887 0.992821 0.602831 0.237289
H12   H     H_    0.444559 0.101324 0.703734 0.234969
C26   C     C_3   0.622034 0.652125 0.870198 -0.295740
C27   C     C_3   0.710078 0.593829 0.888482 -0.415410
C28   C     C_3   0.778842 0.676528 0.828803 -0.729173
H13   H     H_    0.764991 0.686165 0.721489 0.281981
H14   H     H_    0.781754 0.771233 0.874967 0.269262
H15   H     H_    0.841754 0.633374 0.845556 0.280230
H16   H     H_    0.727884 0.580600 0.994152 0.242920
H17   H     H_    0.708683 0.499866 0.840534 0.263386
H18   H     H_    0.609171 0.667264 0.765330 0.252746
H19   H     H_    0.623010 0.747256 0.915309 0.225409
Cl6   Cl    Cl    0.620818 0.676865 0.168550 -0.605963
Cl7   Cl    Cl    0.087370 0.229367 0.497403 -0.498459
C29   C     C_3   0.435962 0.415776 0.081903 -0.338837
C30   C     C_3   0.359832 0.369925 0.158949 -0.251057
C31   C     C_3   0.303569 0.275487 0.077494 -0.810307
H20   H     H_    0.279410 0.318485 0.984277 0.270667
H21   H     H_    0.340089 0.191329 0.054599 0.276558
H22   H     H_    0.248140 0.245007 0.134286 0.309472
H23   H     H_    0.379819 0.320304 0.248968 0.270021
H24   H     H_    0.319210 0.450335 0.179423 0.275102
H25   H     H_    0.401597 0.466581 0.001973 0.195829
H26   H     H_    0.467912 0.329802 0.050864 0.204760
Cl8   Cl    Cl    0.081613 0.641869 0.259352 -0.550828
Cl9   Cl    Cl    0.090951 0.384443 0.237526 -0.544072
C32   C     C_3   0.906720 0.358817 0.277705 -0.360627
C33   C     C_3   0.897374 0.345077 0.125468 -0.348554
C34   C     C_3   0.886499 0.207306 0.083927 -0.680227
H27   H     H_    0.944441 0.155525 0.113940 0.287560
H28   H     H_    0.830394 0.162989 0.129698 0.251130
H29   H     H_    0.876424 0.200476 0.975403 0.291529
H30   H     H_    0.839959 0.393613 0.086681 0.210649
H31   H     H_    0.953128 0.386659 0.077093 0.306400
H32   H     H_    0.948840 0.283691 0.312328 0.305857
H33   H     H_    0.841932 0.336428 0.311633 0.231114
C35   C     C_3   0.892735 0.588687 0.247708 -0.371716
C36   C     C_3   0.888302 0.727800 0.284055 -0.233967
C37   C     C_3   0.865708 0.807621 0.163790 -0.786791
H34   H     H_    0.915572 0.801944 0.090669 0.287877
H35   H     H_    0.803289 0.775330 0.117573 0.276474
H36   H     H_    0.861147 0.907230 0.194332 0.274265
H37   H     H_    0.835785 0.738428 0.351515 0.274989
H38   H     H_    0.949632 0.765321 0.328053 0.305368
H39   H     H_    0.921114 0.585181 0.150107 0.250137
H40   H     H_    0.824843 0.556613 0.230962 0.202289
Cl10  Cl    Cl    0.112745 0.633949 0.718244 -0.516911

loop_
_geom_bond_atom_site_label_1
_geom_bond_atom_site_label_2
_ccdc_geom_bond_type
C26   C27   S    
C5    H4    S    
C2    C18   S    
C19   C20   S    
C3    C6    S    
C4    H5    S    
C32   H32   S    
C34   H27   S    
C36   C37   S    
C7    C8    T    
C25   H7    S    
C23   C24   S    
H3    N1    S    
O4    Zn2   S    
C16   O6    A    
C28   H14   S    
C2    Cl2   S    
C30   H24   S    
C15   Cl6   S    
C24   H10   S    
C1    O2    A    
C27   C28   S    
O1    Zn1   S    
C19   Cl8   S    
C31   H21   S    
C33   H31   S    
C16   O5    A    
N2    C29   S    
C5    C22   S    
C5    Cl10  S    
C30   C31   S    
C26   H18   S    
C17   O7    A    
O3    Zn1   S    
C9    C10   D    
C14   C26   S    
C23   H11   S    
O5    Zn1   S    
C12   O3    A    
C32   H33   S    
C34   H28   S    
C15   N2    D    
C25   H8    S    
C9    Cl4   S    
C29   C30   S    
C11   Cl5   S    
C19   C22   S    
C37   H34   S    
C4    C5    S    
C28   H15   S    
C10   H2    S    
C30   H23   S    
C6    C21   T    
C24   H9    S    
C17   C21   S    
C18   H1    S    
C35   H39   S    
C31   H22   S    
O6    Zn2   S    
C33   H30   S    
C37   H35   S    
C25   H6    S    
N1    Zn1   S    
C8    C12   S    
C26   H19   S    
N2    Zn2   S    
C3    C20   S    
C27   H16   S    
C17   O8    A    
C9    C11   S    
C23   H12   S    
C27   H17   S    
C1    C13   S    
C3    C4    S    
C34   H29   S    
C24   C25   S    
C20   C32   S    
C18   C22   S    
C33   C34   S    
C36   H37   S    
C36   H38   S    
C18   Cl7   S    
C7    C22   S    
C20   C35   S    
C35   H40   S    
C19   Cl9   S    
O7    Zn1   S    
C2    C3    S    
C35   C36   S    
O8    Zn2   S    
C10   C16   S    
C37   H36   S    
C13   C23   S    
C11   C13   D    
C28   H13   S    
C4    Cl3   S    
C1    O1    A    
O2    Zn2   S    
C31   H20   S    
C32   C33   S    
C2    Cl1   S    
C29   H25   S    
C14   C15   S    
C29   H26   S    
C14   N1    D    
C12   O4    A    
