data_mof_unit_39295.cif
_audit_creation_date              2012-12-10T18:09:51-0500
_audit_creation_method            fapswitch 2.2
_symmetry_space_group_name_H-M    P1
_symmetry_Int_Tables_number       1
_space_group_crystal_system       triclinic
_cell_length_a                    10.640735
_cell_length_b                    12.617561
_cell_length_c                    13.118152
_cell_angle_alpha                 82.379091
_cell_angle_beta                  90.731805
_cell_angle_gamma                 102.533376
_cell_volume                      1703.85460742

loop_
_atom_site_label
_atom_site_type_symbol
_atom_type_description
_atom_site_fract_x
_atom_site_fract_y
_atom_site_fract_z
_atom_type_partial_charge
C1    C     C_R   0.480287 0.438907 0.691120 0.856646
C2    C     C_R   0.462611 0.447366 0.973321 0.089073
C3    C     C_R   0.432392 0.467574 0.869027 0.073043
C4    C     C_R   0.741946 0.500344 0.500062 0.843924
C5    C     C_R   0.462053 0.530207 0.035768 0.058231
C6    C     C_R   0.410413 0.623082 0.999236 0.114166
C7    C     C_R   0.361889 0.632784 0.899029 -0.028867
C8    C     C_R   0.372936 0.555445 0.835234 -0.251148
C9    C     C_R   0.514989 0.523839 0.133265 -0.223525
C10   C     C_R   0.449806 0.688141 0.165547 -0.214351
C11   C     C_R   0.464155 0.399790 0.800694 -0.101449
C12   C     C_3   0.121560 0.498786 0.498361 0.169116
C13   C     C_R   0.321747 0.088322 0.345348 -0.308412
C14   C     C_R   0.651431 0.801769 0.631590 0.131881
C15   C     C_R   0.682202 0.906973 0.658540 -0.276734
C16   C     C_R   0.512665 0.560980 0.308758 0.869062
C17   C     C_R   0.625339 0.987293 0.607957 -0.210345
C18   C     C_R   0.536239 0.963075 0.529389 0.025963
C19   C     C_R   0.508263 0.854721 0.503411 0.222535
C20   C     C_R   0.473764 0.042054 0.476265 -0.006210
C21   C     C_R   0.384680 0.011659 0.398176 0.199145
C22   C     C_R   0.359435 0.905241 0.373515 -0.300814
C23   C     C_3   0.095366 0.588741 0.413059 -0.437535
C24   C     C_R   0.420627 0.828184 0.425317 -0.215965
C25   C     C_R   0.495818 0.150809 0.497492 -0.054474
C26   C     C_R   0.347720 0.194279 0.370169 0.005639
C27   C     C_R   0.258164 0.499391 0.499428 0.816537
C28   C     C_3   0.899483 0.385716 0.479207 -0.379993
C29   C     C_3   0.042171 0.385930 0.476538 -0.393354
C30   C     C_3   0.950601 0.590199 0.412177 -0.134593
C31   C     C_3   0.936737 0.525279 0.603436 -0.415019
C32   C     C_3   0.879085 0.500550 0.497895 0.112700
C33   C     C_1   0.303353 0.722445 0.858194 0.147143
C34   C     C_3   0.079911 0.521800 0.604572 -0.408669
C35   C     C_1   0.709608 0.720228 0.688847 0.238230
C36   C     C_1   0.896497 0.576001 0.309221 0.141055
C37   C     C_R   0.407390 0.702633 0.064795 -0.184929
C38   C     C_R   0.500289 0.596571 0.200123 -0.043171
C39   C     C_R   0.497180 0.300369 0.838726 -0.192317
C40   C     C_R   0.506672 0.271634 0.943857 -0.142796
C41   C     C_R   0.492589 0.345099 0.010873 -0.183664
H1    H     H_    0.856304 0.362853 0.405282 0.191108
H2    H     H_    0.530435 0.194200 0.973283 0.144443
H3    H     H_    0.851511 0.321764 0.541793 0.172520
H4    H     H_    0.332983 0.563809 0.758959 0.165582
H5    H     H_    0.300362 0.254874 0.329920 0.132906
H6    H     H_    0.291876 0.881271 0.313806 0.151054
H7    H     H_    0.253519 0.066567 0.285513 0.146055
H8    H     H_    0.561807 0.181971 0.554738 0.121278
H9    H     H_    0.652928 0.066973 0.632752 0.136561
H10   H     H_    0.749654 0.926794 0.719414 0.154519
H11   H     H_    0.397344 0.748210 0.402661 0.206753
H12   H     H_    0.137370 0.601435 0.623449 0.191337
H13   H     H_    0.061726 0.319340 0.535175 0.182323
H14   H     H_    0.068980 0.368433 0.399643 0.178662
H15   H     H_    0.129671 0.574067 0.337271 0.160622
H16   H     H_    0.927230 0.608083 0.617701 0.198443
H17   H     H_    0.884434 0.464707 0.666621 0.174208
H18   H     H_    0.096968 0.456767 0.665936 0.161115
H19   H     H_    0.939731 0.672075 0.428740 0.140629
H20   H     H_    0.151099 0.670610 0.427650 0.171992
H21   H     H_    0.437580 0.745363 0.217240 0.149403
H22   H     H_    0.367980 0.773876 0.040074 0.149139
H23   H     H_    0.564777 0.459967 0.160952 0.155057
H24   H     H_    0.519318 0.246386 0.787110 0.151974
H25   H     H_    0.502386 0.318623 0.091665 0.133205
N1    N     N_R   0.433240 0.222190 0.444680 -0.101632
N2    N     N_R   0.566070 0.776970 0.554790 -0.150697
N3    N     N_1   0.256568 0.794156 0.825277 -0.208768
N4    N     N_1   0.756454 0.655566 0.736590 -0.226847
N5    N     N_1   0.853975 0.564851 0.228719 -0.212386
O1    O     O_R   0.468120 0.366740 0.627160 -0.616884
O2    O     O_R   0.510770 0.544830 0.662520 -0.605832
O3    O     O_R   0.663880 0.410950 0.482330 -0.625987
O4    O     O_R   0.706530 0.589040 0.517700 -0.621326
O5    O     O_R   0.489230 0.455170 0.337480 -0.615289
O6    O     O_R   0.531880 0.633260 0.372840 -0.633645
O7    O     O_R   0.293470 0.410960 0.482300 -0.624496
O8    O     O_R   0.336120 0.589050 0.517670 -0.648840
Zn1   Zn    Zn3+2 0.471520 0.381090 0.476390 0.932457
Zn2   Zn    Zn3+2 0.528480 0.618910 0.523610 0.933529

loop_
_geom_bond_atom_site_label_1
_geom_bond_atom_site_label_2
_ccdc_geom_bond_type
C24   H11   S    
C12   C29   S    
C9    H23   S    
C39   H24   S    
C25   N1    A    
C27   O7    A    
C7    C8    A    
C12   C23   S    
C10   C37   A    
N2    Zn2   S    
C31   H17   S    
C28   C29   S    
C18   C19   A    
C27   O8    A    
C5    C6    A    
O7    Zn1   S    
C29   H13   S    
C2    C41   A    
C16   O6    A    
C8    H4    S    
C4    O4    A    
C40   H2    S    
C35   N4    T    
C30   H19   S    
C15   H10   S    
C4    O3    A    
C36   N5    T    
C33   N3    T    
C22   H6    S    
O3    Zn1   S    
C21   C22   A    
C7    C33   S    
C10   H21   S    
C28   C32   S    
O2    Zn2   S    
C37   H22   S    
C31   C34   S    
C1    O1    A    
C12   C27   S    
C23   C30   S    
C23   H15   S    
C3    C8    A    
C39   C40   A    
O8    Zn2   S    
O4    Zn2   S    
C41   H25   S    
C28   H3    S    
C5    C9    A    
C31   C32   S    
O6    Zn2   S    
C17   C18   A    
C6    C37   A    
C13   C21   A    
C19   N2    A    
C11   C39   A    
C4    C32   S    
C40   C41   A    
C34   H18   S    
C22   C24   A    
C13   C26   A    
C2    C5    A    
C26   N1    A    
C12   C34   S    
C14   C35   S    
C15   C17   A    
C16   O5    A    
N1    Zn1   S    
O5    Zn1   S    
C17   H9    S    
C13   H7    S    
C6    C7    A    
C29   H14   S    
C30   C36   S    
C10   C38   A    
C1    O2    A    
C31   H16   S    
C2    C3    A    
O1    Zn1   S    
C30   C32   S    
C28   H1    S    
C9    C38   A    
C19   C24   A    
C18   C20   A    
C25   H8    S    
C3    C11   A    
C26   H5    S    
C23   H20   S    
C20   C21   A    
C34   H12   S    
C20   C25   A    
C14   N2    A    
C14   C15   A    
C1    C11   S    
C16   C38   S    
