data_mof_unit_62717.cif
_audit_creation_date              2013-03-05T16:14:54-0500
_audit_creation_method            fapswitch 2.2
_symmetry_space_group_name_H-M    P1
_symmetry_Int_Tables_number       1
_space_group_crystal_system       triclinic
_cell_length_a                    15.850001
_cell_length_b                    14.259612
_cell_length_c                    13.383486
_cell_angle_alpha                 90.000183
_cell_angle_beta                  90.000707
_cell_angle_gamma                 90.00024
_cell_volume                      3024.86677401

loop_
_atom_site_label
_atom_site_type_symbol
_atom_site_description
_atom_site_fract_x
_atom_site_fract_y
_atom_site_fract_z
_atom_type_partial_charge
O1    O     O_R   0.500010 0.373720 0.576470 -0.596584
O2    O     O_R   0.499990 0.626280 0.423530 -0.596584
O3    O     O_R   0.499990 0.373720 0.423530 -0.596543
O4    O     O_R   0.500010 0.626280 0.576470 -0.596543
C1    C     C_1   0.500000 0.225915 0.500000 -0.204455
C2    C     C_1   0.500000 0.774085 0.500000 -0.204456
C3    C     C_R   0.500000 0.326572 0.500000 0.925134
C4    C     C_R   0.500000 0.673428 0.500000 0.925135
O5    O     O_R   0.376780 0.500000 0.576440 -0.590820
O6    O     O_R   0.623220 0.500000 0.423560 -0.590820
O7    O     O_R   0.376770 0.500000 0.423530 -0.612416
O8    O     O_R   0.623230 0.500000 0.576470 -0.612417
C5    C     C_R   0.335627 0.499999 0.499989 0.934971
C6    C     C_R   0.664373 0.500001 0.500011 0.934972
Zn1   Zn    Zn3+2 0.500010 0.500000 0.602090 1.003090
Zn2   Zn    Zn3+2 0.499990 0.500000 0.397910 1.003090
C7    C     C_1   0.500000 0.141346 0.500000 0.009829
C8    C     C_1   0.500000 0.858654 0.500000 0.009829
N1    N     N_1   0.499980 0.500000 0.261870 -0.058406
N2    N     N_1   0.500020 0.500000 0.738130 -0.058406
C9    C     C_1   0.499987 0.500000 0.169452 0.111340
C10   C     C_1   0.500013 0.500000 0.830547 0.111340
C11   C     C_1   0.500000 0.042282 0.500000 0.026295
C12   C     C_1   0.500000 0.957718 0.500000 0.026295
C13   C     C_3   0.971403 0.422421 0.547681 -0.266971
C14   C     C_3   0.028597 0.577579 0.452319 -0.266971
C15   C     C_3   0.028594 0.422097 0.452920 -0.267054
C16   C     C_3   0.971406 0.577903 0.547080 -0.267054
H1    H     H_    0.052972 0.359431 0.413052 0.185708
H2    H     H_    0.947027 0.640569 0.586948 0.185708
H3    H     H_    0.947022 0.360030 0.588034 0.185746
H4    H     H_    0.052978 0.639970 0.411966 0.185746
C17   C     C_1   0.499996 0.500000 0.049522 -0.017108
C18   C     C_1   0.500004 0.500000 0.950478 -0.017108
C19   C     C_1   0.247459 0.499999 0.500026 -0.157830
C20   C     C_1   0.752541 0.500001 0.499974 -0.157829
C21   C     C_3   0.026468 0.500316 0.592900 0.387294
C22   C     C_3   0.973532 0.499684 0.407100 0.387294
C23   C     C_3   0.082681 0.500000 0.500482 0.037672
C24   C     C_3   0.917319 0.500000 0.499518 0.037672
C25   C     C_1   0.172791 0.499999 0.500220 0.061032
C26   C     C_1   0.827209 0.500001 0.499779 0.061032
N3    N     N_R   0.945091 0.499332 0.303552 0.216919
O9    O     O_R   0.000279 0.499086 0.231678 -0.347261
O10   O     O_R   0.865064 0.499263 0.282182 -0.369582
N4    N     N_R   0.054909 0.500668 0.696448 0.216919
O11   O     O_R   0.999721 0.500914 0.768322 -0.347260
O12   O     O_R   0.134936 0.500737 0.717818 -0.369582

loop_
_geom_bond_atom_site_label_1
_geom_bond_atom_site_label_2
_geom_bond_distance
_ccdc_geom_bond_type
C13   H3    1.110192 S    
N3    O9    1.300193 A    
C14   H4    1.110192 S    
O1    Zn1   1.833059 S    
C13   C15   1.558903 S    
O2    Zn2   1.833058 S    
O7    Zn2   1.982912 S    
C14   C16   1.558903 S    
O8    Zn1   1.982912 S    
O4    C4    1.224511 A    
O4    Zn1   1.833060 S    
C24   C26   1.428248 S    
C17   C18   1.325542 T    
O5    Zn1   1.983129 S    
C22   N3    1.457305 S    
C21   C23   1.524385 S    
O6    Zn2   1.983130 S    
C22   C24   1.524385 S    
N3    O10   1.300265 A    
C7    C11   1.412611 S    
C16   C21   1.536799 S    
Zn2   N1    1.820688 S    
C19   C25   1.183500 T    
C16   H2    1.110191 S    
N1    C9    1.236870 T    
O8    C6    1.213423 A    
C5    C19   1.397463 S    
O3    C3    1.224511 A    
C13   C24   1.540804 S    
C6    C20   1.397463 S    
Zn1   N2    1.820689 S    
C10   C18   1.605094 S    
C2    C8    1.205927 T    
C8    C12   1.412611 S    
C14   C23   1.540804 S    
C9    C17   1.605094 S    
C16   C24   1.540810 S    
C11   C12   1.205854 T    
N4    O12   1.300265 A    
O7    C5    1.213424 A    
C1    C7    1.205927 T    
C15   H1    1.110191 S    
C23   C25   1.428248 S    
O6    C6    1.213397 A    
C15   C23   1.540810 S    
C1    C3    1.435323 S    
O5    C5    1.213398 A    
N4    O11   1.300193 A    
C14   C22   1.536805 S    
C2    C4    1.435323 S    
C15   C22   1.536799 S    
C13   C21   1.536805 S    
C21   N4    1.457305 S    
O1    C3    1.224511 A    
C20   C26   1.183500 T    
O2    C4    1.224511 A    
O3    Zn2   1.833061 S    
N2    C10   1.236870 T    
