data_mof_unit_22524.cif
_audit_creation_date              2012-12-10T17:31:15-0500
_audit_creation_method            fapswitch 2.2
_symmetry_space_group_name_H-M    P1
_symmetry_Int_Tables_number       1
_space_group_crystal_system       triclinic
_cell_length_a                    12.007747
_cell_length_b                    12.877595
_cell_length_c                    15.571463
_cell_angle_alpha                 86.790089
_cell_angle_beta                  115.405205
_cell_angle_gamma                 93.402027
_cell_volume                      2169.90522909

loop_
_atom_site_label
_atom_site_type_symbol
_atom_type_description
_atom_site_fract_x
_atom_site_fract_y
_atom_site_fract_z
_atom_type_partial_charge
C1    C     C_R   0.474865 0.299437 0.494144 0.852136
C2    C     C_R   0.630531 0.973317 0.462696 -0.244147
C3    C     C_R   0.348242 0.134101 0.480920 0.017201
C4    C     C_R   0.629798 0.865638 0.475666 0.032075
C5    C     C_R   0.535508 0.136223 0.454020 0.416475
C6    C     C_R   0.415247 0.867933 0.452521 0.418592
C7    C     C_R   0.530918 0.028417 0.457811 -0.018340
C8    C     C_R   0.425685 0.974983 0.458128 -0.049584
C9    C     C_R   0.984681 0.539422 0.379722 -0.337792
C10   C     C_R   0.014951 0.457773 0.619475 -0.333608
C11   C     C_R   0.109081 0.541811 0.395138 0.009221
C12   C     C_R   0.519166 0.700821 0.494086 0.915743
C13   C     C_R   0.890689 0.455691 0.604244 0.021532
C14   C     C_R   0.171583 0.491651 0.557198 -0.048360
C15   C     C_R   0.828296 0.507812 0.442617 -0.047965
C16   C     C_R   0.575041 0.488362 0.679840 0.925041
C17   C     C_R   0.423452 0.503599 0.319995 0.884690
C18   C     C_R   0.047187 0.486934 0.544708 0.098997
C19   C     C_R   0.952578 0.511614 0.454823 0.094962
C20   C     C_R   0.615655 0.461621 0.781267 -0.253075
C21   C     C_R   0.373561 0.496072 0.216988 -0.254706
C22   C     C_R   0.747604 0.378060 0.932904 0.428440
C23   C     C_R   0.630958 0.442352 0.107922 -0.263890
C24   C     C_R   0.205588 0.473745 0.060100 0.384230
C25   C     C_R   0.719913 0.401884 0.836461 0.361563
C26   C     C_R   0.247748 0.471762 0.159356 0.384891
C27   C     C_R   0.535157 0.485386 0.819833 -0.349111
C28   C     C_R   0.457171 0.504468 0.177087 -0.356518
C29   C     C_R   0.558043 0.456459 0.912772 0.028931
C30   C     C_R   0.420266 0.484138 0.082009 0.033052
C31   C     C_R   0.673196 0.415747 0.972819 -0.019740
C32   C     C_R   0.292470 0.478277 0.020994 -0.027432
C33   C     C_R   0.469319 0.468634 0.947743 0.126199
C34   C     C_R   0.342078 0.472887 0.886508 -0.250428
C35   C     C_R   0.508021 0.467779 0.046921 0.135839
C36   C     C_3   0.185098 0.348843 0.243992 0.125270
C37   C     C_3   0.098215 0.267576 0.177736 -0.315824
C38   C     C_3   0.118460 0.159107 0.225132 -1.024281
C39   C     C_3   0.753128 0.283494 0.745147 0.071887
C40   C     C_3   0.858655 0.211722 0.763566 -0.325024
C41   C     C_3   0.813362 0.116606 0.701621 -0.955472
C42   C     C_3   0.815194 0.212079 0.981450 0.082201
C43   C     C_3   0.760091 0.173402 0.050735 -0.409995
C44   C     C_3   0.746538 0.054828 0.053808 -0.937043
C45   C     C_R   0.710422 0.412560 0.071019 -0.215036
C46   C     C_3   0.023823 0.552511 0.969761 0.127185
C47   C     C_3   0.973024 0.589714 0.037368 -0.313426
C48   C     C_3   0.878250 0.673000 0.989599 -0.991521
C49   C     C_3   0.245235 0.792405 0.334133 0.129542
C50   C     C_3   0.188650 0.886783 0.267913 -0.404642
C51   C     C_3   0.110200 0.853857 0.166085 -0.963994
C52   C     C_3   0.577659 0.228090 0.339970 0.153692
C53   C     C_3   0.560863 0.143091 0.269583 -0.419041
C54   C     C_3   0.526061 0.189101 0.169399 -0.938686
C55   C     C_R   0.254810 0.473607 0.922973 -0.186912
C56   C     C_R   0.522641 0.812436 0.474185 -0.197897
C57   C     C_R   0.451635 0.189107 0.476251 -0.227478
C58   C     C_R   0.333224 0.028540 0.466285 -0.164677
H1    H     H_    0.801170 0.387436 0.119699 0.173114
H2    H     H_    0.307562 0.466679 0.810425 0.137649
H3    H     H_    0.253068 0.987506 0.468690 0.204605
H4    H     H_    0.712640 0.013611 0.463190 0.191566
H5    H     H_    0.755725 0.529369 0.374263 0.117773
H6    H     H_    0.244194 0.470197 0.625579 0.121618
H7    H     H_    0.164885 0.351404 0.307043 0.164821
H8    H     H_    0.281989 0.323977 0.270947 0.100445
H9    H     H_    0.002620 0.289248 0.158922 0.255110
H10   H     H_    0.112767 0.266836 0.111965 0.255389
H11   H     H_    0.215069 0.136890 0.246739 0.271324
H12   H     H_    0.157917 0.469940 0.874062 0.175078
H13   H     H_    0.055250 0.101868 0.174250 0.276319
H14   H     H_    0.098696 0.156651 0.288637 0.274077
H15   H     H_    0.714396 0.307859 0.669413 0.196428
H16   H     H_    0.677968 0.239189 0.757031 0.088816
H17   H     H_    0.930955 0.255160 0.747841 0.225954
H18   H     H_    0.901132 0.185547 0.839498 0.222755
H19   H     H_    0.740170 0.072110 0.715352 0.262481
H20   H     H_    0.891353 0.065020 0.718126 0.263339
H21   H     H_    0.776308 0.141097 0.625279 0.298178
H22   H     H_    0.900480 0.169577 0.998909 0.172465
H23   H     H_    0.868263 0.437202 0.663467 0.167961
H24   H     H_    0.749803 0.190219 0.908560 0.121716
H25   H     H_    0.819485 0.199451 0.123625 0.231085
H26   H     H_    0.667160 0.205021 0.027334 0.227963
H27   H     H_    0.685454 0.026297 0.981981 0.264024
H28   H     H_    0.705100 0.029440 0.103417 0.268784
H29   H     H_    0.838120 0.019876 0.079221 0.263198
H30   H     H_    0.946018 0.539429 0.899082 0.197035
H31   H     H_    0.085175 0.614654 0.957875 0.087796
H32   H     H_    0.928855 0.523009 0.060910 0.270489
H33   H     H_    0.050110 0.622165 0.101348 0.217300
H34   H     H_    0.131595 0.558486 0.335594 0.154679
H35   H     H_    0.920810 0.741461 0.966661 0.271140
H36   H     H_    0.844066 0.698427 0.040652 0.270981
H37   H     H_    0.798419 0.641337 0.926837 0.275338
H38   H     H_    0.169456 0.734501 0.325037 0.167359
H39   H     H_    0.310042 0.754406 0.312612 0.113035
H40   H     H_    0.129785 0.927001 0.293505 0.241923
H41   H     H_    0.263166 0.942185 0.267937 0.217383
H42   H     H_    0.166454 0.811875 0.139237 0.265283
H43   H     H_    0.073613 0.923704 0.119258 0.266440
H44   H     H_    0.031118 0.802539 0.163181 0.270836
H45   H     H_    0.914129 0.557373 0.309179 0.146937
H46   H     H_    0.643827 0.289280 0.334545 0.172780
H47   H     H_    0.488991 0.266910 0.319720 0.103556
H48   H     H_    0.648027 0.101315 0.293023 0.233277
H49   H     H_    0.486566 0.086192 0.267547 0.215551
H50   H     H_    0.442461 0.235820 0.145827 0.270191
H51   H     H_    0.506794 0.125372 0.119177 0.268785
H52   H     H_    0.603696 0.239023 0.167890 0.268889
H53   H     H_    0.756951 0.827805 0.431104 0.181024
H54   H     H_    0.811739 0.840939 0.549898 0.190584
H55   H     H_    0.303157 0.216625 0.568436 0.207777
H56   H     H_    0.085242 0.438213 0.689608 0.138349
H57   H     H_    0.211278 0.235818 0.449174 0.206726
H58   H     H_    0.552288 0.526130 0.221407 0.184607
H59   H     H_    0.455377 0.530428 0.777501 0.192971
H60   H     H_    0.664462 0.435157 0.184285 0.140270
N1    N     N_R   0.799120 0.480200 0.517090 -0.093588
N2    N     N_R   0.200880 0.519800 0.482910 -0.095137
N3    N     N_3   0.737626 0.811493 0.489975 -0.413014
N4    N     N_3   0.258628 0.181172 0.502815 -0.454282
O1    O     O_R   0.580150 0.341050 0.504560 -0.587400
O2    O     O_3   0.800549 0.372912 0.800627 -0.626798
O3    O     O_3   0.848801 0.320089 0.988697 -0.618517
O4    O     O_3   0.081214 0.456233 0.003109 -0.598627
O5    O     O_3   0.300912 0.818732 0.431241 -0.633161
O6    O     O_3   0.627787 0.188229 0.435240 -0.645271
O7    O     O_R   0.419850 0.658950 0.495440 -0.569839
O8    O     O_R   0.388090 0.353760 0.493600 -0.646601
O9    O     O_R   0.611910 0.646240 0.506400 -0.587415
O10   O     O_R   0.650890 0.490020 0.640860 -0.611178
O11   O     O_R   0.349110 0.509980 0.359140 -0.615004
O12   O     O_R   0.458830 0.502730 0.629890 -0.626431
O13   O     O_R   0.541170 0.497270 0.370110 -0.638578
O14   O     O_3   0.164293 0.448916 0.198128 -0.646507
Zn1   Zn    Zn3+2 0.628240 0.491510 0.507320 0.951869
Zn2   Zn    Zn3+2 0.371760 0.508490 0.492680 0.938207

loop_
_geom_bond_atom_site_label_1
_geom_bond_atom_site_label_2
_ccdc_geom_bond_type
C34   H2    S    
C21   C26   A    
C42   H22   S    
C23   C45   A    
C48   H37   S    
C29   C33   A    
H53   N3    S    
C43   H25   S    
C14   C18   A    
C2    C7    A    
C42   H24   S    
C16   O12   A    
C23   H60   S    
C1    O1    A    
C52   O6    S    
C7    C8    A    
C46   H31   S    
C53   C54   S    
C51   H44   S    
C15   C19   A    
C50   H41   S    
C48   H36   S    
C30   C35   A    
C36   C37   S    
C12   O9    A    
C24   C26   A    
C6    O5    S    
C41   H19   S    
C36   H8    S    
C27   C29   A    
C20   C25   A    
C37   H10   S    
C13   H23   S    
C54   H52   S    
C18   C19   A    
C39   H16   S    
C28   H58   S    
C42   O3    S    
C8    C58   A    
C38   H13   S    
C11   H34   S    
C9    C19   A    
C45   H1    S    
H55   N4    S    
C22   C25   A    
C17   O13   A    
C44   H29   S    
C32   C55   A    
C10   H56   S    
C3    N4    S    
C9    H45   S    
C58   H3    S    
C38   H11   S    
O11   Zn2   S    
H57   N4    S    
C4    C56   A    
C24   O4    S    
C43   H26   S    
C44   H28   S    
C11   N2    A    
C53   H48   S    
C13   N1    A    
C50   C51   S    
C46   H30   S    
C27   H59   S    
C49   O5    S    
C38   H14   S    
C50   H40   S    
C22   C31   A    
O7    Zn2   S    
N1    Zn1   S    
C1    O8    A    
C48   H35   S    
C41   H20   S    
C5    C7    A    
C36   H7    S    
C22   O3    S    
C6    C8    A    
O10   Zn1   S    
C17   C21   S    
C39   O2    S    
C40   H18   S    
C54   H51   S    
C2    C4    A    
C43   C44   S    
C24   C32   A    
O12   Zn2   S    
C37   C38   S    
O9    Zn1   S    
C1    C57   S    
C53   H49   S    
C47   C48   S    
C16   C20   S    
C14   H6    S    
C33   C34   A    
C9    C11   A    
C12   C56   S    
C3    C57   A    
C40   C41   S    
C21   C28   A    
C52   H47   S    
C23   C35   A    
C17   O11   A    
C47   H32   S    
N2    Zn2   S    
C42   C43   S    
C44   H27   S    
O8    Zn2   S    
C39   C40   S    
C52   C53   S    
C51   H42   S    
O13   Zn1   S    
C46   C47   S    
C52   H46   S    
C47   H33   S    
C46   O4    S    
C6    C56   A    
C10   C13   A    
C41   H21   S    
C20   C27   A    
C5    C57   A    
C51   H43   S    
O1    Zn1   S    
C14   N2    A    
C40   H17   S    
C54   H50   S    
C36   O14   S    
C28   C30   A    
H54   N3    S    
C29   C31   A    
C30   C32   A    
C10   C18   A    
C37   H9    S    
C5    O6    S    
C33   C35   A    
C15   N1    A    
C4    N3    S    
C39   H15   S    
C49   H38   S    
C16   O10   A    
C25   O2    S    
C12   O7    A    
C55   H12   S    
C26   O14   S    
C49   H39   S    
C3    C58   A    
C34   C55   A    
C49   C50   S    
C31   C45   A    
C15   H5    S    
C2    H4    S    
