data_mof_unit_13871.cif
_audit_creation_date              2012-12-11T14:17:50-0500
_audit_creation_method            fapswitch 2.2
_symmetry_space_group_name_H-M    P1
_symmetry_Int_Tables_number       1
_space_group_crystal_system       triclinic
_cell_length_a                    6.945262
_cell_length_b                    13.652187
_cell_length_c                    20.422921
_cell_angle_alpha                 101.871833
_cell_angle_beta                  90.556762
_cell_angle_gamma                 90.673957
_cell_volume                      1894.76354583

loop_
_atom_site_label
_atom_site_type_symbol
_atom_type_description
_atom_site_fract_x
_atom_site_fract_y
_atom_site_fract_z
_atom_type_partial_charge
O1    O     O_R   0.506860 0.599390 0.449240 -0.544751
O2    O     O_R   0.180220 0.594600 0.586780 -0.549515
O3    O     O_R   0.004500 0.400610 0.550760 -0.543636
C1    C     C_R   0.350519 0.613701 0.614163 0.686990
O4    O     O_R   0.177490 0.611290 0.451970 -0.541059
O5    O     O_R   0.001750 0.417420 0.414990 -0.498736
C2    C     C_R   0.346161 0.637584 0.434884 0.710615
O6    O     O_R   0.509610 0.582580 0.585010 -0.546230
O7    O     O_3   0.337420 0.436370 0.488020 -0.352514
V1    V     V_3+5 0.064680 0.511800 0.502220 1.506659
O8    O     O_R   0.671710 0.405400 0.413220 -0.532412
C3    C     C_R   0.839526 0.382603 0.387256 0.837591
O9    O     O_R   0.674440 0.388710 0.548030 -0.542221
C4    C     C_R   0.842895 0.362546 0.565296 0.690001
V2    V     V_3+5 0.564010 0.488200 0.497780 1.522416
O10   O     O_3   0.841140 0.563630 0.511980 -0.390269
C5    C     C_R   0.849951 0.111707 0.613561 -0.161128
H1    H     H_    0.846619 0.161983 0.520663 0.121980
H2    H     H_    0.874479 0.987577 0.697368 0.125756
H3    H     H_    0.855796 0.033591 0.588746 0.115924
C6    C     C_R   0.848999 0.285603 0.605608 -0.037013
C7    C     C_R   0.836276 0.316772 0.929484 -0.104310
C8    C     C_R   0.783031 0.389734 0.893534 -0.077351
C9    C     C_R   0.760708 0.363931 0.823337 -0.091249
C10   C     C_R   0.817109 0.267642 0.787500 0.022250
C11   C     C_R   0.850004 0.191848 0.824886 0.055020
C12   C     C_R   0.833291 0.241759 0.715977 0.076505
C13   C     C_R   0.846710 0.139418 0.683700 0.142647
C14   C     C_R   0.861848 0.065704 0.721553 -0.205198
C15   C     C_R   0.870125 0.091637 0.790850 -0.179769
C16   C     C_R   0.848093 0.313985 0.675469 -0.200030
C17   C     C_R   0.846838 0.184450 0.574727 -0.161998
C18   C     C_R   0.857439 0.216822 0.895730 -0.123609
H4    H     H_    0.865863 0.392689 0.696932 0.123063
H5    H     H_    0.890561 0.031684 0.817539 0.119438
C19   C     C_2   0.002051 0.285109 0.286214 0.614082
C20   C     C_2   0.842501 0.308483 0.323249 -0.483303
H6    H     H_    0.707673 0.269495 0.307426 0.152829
C21   C     C_2   0.002618 0.207778 0.222834 0.552982
C22   C     C_2   0.860722 0.194537 0.175485 -0.398027
C23   C     C_2   0.218437 0.758220 0.792347 -0.024794
C24   C     C_2   0.353318 0.828894 0.816848 -0.319568
H7    H     H_    0.461410 0.849459 0.783999 0.135000
C25   C     C_2   0.213201 0.705920 0.720474 -0.211930
C26   C     C_2   0.369313 0.673075 0.683577 -0.197062
H8    H     H_    0.071695 0.687485 0.698167 0.171761
C27   C     C_R   0.338002 0.887995 0.386650 -0.093770
H9    H     H_    0.330213 0.837572 0.479383 0.104373
H10   H     H_    0.334270 0.965971 0.411813 0.172882
C28   C     C_R   0.352847 0.714603 0.394751 -0.039224
C29   C     C_R   0.333491 0.685109 0.070533 -0.138773
C30   C     C_R   0.294697 0.610171 0.105372 -0.111292
C31   C     C_R   0.282826 0.631845 0.175193 -0.028190
C32   C     C_R   0.326822 0.730691 0.212329 0.027688
C33   C     C_R   0.350305 0.808221 0.175377 -0.048169
C34   C     C_R   0.340149 0.757442 0.284059 -0.009416
C35   C     C_R   0.342154 0.860391 0.316427 -0.008184
C36   C     C_R   0.352310 0.934687 0.278602 0.624406
C37   C     C_R   0.363193 0.908824 0.209481 -0.241014
C38   C     C_R   0.360663 0.686268 0.325027 -0.157974
C39   C     C_R   0.337928 0.815273 0.425411 -0.204474
C40   C     C_R   0.354800 0.784172 0.104565 -0.047993
H11   H     H_    0.388747 0.608700 0.304406 0.131749
H12   H     H_    0.335619 0.666557 0.016326 0.132204
H13   H     H_    0.264027 0.535133 0.077152 0.142677
H14   H     H_    0.377954 0.969162 0.182727 0.186496
O11   O     O_R   0.203230 0.917310 0.915020 -0.546615
O12   O     O_R   0.535500 0.888690 0.048040 -0.539307
O13   O     O_R   0.711080 0.082610 0.085000 -0.546365
C41   C     C_R   0.366488 0.861953 0.064758 0.695492
O14   O     O_R   0.532630 0.905370 0.913230 -0.535791
O15   O     O_R   0.708190 0.099410 0.949230 -0.546150
C42   C     C_R   0.362708 0.885467 0.886540 0.729196
O16   O     O_R   0.206120 0.900510 0.050790 -0.536653
O17   O     O_3   0.375360 0.063570 0.011990 -0.368974
V3    V     V_3+5 0.648170 0.988200 0.997780 1.506618
O18   O     O_R   0.038240 0.111390 0.951940 -0.547796
C43   C     C_R   0.869406 0.137728 0.934939 0.683418
O19   O     O_R   0.041120 0.094710 0.086750 -0.504422
C44   C     C_R   0.872996 0.117518 0.112799 0.812963
V4    V     V_3+5 0.148810 0.011930 0.002180 1.529537
O20   O     O_3   0.871750 0.936430 0.988010 -0.371923
F1    F     F_    0.162731 0.150484 0.211889 -0.617194
C45   C     C_1   0.695400 0.259611 0.181312 0.318021
N1    N     N_1   0.563340 0.311409 0.185640 -0.233866
C46   C     C_1   0.071090 0.730933 0.835182 0.375088
N2    N     N_1   0.953683 0.709100 0.869601 -0.310881
C47   C     C_1   0.561002 0.684244 0.712840 0.380149
N3    N     N_1   0.714090 0.692966 0.736158 -0.378241
F2    F     F_    0.358818 0.033185 0.308728 -0.645574
C48   C     C_1   0.195239 0.554336 0.204089 0.317258
N4    N     N_1   0.123820 0.491988 0.226688 -0.291430
C49   C     C_1   0.858213 0.343338 0.001771 0.290673
N5    N     N_1   0.876124 0.364700 0.059365 -0.346107
C50   C     C_1   0.647344 0.429912 0.791453 0.310732
N6    N     N_1   0.555047 0.482236 0.766362 -0.347118
C51   C     C_1   0.742063 0.490661 0.929281 0.344158
N7    N     N_1   0.709399 0.571000 0.957818 -0.330385
F3    F     F_    0.175284 0.326864 0.308886 -0.608344

loop_
_geom_bond_atom_site_label_1
_geom_bond_atom_site_label_2
_ccdc_geom_bond_type
C49   N5    T    
C33   C37   A    
C23   C24   D    
C22   C45   S    
C50   N6    T    
O15   V3    S    
C51   N7    T    
H9    C39   S    
C27   H10   S    
O18   C43   A    
C30   C31   A    
C23   C46   S    
C6    C16   A    
C20   H6    S    
C15   H5    S    
C38   H11   S    
C4    C6    S    
C19   C20   D    
C37   H14   S    
O5    C3    A    
O14   V3    S    
C18   C43   S    
V2    O10   S    
C33   C40   A    
C5    H3    S    
C34   C35   A    
C40   C41   S    
O13   V3    S    
C3    C20   S    
O15   C43   A    
O8    V2    S    
C31   C48   S    
C8    C9    A    
C22   C44   S    
O11   C42   A    
O7    V1    S    
C1    O6    A    
O9    C4    A    
C29   C40   A    
C25   H8    S    
V4    O20   S    
O4    C2    A    
C1    C26   S    
C6    C17   A    
C32   C34   A    
C12   C16   A    
C29   C30   A    
C26   C47   S    
C9    C10   A    
C9    C50   S    
V3    O20   S    
C21   C22   D    
O14   C42   A    
C46   N2    T    
O17   V4    S    
C36   C37   A    
C31   C32   A    
C34   C38   A    
O2    C1    A    
O17   V3    S    
C41   O16   A    
C14   C15   A    
C27   C35   A    
C11   C18   A    
O18   V4    S    
C16   H4    S    
C45   N1    T    
C36   F2    S    
O3    C4    A    
O1    V2    S    
C8    C51   S    
O11   V4    S    
O6    V2    S    
O9    V2    S    
C23   C25   S    
O12   V3    S    
C24   H7    S    
O16   V4    S    
O2    V1    S    
C48   N4    T    
C25   C26   D    
O19   V4    S    
C5    C17   A    
C7    C18   A    
C32   C33   A    
C13   C14   A    
C24   C42   S    
O1    C2    A    
C5    C13   A    
C19   C21   S    
C29   H12   S    
C2    C28   S    
C27   C39   A    
O8    C3    A    
C11   C15   A    
C10   C12   A    
C28   C38   A    
C10   C11   A    
C21   F1    S    
O4    V1    S    
O3    V1    S    
V1    O10   S    
C35   C36   A    
C7    C49   S    
C19   F3    S    
O7    V2    S    
O5    V1    S    
O19   C44   A    
H1    C17   S    
C47   N3    T    
O12   C41   A    
C12   C13   A    
C28   C39   A    
C7    C8    A    
O13   C44   A    
C30   H13   S    
H2    C14   S    
