data_mof_unit_66563.cif
_audit_creation_date              2012-10-26T19:40:06-0400
_audit_creation_method            fapswitch 2.2
_symmetry_space_group_name_H-M    P1
_symmetry_Int_Tables_number       1
_space_group_crystal_system       triclinic
_cell_length_a                    15.048864
_cell_length_b                    8.734389
_cell_length_c                    7.574531
_cell_angle_alpha                 102.479236
_cell_angle_beta                  94.656769
_cell_angle_gamma                 93.160152
_cell_volume                      966.18006597

loop_
_atom_site_label
_atom_site_type_symbol
_atom_type_description
_atom_site_fract_x
_atom_site_fract_y
_atom_site_fract_z
_atom_type_partial_charge
C1    C     C_R   0.497403 0.200471 0.454000 0.495663
C2    C     C_R   0.176043 0.349418 0.439847 0.200813
C3    C     C_R   0.767702 0.517112 0.493945 -0.014813
C4    C     C_R   0.232233 0.488605 0.504748 -0.003033
C5    C     C_R   0.803728 0.391064 0.381430 0.214182
C6    C     C_R   0.196399 0.629946 0.579213 0.220168
C7    C     C_R   0.896463 0.384466 0.386266 -0.027012
C8    C     C_R   0.103507 0.639015 0.569776 -0.031715
C9    C     C_R   0.953194 0.515307 0.480078 -0.085905
C10   C     C_R   0.046526 0.506043 0.483854 -0.086606
C11   C     C_R   0.916796 0.652753 0.575507 0.039208
C12   C     C_R   0.501644 0.799420 0.546070 0.531143
C13   C     C_R   0.082700 0.360574 0.414371 0.046606
C14   C     C_R   0.932542 0.244465 0.307506 -0.133937
C15   C     C_R   0.067429 0.779544 0.645746 -0.126397
C16   C     C_3   0.747564 0.871784 0.645811 0.001680
C17   C     C_3   0.728997 0.011979 0.793934 -0.340247
C18   C     C_3   0.254000 0.137813 0.315802 0.002446
C19   C     C_3   0.260939 0.964193 0.314875 -0.342146
C20   C     C_3   0.713822 0.165120 0.344727 -0.116470
C21   C     C_3   0.265048 0.755944 0.855348 -0.112038
C22   C     C_3   0.013974 0.971064 0.133515 -0.026776
C23   C     C_R   0.025001 0.227737 0.325658 0.261306
C24   C     C_3   0.967738 0.839429 0.202827 -0.389798
C25   C     C_3   0.988838 0.067185 0.715047 -0.047557
C26   C     C_3   0.933039 0.208420 0.755544 -0.380142
C27   C     C_3   0.356430 0.288131 0.956592 0.018366
C28   C     C_3   0.317546 0.147759 0.812148 -0.371900
C29   C     C_3   0.657224 0.676955 0.018444 0.080618
C30   C     C_3   0.722386 0.772684 0.170455 -0.410169
C31   C     C_R   0.974491 0.789956 0.649816 0.261204
C32   C     C_2   0.495682 0.032579 0.428542 -0.190086
C33   C     C_2   0.503161 0.967236 0.571475 -0.173666
C34   C     C_R   0.329139 0.490177 0.500697 0.566817
C35   C     C_R   0.670775 0.511084 0.499742 0.548614
C36   C     C_R   0.823579 0.647939 0.593846 0.207362
Cu1   Cu    Cu3+1 0.510010 0.517380 0.684380 1.032241
Cu2   Cu    Cu3+1 0.489990 0.482620 0.315620 1.046439
H1    H     H_    0.887349 0.144068 0.245437 0.137679
H2    H     H_    0.322718 0.192413 0.339072 0.131223
H3    H     H_    0.221667 0.148376 0.181656 0.132452
H4    H     H_    0.194849 0.897662 0.275192 0.181552
H5    H     H_    0.308894 0.914562 0.218401 0.068882
H6    H     H_    0.286247 0.948919 0.450866 0.200530
H7    H     H_    0.766328 0.088482 0.374712 0.069947
H8    H     H_    0.659331 0.092859 0.251394 0.156530
H9    H     H_    0.684982 0.215862 0.472645 0.121826
H10   H     H_    0.255635 0.636953 0.885742 0.114033
H11   H     H_    0.218306 0.834053 0.929678 0.092885
H12   H     H_    0.112712 0.880838 0.705188 0.145635
H13   H     H_    0.334394 0.801665 0.909020 0.154522
H14   H     H_    0.063326 0.918125 0.041820 0.145162
H15   H     H_    0.965729 0.022016 0.049622 0.178046
H16   H     H_    0.930200 0.753980 0.087252 0.144852
H17   H     H_    0.018386 0.777007 0.268804 0.157410
H18   H     H_    0.920466 0.887442 0.302077 0.139539
H19   H     H_    0.010777 0.056438 0.577403 0.204912
H20   H     H_    0.048119 0.091877 0.816988 0.119797
H21   H     H_    0.912728 0.226217 0.895658 0.151078
H22   H     H_    0.973198 0.315809 0.744608 0.124194
H23   H     H_    0.488166 0.962210 0.290265 0.153030
H24   H     H_    0.872595 0.190985 0.657488 0.148482
H25   H     H_    0.316394 0.390236 0.947662 0.126599
H26   H     H_    0.353024 0.257805 0.088861 0.144818
H27   H     H_    0.352645 0.042758 0.827955 0.159061
H28   H     H_    0.244881 0.126203 0.822036 0.120560
H29   H     H_    0.329024 0.171062 0.677958 0.209669
H30   H     H_    0.652161 0.739280 0.906490 0.195601
H31   H     H_    0.684723 0.560160 0.974865 0.178433
H32   H     H_    0.762754 0.694169 0.235628 0.123508
H33   H     H_    0.768578 0.850741 0.116251 0.131778
H34   H     H_    0.511002 0.037631 0.709667 0.164626
H35   H     H_    0.685040 0.844176 0.273848 0.134142
H36   H     H_    0.683085 0.820876 0.569818 0.116730
H37   H     H_    0.790628 0.915013 0.551841 0.150686
H38   H     H_    0.787613 0.045897 0.896512 0.202777
H39   H     H_    0.714297 0.113773 0.733733 0.097039
H40   H     H_    0.670292 0.983831 0.863553 0.136300
N1    N     N_2   0.474890 0.456420 0.038520 0.094396
N2    N     N_2   0.525110 0.543580 0.961480 0.082756
O1    O     O_R   0.506510 0.286130 0.619770 -0.464343
O2    O     O_3   0.206130 0.206465 0.460842 -0.550527
O3    O     O_3   0.748219 0.279169 0.257456 -0.563761
O4    O     O_3   0.253633 0.757581 0.668485 -0.591554
O5    O     O_3   0.061339 0.082133 0.278779 -0.553914
O6    O     O_3   0.937879 0.929342 0.728121 -0.566390
O7    O     O_3   0.445638 0.318430 0.927973 -0.458325
O8    O     O_3   0.572500 0.662435 0.079970 -0.480533
O9    O     O_R   0.493490 0.713870 0.380230 -0.466297
O10   O     O_R   0.489600 0.256770 0.308360 -0.513300
O11   O     O_R   0.510400 0.743230 0.691640 -0.520823
O12   O     O_R   0.378710 0.514640 0.655720 -0.481317
O13   O     O_R   0.621290 0.485360 0.344280 -0.438169
O14   O     O_R   0.361800 0.485290 0.344300 -0.561577
O15   O     O_R   0.638200 0.514710 0.655700 -0.549317
O16   O     O_3   0.789598 0.759462 0.725910 -0.547996

loop_
_geom_bond_atom_site_label_1
_geom_bond_atom_site_label_2
_ccdc_geom_bond_type
C1    O10   A    
C16   H37   S    
C12   O11   A    
C2    C4    A    
N1    O7    S    
C30   H33   S    
C24   H17   S    
Cu2   O9    S    
Cu1   O15   S    
Cu1   Cu2   S    
C16   H36   S    
C11   C36   A    
C32   H23   S    
C5    O3    S    
C15   H12   S    
Cu2   N1    S    
C1    O1    A    
C13   C23   A    
C18   C19   S    
C22   O5    S    
C2    C13   A    
C18   H2    S    
C17   H40   S    
C29   O8    S    
C33   H34   S    
C14   H1    S    
C7    C14   A    
C16   C17   S    
C17   H38   S    
C26   H21   S    
C20   H7    S    
C19   H4    S    
C21   H10   S    
C11   C31   A    
C31   O6    S    
Cu1   O1    S    
C25   H19   S    
C21   H11   S    
C30   H32   S    
C19   H5    S    
C22   H15   S    
C29   H31   S    
C35   O13   A    
Cu1   N2    S    
C4    C34   S    
C16   O16   S    
C6    O4    S    
Cu1   O11   S    
C12   O9    A    
C28   H29   S    
C4    C6    A    
C18   H3    S    
C5    C7    A    
C30   H35   S    
C6    C8    A    
C25   C26   S    
C1    C32   S    
C14   C23   A    
C24   H16   S    
C28   H28   S    
C29   C30   S    
C29   H30   S    
C36   O16   S    
C21   O4    S    
C3    C35   S    
Cu2   O14   S    
C17   H39   S    
C27   O7    S    
C9    C11   A    
C27   H25   S    
C8    C15   A    
C22   C24   S    
C2    O2    S    
C25   H20   S    
C21   H13   S    
C19   H6    S    
C22   H14   S    
C9    C10   A    
C7    C9    A    
Cu1   O12   S    
C34   O14   A    
C3    C5    A    
C10   C13   A    
C15   C31   A    
C35   O15   A    
C24   H18   S    
Cu2   O10   S    
C32   C33   D    
C28   H27   S    
C26   H24   S    
N2    O8    S    
C3    C36   A    
Cu2   O13   S    
C25   O6    S    
C18   O2    S    
C34   O12   A    
C20   H9    S    
C27   H26   S    
N1    N2    D    
C8    C10   A    
C23   O5    S    
C20   O3    S    
C27   C28   S    
C12   C33   S    
C26   H22   S    
C20   H8    S    
