data_mof_unit_48868.cif
_audit_creation_date              2012-10-26T20:03:40-0400
_audit_creation_method            fapswitch 2.2
_symmetry_space_group_name_H-M    P1
_symmetry_Int_Tables_number       1
_space_group_crystal_system       triclinic
_cell_length_a                    12.402916
_cell_length_b                    13.173606
_cell_length_c                    15.829403
_cell_angle_alpha                 76.280984
_cell_angle_beta                  101.19555
_cell_angle_gamma                 117.109387
_cell_volume                      2225.44704086

loop_
_atom_site_label
_atom_site_type_symbol
_atom_type_description
_atom_site_fract_x
_atom_site_fract_y
_atom_site_fract_z
_atom_type_partial_charge
C1    C     C_R   0.855451 0.286554 0.506140 0.532112
C2    C     C_R   0.229386 0.837490 0.463465 0.013538
C3    C     C_R   0.814081 0.081644 0.561436 -0.126110
C4    C     C_R   0.999748 0.499556 0.659935 0.556086
C5    C     C_R   0.734045 0.965316 0.577310 -0.129747
C6    C     C_R   0.612295 0.928667 0.544502 -0.090720
C7    C     C_R   0.568996 0.008044 0.491419 0.051309
C8    C     C_R   0.654725 0.123594 0.465765 0.014180
C9    C     C_R   0.443578 0.976962 0.463155 0.035444
C10   C     C_R   0.408095 0.057132 0.402562 0.007383
C11   C     C_R   0.495920 0.165120 0.369485 -0.133535
C12   C     C_3   0.997251 0.496742 0.917407 0.048351
C13   C     C_R   0.617603 0.197681 0.400034 -0.107138
C14   C     C_R   0.352028 0.869515 0.494924 -0.141943
C15   C     C_R   0.195443 0.919113 0.404120 0.228868
C16   C     C_R   0.145243 0.714244 0.485126 0.566289
C17   C     C_R   0.774950 0.162404 0.507903 -0.015625
C18   C     C_R   0.373477 0.386999 0.666007 -0.152373
C19   C     C_R   0.757551 0.638319 0.376468 0.026929
C20   C     C_R   0.668778 0.679112 0.351692 -0.098864
C21   C     C_R   0.571499 0.638772 0.401404 0.212400
C22   C     C_R   0.558635 0.550144 0.475517 -0.043919
C23   C     C_3   0.097620 0.586791 0.025635 -0.095047
C24   C     C_R   0.656627 0.515224 0.502249 0.146803
C25   C     C_R   0.455478 0.496328 0.526422 -0.006688
C26   C     C_R   0.468879 0.439688 0.612726 -0.020118
C27   C     C_R   0.573295 0.425258 0.643148 -0.153095
C28   C     C_R   0.000072 0.500205 0.340052 0.550708
C29   C     C_R   0.648966 0.436187 0.583565 0.297311
C30   C     C_R   0.338055 0.491172 0.495860 0.090427
C31   C     C_R   0.261859 0.386202 0.632579 0.050102
C32   C     C_3   0.996351 0.397491 0.047788 -0.097618
C33   C     C_3   0.896841 0.406921 0.974504 -0.102542
C34   C     C_3   0.997286 0.497038 0.082813 0.051354
C35   C     C_1   0.998919 0.498370 0.749874 -0.034469
C36   C     C_1   0.999076 0.499051 0.250242 -0.010438
C37   C     C_3   0.096722 0.487288 0.989091 -0.099928
C38   C     C_3   0.647028 0.253963 0.645829 0.005715
C39   C     C_3   0.708745 0.230798 0.737052 -0.269773
C40   C     C_3   0.643917 0.104727 0.780038 -0.485067
C41   C     C_3   0.998132 0.596226 0.952442 -0.098951
C42   C     C_3   0.897752 0.506445 0.011126 -0.100098
C43   C     C_1   0.997969 0.497368 0.825603 -0.067481
C44   C     C_1   0.998098 0.497970 0.174595 -0.046469
C45   C     C_R   0.284966 0.028231 0.374765 -0.088471
Cl1   Cl    Cl    0.485720 0.720234 0.376066 -0.652076
Cl2   Cl    Cl    0.044208 0.889276 0.360874 -0.628954
Cu1   Cu    Cu3+1 0.098270 0.475420 0.519690 0.960996
Cu2   Cu    Cu3+1 0.901730 0.524580 0.480310 1.022098
H1    H     H_    0.814517 0.333153 0.951972 0.103298
H2    H     H_    0.316953 0.526288 0.429631 0.188312
H3    H     H_    0.832842 0.672405 0.337403 0.186455
H4    H     H_    0.995626 0.315944 0.088326 0.119669
H5    H     H_    0.678660 0.746406 0.294977 0.162503
H6    H     H_    0.816106 0.514317 0.021567 0.108600
H7    H     H_    0.998844 0.677770 0.911903 0.109902
H8    H     H_    0.180025 0.660612 0.047987 0.122144
H9    H     H_    0.178362 0.479409 0.978643 0.109726
H10   H     H_    0.470316 0.225459 0.320548 0.109717
H11   H     H_    0.258321 0.090012 0.328527 0.145230
H12   H     H_    0.373939 0.808094 0.544432 0.130404
H13   H     H_    0.648557 0.196311 0.606316 0.156757
H14   H     H_    0.548317 0.227047 0.647987 0.108010
H15   H     H_    0.804741 0.250796 0.731828 0.169390
H16   H     H_    0.709119 0.287783 0.778885 0.154180
H17   H     H_    0.548119 0.083002 0.787248 0.148705
H18   H     H_    0.691076 0.090694 0.845875 0.150604
H19   H     H_    0.645146 0.046397 0.740104 0.152670
H20   H     H_    0.906034 0.108819 0.593282 0.134590
H21   H     H_    0.555133 0.837353 0.560363 0.138125
H22   H     H_    0.765523 0.903612 0.618087 0.126147
H23   H     H_    0.682200 0.281093 0.370459 0.143774
H24   H     H_    0.188361 0.347330 0.673909 0.125209
H25   H     H_    0.582876 0.382931 0.709953 0.108254
H26   H     H_    0.384139 0.343737 0.732340 0.089481
N1    N     N_R   0.246280 0.438200 0.549540 -0.246382
N2    N     N_R   0.754330 0.561180 0.450980 -0.237078
O1    O     O_R   0.972510 0.318130 0.524770 -0.506499
O2    O     O_R   0.806530 0.359650 0.491510 -0.458338
O3    O     O_R   0.082970 0.479240 0.637550 -0.521410
O4    O     O_R   0.916990 0.520750 0.604290 -0.432805
O5    O     O_R   0.193470 0.640350 0.508490 -0.495953
O6    O     O_R   0.027490 0.681870 0.475230 -0.446897
O7    O     O_R   0.083010 0.479250 0.395710 -0.494473
O8    O     O_R   0.917030 0.520760 0.362450 -0.520627
O9    O     O_3   0.714212 0.370563 0.605962 -0.512538

loop_
_geom_bond_atom_site_label_1
_geom_bond_atom_site_label_2
_ccdc_geom_bond_type
C30   H2    S    
C45   H11   S    
C8    C13   A    
C28   O7    A    
C41   C42   S    
Cu1   N1    S    
C19   C20   A    
C34   C42   S    
C15   Cl2   S    
C7    C8    A    
C39   H15   S    
C26   C27   A    
C18   H26   S    
C38   O9    S    
C33   C42   S    
C3    H20   S    
C4    O3    A    
C12   C43   S    
C5    C6    A    
C31   H24   S    
C27   C29   A    
Cu1   O1    S    
C6    H21   S    
Cu2   O4    S    
C12   C37   S    
C19   N2    A    
C24   C29   A    
C38   H14   S    
C19   H3    S    
C4    O4    A    
Cu1   O5    S    
C22   C25   A    
C18   C26   A    
C27   H25   S    
C2    C16   S    
C9    C10   A    
C37   H9    S    
C4    C35   S    
C40   H17   S    
C21   C22   A    
C1    O1    A    
C39   H16   S    
C11   H10   S    
Cu2   O8    S    
C34   C44   S    
C20   H5    S    
C39   C40   S    
C33   H1    S    
C23   C37   S    
C14   H12   S    
C40   H18   S    
C16   O6    A    
Cu1   O7    S    
C32   C34   S    
C9    C14   A    
C41   H7    S    
C12   C41   S    
C42   H6    S    
C30   N1    A    
C23   C34   S    
C10   C45   A    
C16   O5    A    
C32   C37   S    
C2    C15   A    
C29   O9    S    
Cu1   Cu2   S    
C1    O2    A    
C22   C24   A    
C36   C44   T    
C15   C45   A    
C32   H4    S    
Cu2   O2    S    
C35   C43   T    
C21   Cl1   S    
C25   C30   A    
C23   H8    S    
C3    C5    A    
C6    C7    A    
C13   H23   S    
C1    C17   S    
C8    C17   A    
C23   C41   S    
C32   C33   S    
Cu1   O3    S    
C25   C26   A    
C5    H22   S    
C11   C13   A    
Cu2   O6    S    
C31   N1    A    
C38   C39   S    
Cu2   N2    S    
C3    C17   A    
C2    C14   A    
C10   C11   A    
C7    C9    A    
C24   N2    A    
C20   C21   A    
C28   C36   S    
C40   H19   S    
C28   O8    A    
C18   C31   A    
C12   C33   S    
C38   H13   S    
