data_mof_unit_31688.cif
_audit_creation_date              2012-12-11T14:57:54-0500
_audit_creation_method            fapswitch 2.2
_symmetry_space_group_name_H-M    P1
_symmetry_Int_Tables_number       1
_space_group_crystal_system       triclinic
_cell_length_a                    6.939123
_cell_length_b                    16.76337
_cell_length_c                    17.03875
_cell_angle_alpha                 100.499795
_cell_angle_beta                  90.501803
_cell_angle_gamma                 90.402859
_cell_volume                      1948.66274729

loop_
_atom_site_label
_atom_site_type_symbol
_atom_type_description
_atom_site_fract_x
_atom_site_fract_y
_atom_site_fract_z
_atom_type_partial_charge
O1    O     O_R   0.506180 0.438940 0.579430 -0.541873
O2    O     O_R   0.170520 0.406230 0.413590 -0.537810
O3    O     O_R   0.005180 0.561060 0.420570 -0.540779
C1    C     C_R   0.339075 0.383369 0.385044 0.695331
O4    O     O_R   0.176140 0.429310 0.578370 -0.541349
O5    O     O_R   0.010830 0.584300 0.586530 -0.537129
C2    C     C_R   0.343745 0.413656 0.605240 0.697546
O6    O     O_R   0.500520 0.415700 0.413470 -0.535201
O7    O     O_3   0.340830 0.550820 0.502480 -0.366429
V1    V     V_3+5 0.064040 0.490570 0.499540 1.425530
O8    O     O_R   0.681400 0.593770 0.586410 -0.536802
C3    C     C_R   0.851219 0.616598 0.614712 0.692484
O9    O     O_R   0.675790 0.570690 0.421630 -0.542733
C4    C     C_R   0.842500 0.586541 0.394866 0.700209
V2    V     V_3+5 0.564650 0.509430 0.500460 1.428050
O10   O     O_3   0.837730 0.449180 0.497520 -0.366890
C5    C     C_R   0.928803 0.860485 0.166487 -0.063115
C6    C     C_R   0.837641 0.639727 0.333619 -0.071000
C7    C     C_R   0.646033 0.698176 0.237036 -0.205732
C8    C     C_R   0.666297 0.643253 0.289050 -0.158832
C9    C     C_R   0.990684 0.692225 0.323821 -0.215355
C10   C     C_R   0.970161 0.748574 0.271949 0.165309
C11   C     C_R   0.796123 0.751845 0.228388 0.160821
C12   C     C_R   0.775643 0.808122 0.176450 -0.245732
C13   C     C_R   0.100109 0.857035 0.211105 -0.170465
C14   C     C_R   0.120247 0.802247 0.263281 -0.183440
H1    H     H_    0.643807 0.809235 0.142052 0.119844
H2    H     H_    0.221386 0.896245 0.204829 0.123149
H3    H     H_    0.511814 0.699191 0.204231 0.118341
H4    H     H_    0.254422 0.801280 0.296127 0.134329
H5    H     H_    0.545068 0.603977 0.295224 0.121733
H6    H     H_    0.122493 0.691105 0.358236 0.137216
H7    H     H_    0.636064 0.644047 0.970831 0.111813
C15   C     C_R   0.040938 0.900473 0.727406 -0.193336
C16   C     C_R   0.099954 0.911209 0.652064 -0.216124
C17   C     C_R   0.082010 0.847685 0.586395 0.406486
C18   C     C_R   0.004732 0.773416 0.597225 -0.132229
C19   C     C_R   0.945108 0.760645 0.673269 -0.004622
C20   C     C_R   0.963418 0.825490 0.739677 0.068948
C21   C     C_R   0.864583 0.685196 0.683409 -0.163546
C22   C     C_R   0.801642 0.674750 0.759902 0.071773
C23   C     C_R   0.819949 0.739650 0.826339 0.068673
C24   C     C_R   0.900900 0.815006 0.816246 -0.167420
C25   C     C_R   0.723395 0.599779 0.772131 -0.150364
C26   C     C_R   0.663509 0.589329 0.847461 -0.123425
C27   C     C_R   0.681582 0.652636 0.912302 -0.119380
C28   C     C_R   0.759503 0.726903 0.902289 -0.133132
H8    H     H_    0.055788 0.951961 0.775661 0.125350
H9    H     H_    0.158695 0.969468 0.644947 0.117198
H10   H     H_    0.990490 0.726215 0.544895 0.119444
H11   H     H_    0.708507 0.548242 0.723941 0.107311
H12   H     H_    0.603817 0.531590 0.855620 0.115220
H13   H     H_    0.773107 0.773754 0.954903 0.100796
H14   H     H_    0.553202 0.488431 0.149813 0.115632
C29   C     C_R   0.247338 0.216640 0.397340 -0.134734
C30   C     C_R   0.210974 0.136942 0.406304 -0.106193
C31   C     C_R   0.241126 0.073268 0.343095 -0.123984
C32   C     C_R   0.307950 0.088795 0.270425 -0.135871
C33   C     C_R   0.344543 0.169070 0.259097 0.073617
C34   C     C_R   0.313486 0.234412 0.324034 0.064068
C35   C     C_R   0.414249 0.184442 0.185020 -0.185227
C36   C     C_R   0.453242 0.265463 0.176254 0.066891
C37   C     C_R   0.422188 0.330803 0.241190 0.073890
C38   C     C_R   0.352393 0.315437 0.315248 -0.185327
C39   C     C_R   0.519480 0.283233 0.102966 -0.139877
C40   C     C_R   0.555992 0.362918 0.094034 -0.117597
C41   C     C_R   0.525862 0.426587 0.157244 -0.126816
C42   C     C_R   0.458900 0.411073 0.229884 -0.136881
H15   H     H_    0.223496 0.263891 0.448601 0.109620
H16   H     H_    0.160148 0.124511 0.462799 0.125096
H17   H     H_    0.213900 0.011415 0.350558 0.126037
H18   H     H_    0.332782 0.037125 0.223624 0.097735
H19   H     H_    0.543302 0.235994 0.051697 0.105306
H20   H     H_    0.606909 0.375338 0.037559 0.113021
H21   H     H_    0.434093 0.462753 0.276676 0.095785
C43   C     C_R   0.425810 0.138195 0.832427 -0.102518
C44   C     C_R   0.340832 0.360917 0.666841 -0.109220
C45   C     C_R   0.156444 0.305881 0.766769 -0.134286
C46   C     C_R   0.175962 0.360624 0.714562 -0.135161
C47   C     C_R   0.488588 0.305690 0.673753 -0.207967
C48   C     C_R   0.469328 0.249148 0.725827 0.121909
C49   C     C_R   0.300687 0.249242 0.772496 0.084282
C50   C     C_R   0.279218 0.193509 0.824822 -0.257701
C51   C     C_R   0.591140 0.137541 0.784764 -0.253217
C52   C     C_R   0.614302 0.192151 0.731614 0.324940
H22   H     H_    0.151987 0.195169 0.861546 0.132718
H23   H     H_    0.704884 0.094683 0.789629 0.123946
H24   H     H_    0.026924 0.307309 0.802079 0.127721
H25   H     H_    0.059518 0.402539 0.710820 0.125128
H26   H     H_    0.614720 0.305130 0.636636 0.170501
O11   O     O_R   0.265840 0.084300 0.086750 -0.535246
O12   O     O_R   0.589750 0.070740 0.921690 -0.543817
O13   O     O_R   0.755020 0.915730 0.913400 -0.536188
C53   C     C_R   0.422166 0.086194 0.894708 0.716008
O14   O     O_R   0.595830 0.093740 0.086480 -0.537110
O15   O     O_R   0.761150 0.938890 0.079360 -0.539621
C54   C     C_R   0.427370 0.116546 0.115176 0.697285
O16   O     O_R   0.259710 0.061140 0.920790 -0.541137
O17   O     O_3   0.425260 0.949200 0.997610 -0.368314
V3    V     V_3+5 0.702060 0.009430 0.000450 1.413733
O18   O     O_R   0.090530 0.929220 0.078150 -0.544137
C55   C     C_R   0.923899 0.913488 0.105076 0.698096
O19   O     O_R   0.084440 0.906220 0.913360 -0.537587
C56   C     C_R   0.914547 0.883500 0.885049 0.694177
V4    V     V_3+5 0.201450 0.990520 0.999290 1.415179
O20   O     O_3   0.928380 0.050800 0.002390 -0.367516
O21   O     O_3   0.137310 0.856307 0.510788 -0.651096
H27   H     H_    0.188154 0.912124 0.512970 0.282426
O22   O     O_3   0.777825 0.191198 0.685710 -0.656316
H28   H     H_    0.865693 0.148449 0.697628 0.287254

loop_
_geom_bond_atom_site_label_1
_geom_bond_atom_site_label_2
_ccdc_geom_bond_type
C29   C30   A    
O18   C55   A    
O15   C55   A    
C6    C9    A    
C22   C23   A    
C4    C6    S    
O2    C1    A    
C7    C8    A    
C12   H1    S    
C1    O6    A    
C43   C51   A    
C48   C49   A    
C26   C27   A    
C13   H2    S    
C18   C19   A    
O16   V4    S    
C17   C18   A    
C52   O22   S    
O5    C3    A    
C19   C20   A    
C53   O16   A    
V2    O10   S    
C40   H20   S    
C39   H19   S    
C30   C31   A    
O13   C56   A    
C15   C16   A    
O11   V4    S    
C24   C56   S    
C43   C53   S    
C37   C42   A    
O8    V2    S    
C16   C17   A    
C16   H9    S    
O21   H27   S    
C51   H23   S    
O1    V2    S    
O9    C4    A    
O7    V1    S    
C2    C44   S    
C40   C41   A    
C33   C34   A    
C29   C34   A    
C17   O21   S    
C47   H26   S    
H7    C27   S    
C43   C50   A    
C44   C46   A    
O18   V4    S    
O17   V4    S    
C9    H6    S    
C33   C35   A    
C5    C12   A    
C41   C42   A    
C51   C52   A    
O14   V3    S    
O4    C2    A    
C45   C46   A    
C20   C24   A    
H14   C41   S    
C26   H12   S    
C32   C33   A    
O11   C54   A    
C15   C20   A    
C42   H21   S    
C3    C21   S    
C7    C11   A    
C5    C55   S    
C36   C37   A    
C45   C49   A    
O17   V3    S    
C11   C12   A    
O12   C53   A    
O19   V4    S    
C31   H17   S    
O13   V3    S    
C29   H15   S    
O3    C4    A    
C25   H11   S    
C21   C22   A    
C14   H4    S    
O6    V2    S    
C30   H16   S    
O9    V2    S    
C22   C25   A    
C15   H8    S    
C23   C24   A    
O2    V1    S    
C25   C26   A    
O12   V3    S    
C44   C47   A    
C45   H24   S    
C27   C28   A    
C36   C39   A    
O1    C2    A    
C35   C54   S    
C47   C48   A    
O5    V1    S    
O8    C3    A    
O14   C54   A    
V4    O20   S    
C1    C38   S    
V3    O20   S    
C28   H13   S    
C34   C38   A    
C5    C13   A    
C13   C14   A    
O4    V1    S    
O3    V1    S    
V1    O10   S    
O22   H28   S    
C19   C21   A    
C18   H10   S    
C32   H18   S    
C31   C32   A    
O15   V3    S    
C6    C8    A    
C23   C28   A    
C39   C40   A    
O7    V2    S    
C35   C36   A    
C46   H25   S    
C37   C38   A    
C50   H22   S    
C49   C50   A    
C10   C14   A    
O19   C56   A    
C10   C11   A    
C9    C10   A    
C48   C52   A    
C8    H5    S    
C7    H3    S    
