data_mof_unit_44388.cif
_audit_creation_date              2012-10-26T18:26:35-0400
_audit_creation_method            fapswitch 2.2
_symmetry_space_group_name_H-M    P1
_symmetry_Int_Tables_number       1
_space_group_crystal_system       triclinic
_cell_length_a                    15.83904
_cell_length_b                    8.681765
_cell_length_c                    7.45139
_cell_angle_alpha                 103.026122
_cell_angle_beta                  94.156839
_cell_angle_gamma                 92.240246
_cell_volume                      994.032700607

loop_
_atom_site_label
_atom_site_type_symbol
_atom_type_description
_atom_site_fract_x
_atom_site_fract_y
_atom_site_fract_z
_atom_type_partial_charge
C1    C     C_R   0.497464 0.199707 0.453225 0.551783
C2    C     C_3   0.976727 0.530118 0.675546 -0.123017
C3    C     C_1   0.250502 0.500229 0.506878 0.016535
C4    C     C_1   0.749516 0.499666 0.493237 0.042440
C5    C     C_3   0.027006 0.389162 0.583796 0.245178
C6    C     C_3   0.973077 0.610270 0.417773 0.285337
C7    C     C_3   0.083261 0.500093 0.504351 -0.022259
C8    C     C_3   0.916808 0.499369 0.497146 -0.015670
C9    C     C_1   0.174958 0.500305 0.507045 0.011486
C10   C     C_1   0.825079 0.499425 0.493565 0.044583
C11   C     C_R   0.502525 0.800293 0.546775 0.554143
C12   C     C_R   0.339971 0.499778 0.502312 0.554812
C13   C     C_R   0.660034 0.500230 0.497698 0.556648
C14   C     C_2   0.496252 0.031760 0.426947 -0.134802
C15   C     C_2   0.503723 0.968239 0.573054 -0.134977
C16   C     C_3   0.966026 0.356559 0.406816 -0.111840
C17   C     C_3   0.034045 0.642912 0.594715 -0.104020
C18   C     C_3   0.023320 0.469354 0.326031 -0.107495
Cu1   Cu    Cu3+1 0.509330 0.517380 0.684380 1.002135
Cu2   Cu    Cu3+1 0.490670 0.482620 0.315620 1.003718
H1    H     H_    0.042930 0.446667 0.182881 0.205884
H2    H     H_    0.181913 0.357039 0.829785 0.343891
H3    H     H_    0.957009 0.553033 0.818682 0.196040
H4    H     H_    0.937548 0.238700 0.331703 0.178555
H5    H     H_    0.062523 0.760781 0.669800 0.197755
H6    H     H_    0.489218 0.960053 0.286198 0.140041
H7    H     H_    0.510756 0.039946 0.713803 0.139691
H8    H     H_    0.434317 0.377422 0.948673 0.244175
H9    H     H_    0.565673 0.622594 0.051331 0.250815
H10   H     H_    0.995296 0.928789 0.174796 0.381089
N1    N     N_2   0.476600 0.456420 0.038510 -0.254707
N2    N     N_2   0.523400 0.543580 0.961490 -0.250942
O1    O     O_R   0.506070 0.286130 0.619780 -0.508562
O2    O     O_2   0.894140 0.881127 0.440311 -0.234679
O3    O     O_3   0.019549 0.844824 0.229764 -0.480784
O4    O     O_2   0.988798 0.159651 0.757720 -0.212913
O5    O     O_2   0.107955 0.119599 0.563411 -0.241920
O6    O     O_3   0.130303 0.322721 0.881024 -0.520639
O7    O     O_R   0.493930 0.713870 0.380220 -0.507904
O8    O     O_R   0.490300 0.256770 0.308360 -0.495480
O9    O     O_R   0.509700 0.743230 0.691640 -0.494497
O10   O     O_R   0.386960 0.514660 0.655680 -0.506668
O11   O     O_R   0.613040 0.485340 0.344320 -0.496037
O12   O     O_R   0.371190 0.485310 0.344260 -0.484457
O13   O     O_R   0.628810 0.514690 0.655740 -0.484267
O14   O     O_2   0.874269 0.684225 0.144775 -0.295286
S1    S     S_3+6 0.936535 0.758902 0.305594 0.038101
S2    S     S_3+6 0.063377 0.240091 0.695716 0.038987

loop_
_geom_bond_atom_site_label_1
_geom_bond_atom_site_label_2
_ccdc_geom_bond_type
C13   O13   A    
Cu1   O13   S    
C11   O9    A    
O2    S1    D    
C1    C14   S    
C18   H1    S    
C15   H7    S    
N1    N2    D    
Cu1   O10   S    
C7    C18   S    
O3    S1    S    
C2    H3    S    
Cu1   Cu2   S    
C1    O1    A    
C6    C17   S    
C16   H4    S    
C14   H6    S    
C2    C17   S    
C11   O7    A    
C12   O10   A    
C11   C15   S    
H10   O3    S    
C3    C9    T    
Cu1   N2    S    
C16   C18   S    
Cu2   O12   S    
O4    S2    D    
H9    N2    S    
H8    N1    S    
C5    S2    S    
Cu2   O8    S    
C6    C18   S    
C2    C5    S    
C6    S1    S    
C4    C10   T    
H2    O6    S    
C7    C9    S    
C13   O11   A    
Cu2   O11   S    
C8    C16   S    
Cu1   O1    S    
C4    C13   S    
C5    C7    S    
Cu2   O7    S    
C14   C15   D    
C12   O12   A    
C5    C16   S    
C6    C8    S    
C3    C12   S    
C1    O8    A    
C7    C17   S    
O14   S1    D    
O6    S2    S    
C8    C10   S    
C2    C8    S    
Cu1   O9    S    
C17   H5    S    
O5    S2    D    
Cu2   N1    S    
