data_mof_unit_66520.cif
_audit_creation_date              2012-12-10T17:20:34-0500
_audit_creation_method            fapswitch 2.2
_symmetry_space_group_name_H-M    P1
_symmetry_Int_Tables_number       1
_space_group_crystal_system       triclinic
_cell_length_a                    10.277785
_cell_length_b                    10.671366
_cell_length_c                    13.626838
_cell_angle_alpha                 93.277966
_cell_angle_beta                  74.428678
_cell_angle_gamma                 97.667494
_cell_volume                      1426.47981044

loop_
_atom_site_label
_atom_site_type_symbol
_atom_type_description
_atom_site_fract_x
_atom_site_fract_y
_atom_site_fract_z
_atom_type_partial_charge
C1    C     C_R   0.559390 0.733486 0.493791 0.887228
C2    C     C_2   0.071717 0.486492 0.492137 0.153807
C3    C     C_1   0.445018 0.505006 0.882842 0.041853
C4    C     C_1   0.554982 0.494995 0.117158 0.041853
C5    C     C_2   0.600454 0.868366 0.484110 -0.025088
C6    C     C_2   0.399549 0.131633 0.515884 -0.025089
C7    C     C_2   0.507009 0.944271 0.526692 0.099516
C8    C     C_2   0.492997 0.055731 0.473303 0.099516
C9    C     C_3   0.306822 0.511329 0.065542 -0.831289
C10   C     C_3   0.693178 0.488671 0.934458 -0.831288
C11   C     C_R   0.440610 0.266513 0.506207 0.887230
C12   C     C_R   0.476195 0.503469 0.687974 0.908422
C13   C     C_R   0.523805 0.496531 0.312026 0.908419
C14   C     C_1   0.542753 0.495247 0.206256 -0.146964
C15   C     C_1   0.457247 0.504753 0.793744 -0.146965
C16   C     C_2   0.558423 0.495976 0.012529 0.171767
C17   C     C_2   0.441577 0.504024 0.987471 0.171768
C18   C     C_2   0.928283 0.513507 0.507863 0.153807
H1    H     H_    0.118586 0.623647 0.589294 0.198286
H2    H     H_    0.881414 0.376353 0.410706 0.198287
H3    H     H_    0.224222 0.517549 0.028198 0.250104
H4    H     H_    0.279240 0.425526 0.112789 0.255700
H5    H     H_    0.313758 0.596510 0.115528 0.250307
H6    H     H_    0.775778 0.482452 0.971802 0.250104
H7    H     H_    0.686242 0.403491 0.884472 0.250308
H8    H     H_    0.720760 0.574475 0.887210 0.255700
I1    I     I_    0.592554 0.086724 0.314934 -0.266565
I2    I     I_    0.407465 0.913286 0.685064 -0.266564
I3    I     I_    0.189385 0.063117 0.574914 -0.184916
I4    I     I_    0.810620 0.936878 0.425087 -0.184913
I5    I     I_    0.142069 0.336161 0.388698 -0.255278
I6    I     I_    0.857931 0.663838 0.611303 -0.255277
N1    N     N_2   0.847200 0.448220 0.460120 -0.195849
N2    N     N_2   0.152800 0.551780 0.539880 -0.195850
O1    O     O_R   0.430150 0.692610 0.508030 -0.590938
O2    O     O_R   0.569850 0.307390 0.491970 -0.590937
O3    O     O_R   0.653100 0.659360 0.482430 -0.567699
O4    O     O_R   0.346900 0.340640 0.517570 -0.567699
O5    O     O_R   0.372470 0.518990 0.654990 -0.594700
O6    O     O_R   0.627530 0.481010 0.345010 -0.594701
O7    O     O_R   0.595430 0.485740 0.629390 -0.583597
O8    O     O_R   0.404570 0.514260 0.370610 -0.583599
Zn1   Zn    Zn3+2 0.351130 0.522200 0.517090 1.025892
Zn2   Zn    Zn3+2 0.648870 0.477800 0.482910 1.025893

loop_
_geom_bond_atom_site_label_1
_geom_bond_atom_site_label_2
_ccdc_geom_bond_type
C4    C16   S    
C11   O4    A    
C6    C8    D    
C12   O7    A    
C2    C18   S    
O1    Zn1   S    
O6    Zn2   S    
C12   C15   S    
C1    O3    A    
C10   H8    S    
O3    Zn2   S    
C7    C8    S    
C10   C16   S    
C13   C14   S    
C9    H3    S    
C12   O5    A    
C1    C5    S    
H2    N1    S    
C10   H7    S    
C9    C17   S    
C13   O8    A    
O7    Zn2   S    
C3    C17   S    
C2    I5    S    
C4    C14   T    
C18   N1    D    
C9    H4    S    
O2    Zn2   S    
C18   I6    S    
O8    Zn1   S    
N2    Zn1   S    
O4    Zn1   S    
C6    I3    S    
C3    C15   T    
C1    O1    A    
C5    I4    S    
C6    C11   S    
C5    C7    D    
C8    I1    S    
C9    H5    S    
C13   O6    A    
O5    Zn1   S    
C10   H6    S    
C2    N2    D    
N1    Zn2   S    
C7    I2    S    
C16   C17   D    
H1    N2    S    
C11   O2    A    
