data_mof_unit_37015.cif
_audit_creation_date              2012-12-10T18:06:43-0500
_audit_creation_method            fapswitch 2.2
_symmetry_space_group_name_H-M    P1
_symmetry_Int_Tables_number       1
_space_group_crystal_system       triclinic
_cell_length_a                    12.606184
_cell_length_b                    13.079828
_cell_length_c                    15.435011
_cell_angle_alpha                 83.173234
_cell_angle_beta                  98.606517
_cell_angle_gamma                 97.067732
_cell_volume                      2484.1274663

loop_
_atom_site_label
_atom_site_type_symbol
_atom_type_description
_atom_site_fract_x
_atom_site_fract_y
_atom_site_fract_z
_atom_type_partial_charge
C1    C     C_R   0.441703 0.308460 0.506734 0.938031
C2    C     C_R   0.421504 0.442684 0.105680 0.086815
C3    C     C_R   0.312548 0.455016 0.071587 0.171840
C4    C     C_R   0.491847 0.414534 0.051420 0.070664
C5    C     C_R   0.458375 0.419831 0.959779 0.069891
C6    C     C_R   0.347899 0.426663 0.927689 -0.224172
C7    C     C_R   0.275645 0.441792 0.983549 -0.228231
C8    C     C_R   0.595283 0.384073 0.085223 -0.216419
C9    C     C_R   0.668878 0.373269 0.029151 -0.234637
C10   C     C_R   0.642839 0.396599 0.938594 0.178288
C11   C     C_R   0.537429 0.420987 0.903484 0.089802
C12   C     C_R   0.434584 0.509637 0.336213 0.900751
C13   C     C_R   0.721479 0.398726 0.882760 -0.198675
C14   C     C_R   0.697464 0.428895 0.792890 -0.192399
C15   C     C_R   0.516532 0.454340 0.814022 -0.252413
C16   C     C_R   0.641483 0.943567 0.364721 0.565088
C17   C     C_R   0.583982 0.802037 0.468966 -0.242741
C18   C     C_R   0.328449 0.157152 0.566498 -0.203047
C19   C     C_R   0.305817 0.050616 0.582498 -0.176603
C20   C     C_R   0.364257 0.985505 0.547859 -0.061658
C21   C     C_R   0.443756 0.026877 0.493599 0.067305
C22   C     C_R   0.449477 0.132882 0.463402 -0.041409
C23   C     C_R   0.556426 0.691886 0.489252 0.953650
C24   C     C_R   0.515427 0.966341 0.466135 -0.109477
C25   C     C_R   0.573964 0.006114 0.395177 -0.129859
C26   C     C_R   0.561821 0.106241 0.354814 -0.274642
C27   C     C_R   0.500784 0.169398 0.388594 0.574689
C28   C     C_R   0.532300 0.867965 0.508282 0.563085
C29   C     C_R   0.640941 0.839745 0.398646 -0.368367
C30   C     C_R   0.402811 0.198754 0.509013 -0.094528
C31   C     C_R   0.138884 0.642895 0.621769 -0.314615
C32   C     C_R   0.757327 0.379670 0.396056 0.009165
C33   C     C_R   0.852443 0.353288 0.374347 -0.270731
C34   C     C_R   0.563520 0.484280 0.664174 0.865487
C35   C     C_R   0.950292 0.398681 0.414082 -0.184281
C36   C     C_R   0.952763 0.471151 0.475847 0.017945
C37   C     C_R   0.853507 0.495000 0.495738 0.230216
C38   C     C_R   0.049051 0.520819 0.518322 -0.012487
C39   C     C_R   0.044362 0.593000 0.579474 0.192690
C40   C     C_R   0.945489 0.614778 0.597674 -0.288528
C41   C     C_R   0.851320 0.566297 0.556195 -0.215052
C42   C     C_R   0.150717 0.502101 0.502564 -0.060506
C43   C     C_R   0.236951 0.620844 0.603101 0.016969
C44   C     C_R   0.391136 0.496585 0.244453 -0.040070
C45   C     C_R   0.594915 0.458039 0.758546 -0.050882
C46   C     C_R   0.242969 0.483190 0.125538 -0.199487
C47   C     C_R   0.281967 0.503251 0.211972 -0.198774
C48   C     C_R   0.459609 0.467327 0.190947 -0.179056
H1    H     H_    0.191911 0.448205 0.956780 0.145359
H2    H     H_    0.801819 0.378684 0.908807 0.136599
H3    H     H_    0.681749 0.788235 0.368104 0.203883
H4    H     H_    0.600312 0.136593 0.297491 0.191144
H5    H     H_    0.289608 0.206866 0.600463 0.160983
H6    H     H_    0.343034 0.903290 0.561508 0.190512
H7    H     H_    0.246175 0.018426 0.624779 0.146768
H8    H     H_    0.311522 0.658411 0.634809 0.170200
H9    H     H_    0.439952 0.481453 0.786915 0.163408
H10   H     H_    0.940840 0.669626 0.644068 0.159926
H11   H     H_    0.136851 0.698119 0.668429 0.148297
H12   H     H_    0.163064 0.449160 0.457647 0.128337
H13   H     H_    0.680850 0.345307 0.365210 0.182225
H14   H     H_    0.021827 0.375620 0.394918 0.137246
H15   H     H_    0.850366 0.298104 0.326935 0.137565
H16   H     H_    0.777857 0.586361 0.572597 0.218984
H17   H     H_    0.758928 0.429856 0.750622 0.163915
H18   H     H_    0.748082 0.351554 0.057048 0.144878
H19   H     H_    0.159021 0.491025 0.100528 0.137153
H20   H     H_    0.227075 0.524026 0.253037 0.159198
H21   H     H_    0.544188 0.467381 0.215804 0.159459
H22   H     H_    0.315061 0.418782 0.859789 0.148619
H23   H     H_    0.620472 0.366603 0.154895 0.155760
N1    N     N_R   0.239390 0.551900 0.544730 -0.107902
N2    N     N_R   0.759950 0.448600 0.455730 -0.131464
O1    O     O_R   0.374950 0.371210 0.521360 -0.631948
O2    O     O_R   0.542050 0.338030 0.492790 -0.578510
O3    O     O_R   0.368720 0.526070 0.390200 -0.629141
O4    O     O_R   0.535820 0.492890 0.361630 -0.597215
O5    O     O_R   0.457950 0.661970 0.507210 -0.569959
O6    O     O_R   0.625050 0.628790 0.478640 -0.649194
O7    O     O_R   0.464180 0.507110 0.638370 -0.614740
O8    O     O_R   0.631280 0.473930 0.609800 -0.642443
Zn1   Zn    Zn3+2 0.388420 0.522150 0.519080 0.955186
Zn2   Zn    Zn3+2 0.611580 0.477850 0.480920 0.949419
O9    O     O_3   0.698180 0.979211 0.295015 -0.613219
C49   C     C_3   0.796928 0.035434 0.326548 0.080181
H24   H     H_    0.791266 0.080450 0.382480 0.126916
H25   H     H_    0.820723 0.093087 0.272134 0.165882
C50   C     C_3   0.885813 0.963810 0.352593 -0.845453
H26   H     H_    0.891533 0.918978 0.297021 0.268559
H27   H     H_    0.964382 0.010460 0.369486 0.219055
H28   H     H_    0.868724 0.909344 0.410919 0.248219
F1    F     F_    0.500263 0.834343 0.588070 -0.692618
F2    F     F_    0.484980 0.263168 0.343589 -0.698646

loop_
_geom_bond_atom_site_label_1
_geom_bond_atom_site_label_2
_ccdc_geom_bond_type
C43   N1    A    
C17   C29   A    
C35   C36   A    
C48   H21   S    
C4    C8    A    
C49   H24   S    
C26   C27   A    
C17   C23   S    
C31   C43   A    
C1    O1    A    
C36   C37   A    
C32   H13   S    
C5    C11   A    
C3    C7    A    
C38   C39   A    
O4    Zn2   S    
C16   O9    S    
C18   C19   A    
C31   H11   S    
C9    H18   S    
C18   H5    S    
C34   O7    A    
C11   C15   A    
C19   C20   A    
C8    C9    A    
C18   C30   A    
C34   O8    A    
C9    C10   A    
C44   C47   A    
C50   H26   S    
C21   C22   A    
C15   H9    S    
O1    Zn1   S    
O8    Zn2   S    
C14   C45   A    
C49   H25   S    
C40   H10   S    
C1    O2    A    
O9    C49   S    
C7    H1    S    
C20   H6    S    
O3    Zn1   S    
C39   C40   A    
C2    C48   A    
C25   C26   A    
C2    C4    A    
C26   H4    S    
O5    Zn1   S    
C50   H28   S    
C33   H15   S    
C12   O4    A    
C42   N1    A    
C28   F1    S    
C34   C45   S    
C24   C25   A    
O7    Zn1   S    
C40   C41   A    
C50   H27   S    
C22   C27   A    
C12   O3    A    
C27   F2    S    
C15   C45   A    
C42   H12   S    
C47   H20   S    
C32   N2    A    
C29   H3    S    
C49   C50   S    
C19   H7    S    
C16   C25   A    
C6    H22   S    
C37   N2    A    
C46   C47   A    
C8    H23   S    
C22   C30   A    
C17   C28   A    
C24   C28   A    
C4    C5    A    
C10   C13   A    
C38   C42   A    
C6    C7    A    
C3    C46   A    
C32   C33   A    
C36   C38   A    
C2    C3    A    
C16   C29   A    
C46   H19   S    
C12   C44   S    
O6    Zn2   S    
O2    Zn2   S    
C5    C6    A    
C1    C30   S    
C33   C35   A    
C14   H17   S    
C31   C39   A    
C35   H14   S    
C23   O5    A    
C37   C41   A    
C10   C11   A    
C13   H2    S    
C43   H8    S    
C20   C21   A    
C21   C24   A    
C41   H16   S    
C23   O6    A    
C13   C14   A    
N2    Zn2   S    
N1    Zn1   S    
C44   C48   A    
