data_mof_unit_11925.cif
_audit_creation_date              2012-12-10T17:24:43-0500
_audit_creation_method            fapswitch 2.2
_symmetry_space_group_name_H-M    P1
_symmetry_Int_Tables_number       1
_space_group_crystal_system       triclinic
_cell_length_a                    23.545459
_cell_length_b                    10.863275
_cell_length_c                    9.642557
_cell_angle_alpha                 88.847181
_cell_angle_beta                  91.616662
_cell_angle_gamma                 93.561444
_cell_volume                      2460.22088187

loop_
_atom_site_label
_atom_site_type_symbol
_atom_type_description
_atom_site_fract_x
_atom_site_fract_y
_atom_site_fract_z
_atom_type_partial_charge
C1    C     C_R   0.501591 0.262134 0.502883 0.792808
C2    C     C_R   0.966813 0.289968 0.667479 -0.015530
C3    C     C_R   0.027412 0.297028 0.676921 0.118965
C4    C     C_R   0.059226 0.382916 0.590311 -0.051015
C5    C     C_R   0.029822 0.470546 0.510279 -0.050046
C6    C     C_R   0.060445 0.559666 0.428067 -0.004469
C7    C     C_R   0.031700 0.650539 0.354351 -0.153838
C8    C     C_R   0.973147 0.654084 0.361387 -0.153993
C9    C     C_R   0.119695 0.387072 0.581896 0.557243
C10   C     C_R   0.119500 0.557262 0.421601 0.539847
C11   C     C_R   0.240529 0.588750 0.531695 -0.075164
C12   C     C_R   0.391401 0.498043 0.498308 0.775033
C13   C     C_R   0.299977 0.597922 0.526107 -0.089818
C14   C     C_R   0.329000 0.492221 0.494399 -0.106078
C15   C     C_R   0.297706 0.380097 0.462877 0.120694
C16   C     C_R   0.238163 0.376116 0.460950 -0.086406
C17   C     C_R   0.209384 0.479128 0.497504 0.250560
C18   C     C_R   0.760584 0.462488 0.628860 -0.096340
C19   C     C_R   0.701509 0.466374 0.627875 -0.226199
C20   C     C_R   0.671103 0.487777 0.503216 -0.036986
C21   C     C_R   0.700667 0.497440 0.378402 -0.218147
C22   C     C_R   0.759461 0.488697 0.378857 -0.095192
C23   C     C_R   0.495204 0.736250 0.499182 0.759439
C24   C     C_R   0.790116 0.473861 0.504390 0.346744
C25   C     C_R   0.491083 0.106121 0.770156 -0.234473
C26   C     C_R   0.467710 0.039843 0.882106 -0.166937
C27   C     C_R   0.442924 0.921520 0.863473 0.233451
C28   C     C_R   0.446969 0.866104 0.735038 -0.124952
C29   C     C_R   0.474572 0.929261 0.623021 0.056274
C30   C     C_R   0.489247 0.056609 0.634734 0.107893
C31   C     C_R   0.501947 0.126824 0.510866 -0.096493
C32   C     C_R   0.509226 0.065626 0.386847 -0.214313
C33   C     C_R   0.503861 0.938674 0.382471 -0.210742
C34   C     C_R   0.608804 0.496499 0.501399 0.784041
C35   C     C_R   0.488609 0.869212 0.500260 -0.101325
C36   C     C_R   0.561460 0.688457 0.146668 -0.132236
C37   C     C_R   0.573621 0.801099 0.080792 -0.271110
C38   C     C_R   0.566665 0.810383 0.938620 -0.171985
C39   C     C_R   0.560283 0.701057 0.863803 0.232654
C40   C     C_R   0.530548 0.595046 0.926857 0.145777
C41   C     C_R   0.530680 0.592551 0.076006 0.127980
C42   C     C_R   0.468848 0.412998 0.070846 0.257597
C43   C     C_R   0.469777 0.413567 0.923785 -0.078669
C44   C     C_R   0.882548 0.566290 0.442729 0.540147
C45   C     C_R   0.877314 0.376069 0.570615 0.524539
C46   C     C_R   0.937707 0.377708 0.584951 -0.122351
C47   C     C_R   0.969775 0.470848 0.512141 -0.016456
C48   C     C_R   0.941727 0.564258 0.438360 0.004705
Cu1   Cu    Cu3+1 0.500000 0.499990 0.640660 0.931786
Cu2   Cu    Cu3+1 0.500000 0.500010 0.359340 0.934010
H1    H     H_    0.679908 0.451293 0.724617 0.149499
H2    H     H_    0.678442 0.511604 0.280047 0.159836
H3    H     H_    0.781295 0.494929 0.281392 0.152667
H4    H     H_    0.520805 0.115774 0.292736 0.156071
H5    H     H_    0.513264 0.192381 0.795905 0.180508
H6    H     H_    0.469069 0.081239 0.983424 0.136224
H7    H     H_    0.427889 0.773691 0.724671 0.161823
H8    H     H_    0.512354 0.894792 0.286489 0.172409
H9    H     H_    0.576192 0.680610 0.251918 0.201617
H10   H     H_    0.592395 0.878638 0.138402 0.161782
H11   H     H_    0.582534 0.895408 0.888390 0.162405
H12   H     H_    0.445072 0.343642 0.865859 0.154911
H13   H     H_    0.054429 0.720386 0.291950 0.194426
H14   H     H_    0.952486 0.726261 0.303881 0.195301
H15   H     H_    0.217844 0.668078 0.559435 0.197467
H16   H     H_    0.213970 0.291587 0.433363 0.171440
H17   H     H_    0.783412 0.450241 0.726737 0.147919
N1    N     N_R   0.851346 0.471933 0.505827 -0.458022
N2    N     N_R   0.148048 0.473413 0.499374 -0.455644
N3    N     N_R   0.500540 0.501210 0.147910 -0.190749
N4    N     N_R   0.500560 0.501290 0.852040 -0.213265
O1    O     O_R   0.500000 0.319640 0.618810 -0.593616
O2    O     O_2   0.844513 0.278662 0.617243 -0.546419
O3    O     O_2   0.150364 0.305819 0.654322 -0.548005
O4    O     O_2   0.148357 0.637923 0.336967 -0.534728
O5    O     O_R   0.500000 0.319660 0.381240 -0.577720
O6    O     O_R   0.417880 0.499950 0.618810 -0.573167
O7    O     O_R   0.417880 0.499980 0.381240 -0.574733
O8    O     O_R   0.500000 0.680340 0.618760 -0.589391
O9    O     O_R   0.500000 0.680360 0.381190 -0.592135
O10   O     O_R   0.582120 0.500020 0.618760 -0.581467
O11   O     O_R   0.582120 0.500050 0.381190 -0.597394
O12   O     O_2   0.856328 0.662341 0.384387 -0.536327
C49   C     C_2   0.934354 0.193067 0.748602 0.461990
H18   H     H_    0.902965 0.218450 0.821423 0.089643
O13   O     O_2   0.942122 0.084172 0.732911 -0.510881
C50   C     C_3   0.414957 0.851091 0.981317 -0.826327
H19   H     H_    0.416464 0.906088 0.077411 0.229107
H20   H     H_    0.369718 0.826570 0.952751 0.252200
H21   H     H_    0.436953 0.765104 0.003364 0.233062
C51   C     C_3   0.432022 0.311093 0.136395 -0.789471
H22   H     H_    0.399539 0.271733 0.061132 0.190746
H23   H     H_    0.458238 0.234601 0.170121 0.219201
H24   H     H_    0.407900 0.343797 0.222468 0.272452
C52   C     C_3   0.057393 0.218834 0.785844 -0.670091
H25   H     H_    0.087945 0.278233 0.848515 0.240859
H26   H     H_    0.028858 0.173863 0.863524 0.211446
H27   H     H_    0.079448 0.145128 0.735064 0.270335
C53   C     C_3   0.611861 0.689378 0.777551 -0.741822
H28   H     H_    0.602659 0.709409 0.666551 0.238151
H29   H     H_    0.647779 0.756445 0.806361 0.197952
H30   H     H_    0.629587 0.599430 0.800772 0.221927
C54   C     C_2   0.330917 0.719481 0.547789 0.388395
H31   H     H_    0.374800 0.734344 0.518051 0.035808
O14   O     O_2   0.307478 0.805172 0.596913 -0.534968
C55   C     C_3   0.325524 0.262133 0.433756 -0.826495
H32   H     H_    0.372434 0.269898 0.448143 0.220140
H33   H     H_    0.309119 0.187887 0.505598 0.257561
H34   H     H_    0.315033 0.234124 0.325472 0.234635

loop_
_geom_bond_atom_site_label_1
_geom_bond_atom_site_label_2
_ccdc_geom_bond_type
C9    O3    S    
C44   C48   A    
C50   H19   S    
C17   N2    S    
C33   H8    S    
C40   N4    A    
C2    C49   S    
C52   H25   S    
C42   N3    A    
C36   H9    S    
C52   H27   S    
C7    C8    A    
C28   H7    S    
C2    C46   A    
C5    C47   A    
C26   C27   A    
C37   C38   A    
C18   C24   A    
C5    C6    A    
C15   C55   S    
C36   C37   A    
C49   O13   D    
C18   C19   A    
C30   C31   A    
C55   H32   S    
C15   C16   A    
C1    C31   S    
C45   O2    S    
C42   C51   S    
Cu1   O10   S    
C11   C17   A    
C31   C32   A    
C16   C17   A    
Cu1   O1    S    
C12   O7    A    
C34   O10   A    
C23   O9    A    
C13   C54   S    
C38   H11   S    
C20   C34   S    
C44   O12   S    
C21   C22   A    
C36   C41   A    
Cu2   O7    S    
C32   H4    S    
C22   H3    S    
C1    O1    A    
C49   H18   S    
C51   H22   S    
C18   H17   S    
C45   C46   A    
Cu1   O8    S    
Cu2   O9    S    
C8    C48   A    
C29   C30   A    
Cu2   O5    S    
C51   H23   S    
C10   O4    S    
C39   C53   S    
C47   C48   A    
C12   O6    A    
C45   N1    A    
C54   O14   D    
C27   C50   S    
C7    H13   S    
C8    H14   S    
C40   C41   A    
C53   H29   S    
C12   C14   S    
C23   C35   S    
C50   H20   S    
C22   C24   A    
C44   N1    A    
C16   H16   S    
C42   C43   A    
C3    C4    A    
C39   C40   A    
Cu2   O11   S    
C25   C30   A    
C46   C47   A    
C28   C29   A    
C43   N4    A    
C1    O5    A    
C25   H5    S    
C9    N2    A    
C4    C5    A    
C26   H6    S    
C6    C10   A    
C52   H26   S    
C6    C7    A    
C29   C35   A    
C53   H28   S    
C32   C33   A    
C19   C20   A    
C2    C3    A    
C25   C26   A    
C51   H24   S    
C11   C13   A    
C38   C39   A    
C55   H33   S    
C33   C35   A    
Cu1   O6    S    
Cu2   N3    S    
C37   H10   S    
C24   N1    S    
C10   N2    A    
C19   H1    S    
C53   H30   S    
C20   C21   A    
Cu1   Cu2   S    
Cu1   N4    S    
C50   H21   S    
C54   H31   S    
C14   C15   A    
C3    C52   S    
C34   O11   A    
C23   O8    A    
C4    C9    A    
C13   C14   A    
C21   H2    S    
C11   H15   S    
C43   H12   S    
C41   N3    A    
C27   C28   A    
C55   H34   S    
