data_mof_unit_38735.cif
_audit_creation_date              2012-12-10T18:04:40-0500
_audit_creation_method            fapswitch 2.2
_symmetry_space_group_name_H-M    P1
_symmetry_Int_Tables_number       1
_space_group_crystal_system       triclinic
_cell_length_a                    19.185805
_cell_length_b                    17.972927
_cell_length_c                    12.703852
_cell_angle_alpha                 88.84825
_cell_angle_beta                  99.602412
_cell_angle_gamma                 90.487168
_cell_volume                      4318.29852092

loop_
_atom_site_label
_atom_site_type_symbol
_atom_type_description
_atom_site_fract_x
_atom_site_fract_y
_atom_site_fract_z
_atom_type_partial_charge
C1    C     C_R   0.411457 0.103010 0.443223 0.979574
C2    C     C_R   0.753941 0.747951 0.635759 -0.227715
C3    C     C_3   0.254900 0.222658 0.089870 -0.173286
C4    C     C_3   0.842836 0.191700 0.154663 -0.307836
C5    C     C_3   0.754901 0.722658 0.089870 -0.173292
C6    C     C_3   0.240600 0.994229 0.395148 -0.199372
C7    C     C_3   0.457127 0.284297 0.552021 -0.213970
C8    C     C_3   0.740599 0.494229 0.395149 -0.199371
C9    C     C_3   0.957127 0.784297 0.552022 -0.213970
C10   C     C_3   0.735916 0.986297 0.326425 -0.073921
C11   C     C_3   0.235916 0.486297 0.326425 -0.073921
C12   C     C_R   0.195627 0.810891 0.592097 -0.228479
C13   C     C_R   0.253942 0.247952 0.635759 -0.227719
C14   C     C_R   0.226830 0.881202 0.591418 0.613695
C15   C     C_R   0.325557 0.230916 0.659685 0.605032
C16   C     C_R   0.726830 0.381202 0.591418 0.613692
C17   C     C_R   0.825557 0.730915 0.659686 0.605038
C18   C     C_R   0.267818 0.898717 0.512941 0.471556
C19   C     C_R   0.362176 0.215151 0.578118 0.497050
C20   C     C_R   0.767818 0.398717 0.512942 0.471555
C21   C     C_R   0.407135 0.901571 0.441957 0.896104
C22   C     C_R   0.862176 0.715151 0.578118 0.497049
C23   C     C_R   0.645914 0.209649 0.483707 0.560664
C24   C     C_R   0.653091 0.787513 0.505242 0.460171
C25   C     C_R   0.145914 0.709649 0.483707 0.560664
C26   C     C_R   0.153091 0.287513 0.505243 0.460171
C27   C     C_R   0.630493 0.214274 0.669180 0.544483
C28   C     C_R   0.659395 0.814791 0.692809 0.599385
C29   C     C_R   0.130494 0.714274 0.669180 0.544482
C30   C     C_R   0.159395 0.314791 0.692809 0.599387
C31   C     C_R   0.351800 0.846959 0.404977 -0.103591
C32   C     C_R   0.911457 0.603010 0.443223 0.979575
C33   C     C_R   0.357946 0.159057 0.403636 -0.142948
C34   C     C_R   0.851800 0.346959 0.404977 -0.103591
C35   C     C_R   0.857946 0.659057 0.403636 -0.142947
C36   C     C_R   0.635663 0.947609 0.142610 0.520455
C37   C     C_R   0.135663 0.447609 0.142610 0.520454
C38   C     C_R   0.378205 0.011882 0.762333 0.651211
C39   C     C_R   0.878205 0.511882 0.762333 0.651218
C40   C     C_R   0.349733 0.004252 0.855640 0.250647
C41   C     C_R   0.849733 0.504253 0.855640 0.250650
C42   C     C_R   0.587295 0.895832 0.555476 0.909706
C43   C     C_R   0.907135 0.401571 0.441957 0.896105
C44   C     C_R   0.586710 0.104670 0.553281 0.917700
C45   C     C_R   0.087295 0.395832 0.555476 0.909706
C46   C     C_R   0.086710 0.604670 0.553281 0.917700
C47   C     C_R   0.393867 0.984924 0.950761 0.439041
C48   C     C_R   0.893867 0.484924 0.950761 0.439035
C49   C     C_R   0.468168 0.985291 0.954391 -0.174181
C50   C     C_R   0.968168 0.485291 0.954391 -0.174178
C51   C     C_R   0.494640 0.988131 0.856162 -0.143105
C52   C     C_R   0.994640 0.488131 0.856162 -0.143107
C53   C     C_R   0.517410 0.981842 0.051067 -0.220537
C54   C     C_R   0.697921 0.264329 0.504888 -0.061046
C55   C     C_R   0.017410 0.481842 0.051067 -0.220537
C56   C     C_R   0.586457 0.955610 0.048802 -0.354683
C57   C     C_R   0.086457 0.455610 0.048802 -0.354683
C58   C     C_R   0.608120 0.945383 0.951728 0.636057
C59   C     C_R   0.108120 0.445383 0.951728 0.636056
C60   C     C_R   0.568653 0.977477 0.859792 0.536880
C61   C     C_R   0.068653 0.477477 0.859792 0.536880
C62   C     C_R   0.502553 0.006243 0.149174 0.697213
C63   C     C_R   0.002553 0.506243 0.149174 0.697213
C64   C     C_R   0.619055 0.974863 0.237321 0.417780
C65   C     C_R   0.717806 0.748188 0.527654 -0.033513
C66   C     C_R   0.119055 0.474863 0.237321 0.417779
C67   C     C_R   0.660987 0.285500 0.674981 -0.222027
C68   C     C_R   0.720343 0.773254 0.717759 -0.211935
C69   C     C_R   0.160987 0.785501 0.674981 -0.222027
C70   C     C_R   0.220343 0.273254 0.717759 -0.211941
C71   C     C_R   0.625175 0.174850 0.572991 -0.306374
C72   C     C_R   0.632173 0.830668 0.585964 -0.360518
C73   C     C_R   0.125175 0.674851 0.572991 -0.306373
C74   C     C_R   0.132173 0.330668 0.585964 -0.360517
C75   C     C_R   0.365327 0.793358 0.332313 -0.442119
C76   C     C_R   0.197921 0.764330 0.504888 -0.061046
C77   C     C_R   0.328769 0.159886 0.295150 -0.407795
C78   C     C_R   0.865327 0.293358 0.332313 -0.442119
C79   C     C_R   0.828769 0.659887 0.295150 -0.407797
C80   C     C_R   0.326190 0.727070 0.321099 0.507185
C81   C     C_R   0.259660 0.183874 0.262450 0.431410
C82   C     C_R   0.826190 0.227070 0.321099 0.507185
C83   C     C_R   0.759661 0.683875 0.262450 0.431411
C84   C     C_R   0.274331 0.715100 0.384501 0.534141
C85   C     C_R   0.219389 0.201770 0.340252 0.673902
C86   C     C_R   0.774331 0.215100 0.384501 0.534141
C87   C     C_R   0.217806 0.248189 0.527654 -0.033510
C88   C     C_R   0.719389 0.701770 0.340252 0.673903
C89   C     C_R   0.252646 0.773337 0.444590 -0.167844
C90   C     C_R   0.252242 0.216616 0.447287 -0.148056
C91   C     C_R   0.752646 0.273337 0.444591 -0.167845
C92   C     C_R   0.752241 0.716616 0.447287 -0.148056
C93   C     C_R   0.290917 0.840630 0.453136 -0.215962
C94   C     C_R   0.324681 0.197955 0.475980 -0.212353
C95   C     C_R   0.790917 0.340630 0.453136 -0.215961
C96   C     C_R   0.824681 0.697955 0.475980 -0.212354
C97   C     C_3   0.363186 0.884711 0.045080 -0.226177
C98   C     C_R   0.695627 0.310891 0.592098 -0.228479
C99   C     C_3   0.863186 0.384711 0.045078 -0.226177
C100  C     C_3   0.261288 0.079070 0.886139 -0.097375
C101  C     C_3   0.761288 0.579069 0.886148 -0.097389
C102  C     C_3   0.667955 0.034050 0.807648 -0.098643
C103  C     C_3   0.167955 0.534050 0.807648 -0.098640
C104  C     C_3   0.610800 0.208250 0.298894 -0.167108
C105  C     C_3   0.549279 0.757168 0.400514 -0.064800
C106  C     C_3   0.110800 0.708250 0.298894 -0.167108
C107  C     C_3   0.049279 0.257168 0.400515 -0.064801
C108  C     C_3   0.342836 0.691700 0.154663 -0.307837
F1    F     F_    0.600612 0.187941 0.752143 -0.628392
F2    F     F_    0.941913 0.541662 0.158112 -0.627599
F3    F     F_    0.334688 0.030064 0.671050 -0.564200
F4    F     F_    0.834688 0.530064 0.671050 -0.564198
F5    F     F_    0.213205 0.933881 0.660158 -0.587156
F6    F     F_    0.362171 0.239086 0.760113 -0.649382
F7    F     F_    0.713205 0.433881 0.660159 -0.587155
F8    F     F_    0.862170 0.739085 0.760114 -0.649383
F9    F     F_    0.748568 0.145249 0.392137 -0.715541
F10   F     F_    0.649407 0.689143 0.312524 -0.631204
F11   F     F_    0.248568 0.645249 0.392137 -0.715541
F12   F     F_    0.630547 0.843755 0.772785 -0.617728
F13   F     F_    0.149407 0.189143 0.312524 -0.631204
F14   F     F_    0.100612 0.687941 0.752143 -0.628392
F15   F     F_    0.130547 0.343756 0.772785 -0.617728
F16   F     F_    0.672435 0.915415 0.947991 -0.592000
F17   F     F_    0.172435 0.415415 0.947991 -0.592000
F18   F     F_    0.698599 0.913874 0.141630 -0.637568
F19   F     F_    0.198599 0.413874 0.141630 -0.637569
F20   F     F_    0.441913 0.041662 0.158112 -0.627598
H1    H     H_    0.660099 0.318753 0.744911 0.229216
H2    H     H_    0.334958 0.859253 0.970587 0.154059
H3    H     H_    0.334892 0.867473 0.110975 0.185344
H4    H     H_    0.918012 0.362948 0.064821 0.144262
H5    H     H_    0.834958 0.359253 0.970585 0.154059
H6    H     H_    0.834892 0.367472 0.110973 0.185344
H7    H     H_    0.279370 0.124277 0.835726 0.159205
H8    H     H_    0.284445 0.086743 0.971527 0.180141
H9    H     H_    0.203064 0.083650 0.878971 0.188864
H10   H     H_    0.779376 0.624279 0.835745 0.159200
H11   H     H_    0.784442 0.586735 0.971538 0.180156
H12   H     H_    0.744814 0.767761 0.800821 0.216694
H13   H     H_    0.703064 0.583651 0.878973 0.188865
H14   H     H_    0.711434 0.992945 0.821680 0.207333
H15   H     H_    0.668360 0.070009 0.878198 0.141956
H16   H     H_    0.679978 0.070096 0.741409 0.147427
H17   H     H_    0.211434 0.492945 0.821680 0.207333
H18   H     H_    0.168360 0.570009 0.878198 0.141955
H19   H     H_    0.179978 0.570096 0.741409 0.147426
H20   H     H_    0.562630 0.211409 0.237126 0.178649
H21   H     H_    0.632061 0.151330 0.294922 0.211181
H22   H     H_    0.647259 0.252150 0.277653 0.139428
H23   H     H_    0.160099 0.818753 0.744911 0.229216
H24   H     H_    0.513705 0.788887 0.443255 0.079152
H25   H     H_    0.555357 0.699488 0.434547 0.169666
H26   H     H_    0.523588 0.752719 0.315997 0.197773
H27   H     H_    0.062630 0.711409 0.237126 0.178648
H28   H     H_    0.132061 0.651330 0.294922 0.211180
H29   H     H_    0.147259 0.752150 0.277653 0.139428
H30   H     H_    0.013705 0.288887 0.443256 0.079152
H31   H     H_    0.055358 0.199488 0.434548 0.169666
H32   H     H_    0.023588 0.252718 0.315998 0.197773
H33   H     H_    0.391145 0.723959 0.145436 0.160911
H34   H     H_    0.244814 0.267762 0.800821 0.216694
H35   H     H_    0.294373 0.724174 0.122867 0.143479
H36   H     H_    0.342072 0.641439 0.105210 0.211278
H37   H     H_    0.309642 0.206554 0.082323 0.147204
H38   H     H_    0.253929 0.281247 0.116427 0.233721
H39   H     H_    0.222288 0.220025 0.009226 0.195178
H40   H     H_    0.891145 0.223959 0.145436 0.160911
H41   H     H_    0.794373 0.224174 0.122867 0.143479
H42   H     H_    0.842072 0.141439 0.105210 0.211277
H43   H     H_    0.809642 0.706553 0.082322 0.147204
H44   H     H_    0.753931 0.781247 0.116427 0.233721
H45   H     H_    0.410100 0.800087 0.291515 0.178252
H46   H     H_    0.722288 0.720026 0.009226 0.195180
H47   H     H_    0.240785 0.055472 0.389698 0.196774
H48   H     H_    0.184251 0.976617 0.389765 0.156227
H49   H     H_    0.263131 0.972901 0.326525 0.158294
H50   H     H_    0.430675 0.334183 0.577673 0.151878
H51   H     H_    0.447832 0.281207 0.463451 0.161458
H52   H     H_    0.514535 0.292049 0.578286 0.211030
H53   H     H_    0.740785 0.555472 0.389698 0.196773
H54   H     H_    0.684249 0.476619 0.389769 0.156229
H55   H     H_    0.763127 0.472899 0.326525 0.158292
H56   H     H_    0.355359 0.132839 0.237735 0.261440
H57   H     H_    0.930674 0.834183 0.577674 0.151877
H58   H     H_    0.947832 0.781207 0.463451 0.161459
H59   H     H_    0.014534 0.792049 0.578287 0.211030
H60   H     H_    0.741260 0.029915 0.264646 0.190472
H61   H     H_    0.764125 0.934655 0.312650 0.186804
H62   H     H_    0.762561 0.007095 0.404553 0.204851
H63   H     H_    0.241261 0.529915 0.264646 0.190473
H64   H     H_    0.264125 0.434655 0.312651 0.186804
H65   H     H_    0.262561 0.507095 0.404553 0.204851
H66   H     H_    0.910100 0.300087 0.291515 0.178253
H67   H     H_    0.855360 0.632840 0.237735 0.261439
H68   H     H_    0.418012 0.862949 0.064823 0.144261
N1    N     N_R   0.552340 1.000000 0.237260 -0.235086
N2    N     N_R   0.052340 0.500000 0.237260 -0.235086
N3    N     N_R   0.448170 1.000000 0.762060 -0.175853
N4    N     N_R   0.948170 0.500000 0.762060 -0.175855
O1    O     O_R   0.448200 0.076800 0.373930 -0.585595
O2    O     O_R   0.585240 0.076800 0.457600 -0.573439
O3    O     O_R   0.085240 0.423200 0.457600 -0.523289
O4    O     O_R   0.085240 0.576800 0.457600 -0.573439
O5    O     O_R   0.551780 0.923190 0.626070 -0.533717
O6    O     O_R   0.551780 0.076810 0.626070 -0.497571
O7    O     O_R   0.051780 0.423190 0.626070 -0.533717
O8    O     O_R   0.051780 0.576810 0.626070 -0.497571
O9    O     O_3   0.362736 0.963055 0.037158 -0.514215
O10   O     O_3   0.862736 0.463055 0.037158 -0.514220
O11   O     O_3   0.277440 0.008324 0.851157 -0.508503
O12   O     O_R   0.448200 0.923200 0.373930 -0.617945
O13   O     O_3   0.777440 0.508326 0.851156 -0.508502
O14   O     O_3   0.601877 0.998156 0.775281 -0.535031
O15   O     O_3   0.101877 0.498156 0.775281 -0.535031
O16   O     O_3   0.590833 0.221249 0.398502 -0.630425
O17   O     O_3   0.615378 0.793377 0.402910 -0.536949
O18   O     O_3   0.090833 0.721249 0.398502 -0.630425
O19   O     O_3   0.115378 0.293377 0.402910 -0.536949
O20   O     O_3   0.344629 0.668620 0.261914 -0.576093
O21   O     O_3   0.225924 0.173146 0.158792 -0.568961
O22   O     O_3   0.844629 0.168620 0.261914 -0.576093
O23   O     O_R   0.948200 0.576800 0.373930 -0.585595
O24   O     O_3   0.725925 0.673147 0.158792 -0.568962
O25   O     O_3   0.282334 0.972426 0.492796 -0.527293
O26   O     O_3   0.435287 0.218077 0.599015 -0.556951
O27   O     O_3   0.782335 0.472426 0.492797 -0.527293
O28   O     O_3   0.935287 0.718076 0.599015 -0.556950
O29   O     O_3   0.664869 0.970058 0.334381 -0.559293
O30   O     O_3   0.164869 0.470059 0.334381 -0.559293
O31   O     O_R   0.948200 0.423200 0.373930 -0.617944
O32   O     O_R   0.414750 0.076790 0.542400 -0.508716
O33   O     O_R   0.414750 0.923210 0.542400 -0.584215
O34   O     O_R   0.914750 0.576790 0.542400 -0.508717
O35   O     O_R   0.914750 0.423210 0.542400 -0.584216
O36   O     O_R   0.585240 0.923200 0.457600 -0.523289
Zn1   Zn    Zn3+2 0.522330 0.000000 0.387520 1.059133
Zn2   Zn    Zn3+2 0.022330 0.500000 0.387520 1.059133
Zn3   Zn    Zn3+2 0.477660 1.000000 0.612480 1.117410
Zn4   Zn    Zn3+2 0.977660 0.500000 0.612480 1.117410

loop_
_geom_bond_atom_site_label_1
_geom_bond_atom_site_label_2
_ccdc_geom_bond_type
C8    H53   S    
C65   C92   A    
C105  H25   S    
C12   C69   A    
C49   C53   A    
C103  H17   S    
C40   C47   A    
O35   Zn4   S    
C104  H20   S    
C80   C84   A    
C2    C65   A    
C1    O1    A    
C33   C94   A    
O8    Zn4   S    
O2    Zn1   S    
C61   O15   S    
C107  H32   S    
C101  H11   S    
C1    C33   S    
C47   C49   A    
C32   O34   A    
C35   C96   A    
C15   C19   A    
C108  H36   S    
C40   O11   S    
C24   C72   A    
C10   H62   S    
C20   O27   S    
C97   O9    S    
C99   H4    S    
C42   O5    A    
O31   Zn2   S    
C97   H68   S    
C28   C68   A    
C19   O26   S    
C97   H2    S    
C9    H57   S    
C52   C61   A    
C64   O29   S    
C30   C74   A    
C43   O31   A    
C57   C59   A    
C22   O28   S    
C6    H47   S    
C58   C60   A    
C6    O25   S    
C92   C96   A    
C77   H56   S    
C79   H67   S    
O36   Zn1   S    
C99   H5    S    
C44   C71   S    
C11   H64   S    
C78   H66   S    
C104  H22   S    
O5    Zn3   S    
C14   C18   A    
C99   H6    S    
O3    Zn2   S    
C60   O14   S    
N2    Zn2   S    
C67   C98   A    
C26   C74   A    
C2    C68   A    
C101  H13   S    
C102  O14   S    
C21   O33   A    
C88   C92   A    
C101  O13   S    
C26   C87   A    
C49   C51   A    
C55   C63   A    
O32   Zn3   S    
C50   C52   A    
C85   F13   S    
O6    Zn3   S    
C52   N4    A    
C9    O28   S    
C75   C80   A    
C11   H63   S    
O12   Zn1   S    
C100  H7    S    
C45   O3    A    
C76   C89   A    
C24   O17   S    
C48   C50   A    
C105  H26   S    
C45   O7    A    
C5    H46   S    
C64   N1    A    
C37   C66   A    
C2    C17   A    
C44   O2    A    
C25   O18   S    
C67   H1    S    
N1    Zn1   S    
C70   H34   S    
C44   O6    A    
C107  H30   S    
C30   C70   A    
C8    O27   S    
C90   C94   A    
C29   C69   A    
C23   O16   S    
C37   C57   A    
C108  H35   S    
C59   C61   A    
C10   H61   S    
C4    H41   S    
C17   F8    S    
C103  H19   S    
C69   H23   S    
C32   C35   S    
C23   C71   A    
C34   C95   A    
C97   H3    S    
O4    Zn2   S    
C9    H58   S    
C28   F12   S    
O34   Zn4   S    
C31   C93   A    
C10   O29   S    
C4    H40   S    
C7    H50   S    
C45   C74   S    
C108  O20   S    
C104  H21   S    
C46   O8    A    
N4    Zn4   S    
C36   C56   A    
C18   O25   S    
C41   O13   S    
C53   C62   A    
C78   C82   A    
C10   H60   S    
C102  H16   S    
C77   C81   A    
C16   C20   A    
C29   F14   S    
C13   C87   A    
C42   C72   S    
C5    H43   S    
C15   F6    S    
C7    H51   S    
C55   C57   A    
C75   H45   S    
C27   F1    S    
C104  O16   S    
C21   C31   S    
C66   N2    A    
C19   C94   A    
C51   N3    A    
O7    Zn4   S    
C107  O19   S    
C83   O24   S    
C24   C65   A    
C8    H55   S    
C39   F4    S    
C106  O18   S    
C20   C95   A    
C12   C14   A    
C13   C70   A    
C11   O30   S    
C106  H28   S    
C13   C15   A    
C6    H49   S    
C68   H12   S    
C84   C89   A    
C88   F10   S    
C14   F5    S    
C16   F7    S    
C103  O15   S    
C31   C75   A    
C32   O23   A    
C27   C71   A    
C3    H37   S    
C23   C54   A    
C53   C56   A    
C8    H54   S    
C42   O36   A    
C105  H24   S    
C26   O19   S    
C3    H39   S    
C22   C96   A    
C47   O9    S    
C36   F18   S    
C34   C43   S    
C50   C55   A    
C62   N1    A    
C48   O10   S    
C9    H59   S    
O23   Zn2   S    
N3    Zn3   S    
C80   O20   S    
C107  H31   S    
C101  H10   S    
C63   N2    A    
O1    Zn1   S    
C82   O22   S    
C7    O26   S    
C46   O4    A    
C59   F17   S    
C106  H29   S    
C81   O21   S    
C108  H33   S    
C66   O30   S    
C100  O11   S    
C58   F16   S    
C17   C22   A    
C21   O12   A    
C33   C77   A    
C86   C91   A    
C25   C76   A    
C85   C90   A    
C63   F2    S    
C12   C76   A    
O33   Zn3   S    
C54   C91   A    
C82   C86   A    
C39   C41   A    
C28   C72   A    
C105  O17   S    
C62   F20   S    
C1    O32   A    
C16   C98   A    
C38   C40   A    
C84   F11   S    
C4    O22   S    
C35   C79   A    
C6    H48   S    
C41   C48   A    
C56   C58   A    
C7    H52   S    
C83   C88   A    
C86   F9    S    
C25   C73   A    
C89   C93   A    
C81   C85   A    
C27   C67   A    
C100  H9    S    
C91   C95   A    
C4    H42   S    
C79   C83   A    
C5    O24   S    
C29   C73   A    
C30   F15   S    
C3    H38   S    
C3    O21   S    
C106  H27   S    
C102  H15   S    
C87   C90   A    
C18   C93   A    
C5    H44   S    
C38   N3    A    
C54   C98   A    
C43   O35   A    
C51   C60   A    
C102  H14   S    
C38   F3    S    
C36   C64   A    
C39   N4    A    
C46   C73   S    
C34   C78   A    
C100  H8    S    
C103  H18   S    
C37   F19   S    
C99   O10   S    
C11   H65   S    
