data_mof_unit_19424.cif
_audit_creation_date              2012-12-11T19:09:47-0500
_audit_creation_method            fapswitch 2.2
_symmetry_space_group_name_H-M    P1
_symmetry_Int_Tables_number       1
_space_group_crystal_system       triclinic
_cell_length_a                    8.248534
_cell_length_b                    15.040399
_cell_length_c                    26.900882
_cell_angle_alpha                 98.099903
_cell_angle_beta                  93.332462
_cell_angle_gamma                 81.149465
_cell_volume                      3262.45448535

loop_
_atom_site_label
_atom_site_type_symbol
_atom_type_description
_atom_site_fract_x
_atom_site_fract_y
_atom_site_fract_z
_atom_type_partial_charge
Ba1   Ba    Ba6+2 0.860050 0.456430 0.522540 1.656934
Ba2   Ba    Ba6+2 0.329780 0.543490 0.477450 1.663650
C1    C     C_3   0.755760 0.171209 0.615596 -0.292899
C2    C     C_R   0.905266 0.589666 0.179984 0.576950
C3    C     C_2   0.749185 0.561386 0.273289 -0.084483
C4    C     C_3   0.140298 0.271336 0.655343 0.277276
C5    C     C_3   0.729702 0.589779 0.328827 -0.044836
C6    C     C_1   0.980651 0.484086 0.342601 0.031643
C7    C     C_2   0.019071 0.478865 0.294549 -0.101444
C8    C     C_2   0.895429 0.516999 0.256458 0.198757
C9    C     C_R   0.005019 0.503802 0.100997 -0.077801
C10   C     C_R   0.031900 0.424765 0.124585 -0.065340
C11   C     C_R   0.084385 0.341448 0.095535 -0.033504
C12   C     C_3   0.637478 0.230516 0.652871 0.847216
C13   C     C_R   0.940871 0.586646 0.129049 -0.023924
C14   C     C_2   0.842114 0.530610 0.360779 -0.290580
C15   C     C_2   0.347822 0.477053 0.641552 -0.252311
C16   C     C_3   0.120584 0.251563 0.708408 -0.310076
C17   C     C_R   0.166689 0.417958 0.972164 0.006972
C18   C     C_R   0.034791 0.576407 0.973629 0.020413
C19   C     C_R   0.121556 0.496300 0.947616 0.063828
C20   C     C_R   0.277105 0.346066 0.947685 -0.117577
C21   C     C_R   0.321044 0.345310 0.898263 -0.052259
C22   C     C_R   0.263343 0.418569 0.871799 -0.032925
C23   C     C_3   0.491156 0.679093 0.633332 0.322922
C24   C     C_R   0.166369 0.495163 0.896880 -0.080321
C25   C     C_R   0.115971 0.571151 0.871540 -0.031110
C26   C     C_R   0.161693 0.569443 0.821537 0.590381
C27   C     C_R   0.304168 0.417818 0.821272 0.580261
C28   C     C_3   0.218066 0.264773 0.413288 0.307445
C29   C     C_2   0.453589 0.469388 0.729867 -0.067432
C30   C     C_3   0.494936 0.479684 0.676877 -0.052522
C31   C     C_1   0.206499 0.519672 0.658278 -0.020319
C32   C     C_2   0.166667 0.520885 0.705599 -0.143410
C33   C     C_2   0.295947 0.492378 0.744428 0.213455
C34   C     C_3   0.510915 0.701867 0.690188 -0.355065
C35   C     C_R   0.108798 0.416552 0.021372 -0.044117
C36   C     C_R   0.040763 0.500184 0.049265 0.060468
C37   C     C_R   0.005910 0.580370 0.025691 0.024791
C38   C     C_R   0.113646 0.335558 0.044049 -0.060656
C39   C     C_R   0.913010 0.665490 0.105727 -0.055036
C40   C     C_3   0.240950 0.162263 0.398439 -0.366785
C41   C     C_R   0.981683 0.650493 0.946631 -0.100857
C42   C     C_R   0.021337 0.647752 0.896785 -0.056605
C43   C     C_R   0.944829 0.662590 0.055340 -0.101652
C44   C     C_R   0.353552 0.175384 0.533800 0.002781
C45   C     C_3   0.033525 0.739073 0.345760 0.331691
C46   C     C_R   0.577441 0.208926 0.488960 0.061792
C47   C     C_R   0.766147 0.771402 0.490255 -0.264209
C48   C     C_R   0.851774 0.830161 0.470676 0.018518
C49   C     C_R   0.789404 0.922612 0.473904 -0.147077
C50   C     C_R   0.638830 0.957924 0.497536 0.004609
C51   C     C_R   0.556171 0.896818 0.519035 -0.030668
C52   C     C_3   0.960689 0.734030 0.663519 0.703024
C53   C     C_R   0.569749 0.051931 0.501919 0.011898
C54   C     C_R   0.420887 0.082411 0.527901 -0.021895
C55   C     C_R   0.343756 0.019957 0.548151 -0.115369
C56   C     C_3   0.046400 0.764089 0.293467 -0.287127
C57   C     C_R   0.411398 0.929815 0.544680 -0.057145
C58   C     C_R   0.642927 0.116989 0.481367 -0.126224
C59   C     C_R   0.437050 0.237967 0.516440 -0.286669
C60   C     C_R   0.621164 0.803746 0.514911 0.016560
C61   C     C_3   0.090129 0.771640 0.700190 -0.379769
C62   C     C_3   0.692849 0.343045 0.371464 0.295743
C63   C     C_3   0.690992 0.321535 0.314492 -0.335859
C64   C     C_3   0.868179 0.868795 0.628266 0.232012
C65   C     C_3   0.512707 0.107573 0.669098 0.133343
C66   C     C_2   0.512601 0.888480 0.306604 0.513470
C67   C     C_3   0.489265 0.787512 0.370956 0.282982
C68   C     C_2   0.120743 0.244350 0.013944 0.490264
C69   C     C_3   0.439802 0.882109 0.355550 -0.252757
C70   C     C_R   0.996509 0.429792 0.176113 0.605254
H1    H     H_    0.524578 0.258496 0.632172 -0.191625
H2    H     H_    0.598369 0.402853 0.381744 0.071719
H3    H     H_    0.799196 0.214077 0.590543 0.135741
H4    H     H_    0.789579 0.264518 0.302898 0.145957
H5    H     H_    0.711233 0.381788 0.297574 0.065550
H6    H     H_    0.570232 0.302413 0.300288 0.138516
H7    H     H_    0.694248 0.119332 0.591810 0.014401
H8    H     H_    0.360726 0.672989 0.623323 0.001391
H9    H     H_    0.570310 0.613670 0.621405 0.037745
H10   H     H_    0.455233 0.773029 0.702435 0.139018
H11   H     H_    0.450511 0.656299 0.709487 0.050351
H12   H     H_    0.325513 0.142540 0.366787 0.145061
H13   H     H_    0.642496 0.693733 0.702009 0.127200
H14   H     H_    0.861761 0.136107 0.636064 0.122994
H15   H     H_    0.228546 0.205145 0.720535 0.134765
H16   H     H_    0.127730 0.679169 0.350288 0.094020
H17   H     H_    0.909277 0.721676 0.349119 -0.046435
H18   H     H_    0.152337 0.800850 0.291996 0.129719
H19   H     H_    0.066095 0.701270 0.266258 0.115690
H20   H     H_    0.932374 0.807875 0.282714 0.157248
H21   H     H_    0.625890 0.773416 0.373478 -0.060400
H22   H     H_    0.441546 0.788398 0.408832 0.086165
H23   H     H_    0.293426 0.127200 0.430519 0.059202
H24   H     H_    0.483133 0.932945 0.385493 0.080788
H25   H     H_    0.040335 0.325539 0.647231 0.121889
H26   H     H_    0.304109 0.898055 0.351916 0.103817
H27   H     H_    0.140733 0.447834 0.282684 0.123919
H28   H     H_    0.092855 0.279499 0.112422 0.168597
H29   H     H_    0.552193 0.452667 0.757028 0.113600
H30   H     H_    0.402978 0.287282 0.881055 0.129063
H31   H     H_    0.336221 0.290706 0.966877 0.082078
H32   H     H_    0.654619 0.588325 0.247359 0.113350
H33   H     H_    0.866156 0.730566 0.126508 0.132217
H34   H     H_    0.120617 0.139876 0.386772 0.135266
H35   H     H_    0.905835 0.711376 0.962740 0.078150
H36   H     H_    0.259825 0.295763 0.653812 0.002002
H37   H     H_    0.977880 0.706689 0.878085 0.125181
H38   H     H_    0.040172 0.540581 0.716252 0.123254
H39   H     H_    0.924217 0.726917 0.040996 0.081191
H40   H     H_    0.822125 0.541252 0.400820 0.082986
H41   H     H_    0.352471 0.430151 0.606862 0.063689
H42   H     H_    0.385941 0.309197 0.521150 0.069633
H43   H     H_    0.231418 0.039887 0.568156 0.109382
H44   H     H_    0.749704 0.098634 0.458841 0.090258
H45   H     H_    0.910791 0.683853 0.682587 0.000082
H46   H     H_    0.816115 0.700109 0.487927 0.079781
H47   H     H_    0.862108 0.964693 0.458230 0.091484
H48   H     H_    0.109534 0.315923 0.734686 0.112127
H49   H     H_    0.346763 0.886710 0.562663 0.099743
H50   H     H_    0.008655 0.219793 0.710193 0.150617
H51   H     H_    0.338878 0.286365 0.423399 0.001698
H52   H     H_    0.137623 0.282388 0.445979 0.067409
H53   H     H_    0.928961 0.839008 0.592680 0.040913
H54   H     H_    0.944992 0.914173 0.651788 0.014205
H55   H     H_    0.753476 0.911504 0.617434 0.039729
H56   H     H_    0.173248 0.714760 0.714208 0.087512
H57   H     H_    0.601803 0.048038 0.654532 0.033808
H58   H     H_    0.421594 0.126240 0.639088 0.037680
H59   H     H_    0.446908 0.086464 0.699213 0.090047
H60   H     H_    0.478791 0.846039 0.272708 0.038357
H61   H     H_    0.083493 0.237931 0.974412 0.003503
H62   H     H_    0.030018 0.814789 0.732927 0.130777
H63   H     H_    0.163644 0.812342 0.681503 0.082474
H64   H     H_    0.815430 0.358881 0.385072 0.008964
N1    N     N_R   0.934014 0.511851 0.203488 -0.422304
N2    N     N_R   0.253292 0.492904 0.796506 -0.425480
O1    O     O_2   0.906490 0.548660 0.619040 -0.469428
O2    O     O_2   0.189711 0.824338 0.471725 -0.483556
O3    O     O_3   0.060240 0.813078 0.381567 -0.598894
O4    O     O_3   0.138490 0.548590 0.558860 -0.447850
O5    O     O_3   0.572560 0.389970 0.472910 -0.491336
O6    O     O_2   0.345680 0.723560 0.528460 -0.454283
O7    O     O_3   0.537230 0.749702 0.611184 -0.607642
O8    O     O_2   0.401788 0.547288 0.323177 -0.496244
O9    O     O_3   0.421921 0.722112 0.336335 -0.614150
O10   O     O_2   0.018453 0.360728 0.196208 -0.585753
O11   O     O_2   0.383544 0.349861 0.799225 -0.581511
O12   O     O_3   0.659803 0.267117 0.391594 -0.623498
O13   O     O_2   0.848493 0.662238 0.203456 -0.620072
O14   O     O_2   0.121949 0.636938 0.800564 -0.617242
O15   O     O_3   0.686290 0.382320 0.585720 -0.492701
O16   O     O_2   0.826361 0.446410 0.671854 -0.503266
O17   O     O_3   0.030846 0.694743 0.617257 -0.644717
O18   O     O_3   0.719769 0.299724 0.678436 -0.597926
O19   O     O_2   0.844020 0.276410 0.471510 -0.463049
O20   O     O_3   0.101490 0.335510 0.560360 -0.496367
O21   O     O_2   0.016589 0.173679 0.527507 -0.489779
O22   O     O_3   0.826107 0.802441 0.655694 -0.636049
O23   O     O_3   0.130582 0.192819 0.620832 -0.634082
O24   O     O_3   0.595921 0.180227 0.689958 -0.613846
O25   O     O_2   0.609730 0.941310 0.304533 -0.563824
O26   O     O_2   0.165208 0.175249 0.033105 -0.555546
O27   O     O_2   0.283210 0.451320 0.380930 -0.463616
O28   O     O_3   0.051220 0.451340 0.441130 -0.496861
O29   O     O_3   0.503420 0.617610 0.414270 -0.478032
O30   O     O_3   0.148032 0.305914 0.372153 -0.621692
O31   O     O_3   0.617160 0.609950 0.527080 -0.470569
O32   O     O_3   0.088220 0.664410 0.439630 -0.488748
P1    P     P_3+3 0.071960 0.575810 0.612130 0.987955
P2    P     P_3+3 0.664360 0.290070 0.457280 0.991045
P3    P     P_3+3 0.150301 0.218701 0.560101 0.910068
P4    P     P_3+3 0.117760 0.424110 0.387870 0.993259
P5    P     P_3+3 0.047968 0.782976 0.441585 0.968325
P6    P     P_3+3 0.676059 0.401106 0.651782 0.935495
P7    P     P_3+3 0.531579 0.722612 0.545808 0.983321
P8    P     P_3+3 0.513638 0.614827 0.349600 0.938546

loop_
_geom_bond_atom_site_label_1
_geom_bond_atom_site_label_2
_ccdc_geom_bond_type
C57   H49   S    
C53   C54   A    
C62   H64   S    
C23   H8    S    
Ba2   O6    S    
C65   O24   S    
C19   C24   A    
C1    H7    S    
C60   P7    S    
C64   O22   S    
C51   C57   A    
C15   H41   S    
C55   H43   S    
C64   H55   S    
O30   P4    S    
C27   N2    Am   
C30   P6    S    
O15   P6    S    
C24   C25   A    
C63   H4    S    
C39   H33   S    
C29   H29   S    
Ba1   O20   S    
C17   C19   A    
C22   C24   A    
O5    P2    S    
C32   C33   S    
C35   C38   A    
C67   H21   S    
C66   C69   S    
C33   N2    S    
C36   C37   A    
C6    P4    S    
C55   C57   A    
C21   H30   S    
C52   C61   S    
C34   H11   S    
C54   C55   A    
O8    P8    D    
C66   H60   S    
Ba1   Ba2   S    
C51   C60   A    
C67   C69   S    
C22   C27   A    
C11   C38   A    
Ba1   O4    S    
C17   C35   A    
C2    N1    Am   
C46   P2    S    
C9    C13   A    
C25   C42   A    
O12   P2    S    
C29   C30   S    
C34   H10   S    
C6    C7    D    
C68   H61   S    
C49   H47   S    
C21   C22   A    
O1    P1    D    
C63   H6    S    
C8    N1    S    
C1    H3    S    
C7    C8    S    
Ba2   O28   S    
C61   H56   S    
Ba1   O1    S    
C50   C53   A    
C37   C43   A    
C42   H37   S    
C10   C70   A    
C3    H32   S    
C6    C14   D    
C53   C58   A    
C1    H14   S    
C23   H9    S    
Ba2   O5    S    
C45   H17   S    
C65   H57   S    
C15   C31   D    
O31   P7    S    
C46   C58   A    
O32   P5    S    
C4    C16   S    
C69   H26   S    
O28   P4    S    
C63   H5    S    
C44   C59   A    
C49   C50   A    
C4    H25   S    
C17   C20   A    
C26   N2    Am   
C13   C39   A    
C67   H22   S    
C68   O26   D    
C52   O17   S    
C3    C5    S    
C18   C37   A    
C69   H24   S    
C23   C34   S    
O27   P4    D    
C70   O10   D    
C27   O11   D    
Ba1   P1    S    
C20   H31   S    
C40   H23   S    
C5    P8    S    
C62   O12   S    
C48   P5    S    
C61   H63   S    
C12   O24   S    
C9    C36   A    
C41   C42   A    
C61   H62   S    
C35   C36   A    
Ba1   O5    S    
O17   P1    S    
O23   P3    S    
C12   H1    S    
O20   P3    S    
C47   H46   S    
C4    O23   S    
C48   C49   A    
C44   P3    S    
C40   H12   S    
C41   H35   S    
O6    P7    D    
Ba1   O15   S    
C28   H51   S    
C56   H18   S    
Ba2   O27   S    
C1    C12   S    
C38   C68   S    
Ba2   O32   S    
C70   N1    Am   
C16   H50   S    
C26   O14   D    
C67   O9    S    
C29   C33   D    
C58   H44   S    
C65   H58   S    
O7    P7    S    
C31   P1    S    
C16   H48   S    
C25   C26   A    
C18   C41   A    
C50   C51   A    
C14   H40   S    
C56   H19   S    
C66   O25   D    
C2    O13   D    
C5    C14   S    
C62   H2    S    
C47   C60   A    
C12   O18   S    
C65   H59   S    
C28   H52   S    
O18   P6    S    
C9    C10   A    
C43   H39   S    
Ba2   O4    S    
C34   H13   S    
C45   O3    S    
Ba1   P2    S    
C16   H15   S    
C64   H53   S    
O16   P6    D    
C45   H16   S    
C11   H28   S    
Ba1   O19   S    
C28   O30   S    
C3    C8    D    
O19   P2    D    
C39   C43   A    
C62   C63   S    
C45   C56   S    
O9    P8    S    
C46   C59   A    
Ba1   O28   S    
C2    C13   A    
O2    P5    D    
C32   H38   S    
Ba1   O31   S    
C31   C32   D    
Ba2   O31   S    
C52   O22   S    
C40   H34   S    
C64   H54   S    
O29   P8    S    
C18   C19   A    
C7    H27   S    
C47   C48   A    
O21   P3    D    
C52   H45   S    
C44   C54   A    
C59   H42   S    
O3    P5    S    
C15   C30   S    
C4    H36   S    
C20   C21   A    
C28   C40   S    
C23   O7    S    
C10   C11   A    
C56   H20   S    
Ba2   O29   S    
Ba2   P4    S    
O4    P1    S    
