data_mof_unit_42360.cif
_audit_creation_date              2012-12-10T20:37:34-0500
_audit_creation_method            fapswitch 2.2
_symmetry_space_group_name_H-M    P1
_symmetry_Int_Tables_number       1
_space_group_crystal_system       triclinic
_cell_length_a                    15.696748
_cell_length_b                    10.768671
_cell_length_c                    9.968434
_cell_angle_alpha                 90.391177
_cell_angle_beta                  90.092783
_cell_angle_gamma                 91.169193
_cell_volume                      1684.60276445

loop_
_atom_site_label
_atom_site_type_symbol
_atom_type_description
_atom_site_fract_x
_atom_site_fract_y
_atom_site_fract_z
_atom_type_partial_charge
C1    C     C_R   0.508510 0.261645 0.499792 0.948107
C2    C     C_R   0.522472 0.130731 0.499595 -0.074988
C3    C     C_R   0.541824 0.064539 0.381458 0.492536
C4    C     C_R   0.338252 0.502132 0.499498 0.927482
C5    C     C_R   0.532450 0.934235 0.380891 -0.297214
C6    C     C_R   0.511029 0.871206 0.500027 -0.080211
C7    C     C_R   0.505933 0.939830 0.617376 -0.002736
C8    C     C_3   0.500325 0.932665 0.767090 0.591524
C9    C     C_3   0.514338 0.076036 0.765930 0.660380
C10   C     C_R   0.425736 0.493565 0.069854 0.028458
C11   C     C_R   0.572624 0.522454 0.072909 -0.050499
C12   C     C_3   0.083583 0.520482 0.494939 -0.005977
C13   C     C_R   0.572438 0.527386 0.930237 0.543298
C14   C     C_R   0.424675 0.498310 0.929337 0.089481
C15   C     C_3   0.348839 0.409971 0.924158 0.152614
C16   C     C_R   0.502147 0.739505 0.500337 0.911684
C17   C     C_3   0.350168 0.407150 0.077795 0.154876
C18   C     C_R   0.661861 0.500807 0.500101 0.876256
C19   C     C_3   0.972261 0.437947 0.590885 -0.198452
C20   C     C_3   0.027741 0.403910 0.467793 -0.257208
C21   C     C_1   0.249619 0.511039 0.497168 -0.001795
C22   C     C_1   0.750882 0.506162 0.500088 -0.093002
C23   C     C_3   0.972107 0.634487 0.525139 -0.280862
C24   C     C_3   0.028530 0.554329 0.614701 0.431555
C25   C     C_3   0.917197 0.516846 0.497873 0.032504
C26   C     C_3   0.027502 0.597762 0.403891 0.438533
C27   C     C_3   0.970764 0.482154 0.374637 -0.164456
C28   C     C_1   0.174471 0.517612 0.495328 0.132396
C29   C     C_1   0.826263 0.511573 0.499294 0.044650
C30   C     C_R   0.514164 0.064036 0.616712 -0.233817
H1    H     H_    0.052224 0.310289 0.444127 0.212197
H2    H     H_    0.397558 0.138032 0.754911 0.362174
H3    H     H_    0.705706 0.997192 0.752592 0.386159
H4    H     H_    0.627737 0.629811 0.802086 0.374200
H5    H     H_    0.151814 0.364779 0.749753 0.394957
H6    H     H_    0.462633 0.120355 0.083417 0.417426
H7    H     H_    0.009164 0.813256 0.124951 0.402382
H8    H     H_    0.011105 0.604689 0.797145 0.357028
H9    H     H_    0.594455 0.064651 0.206212 0.365325
H10   H     H_    0.268058 0.881404 0.750623 0.421980
H11   H     H_    0.631328 0.541028 0.126989 0.170410
H12   H     H_    0.365207 0.322225 0.873970 0.194352
H13   H     H_    0.296611 0.452446 0.130010 0.169930
H14   H     H_    0.948074 0.373561 0.669236 0.191086
H15   H     H_    0.945059 0.453366 0.275114 0.196064
H16   H     H_    0.948160 0.728287 0.549363 0.192657
H17   H     H_    0.544260 0.883029 0.289056 0.175177
H18   H     H_    0.560811 0.868553 0.919942 0.356179
N1    N     N_R   0.499430 0.499140 0.142800 -0.112961
N2    N     N_R   0.499430 0.499180 0.857150 -0.143856
O1    O     O_R   0.500010 0.316790 0.614690 -0.600281
O2    O     O_3   0.446550 0.144360 0.817897 -0.728217
O3    O     O_2   0.617984 0.272088 0.825886 -0.200966
O4    O     O_2   0.632174 0.088629 0.965436 -0.305705
O5    O     O_3   0.694396 0.083151 0.723920 -0.535013
O6    O     O_3   0.645728 0.567972 0.868887 -0.718111
O7    O     O_2   0.183798 0.473656 0.969689 -0.239922
O8    O     O_2   0.260453 0.593282 0.799373 -0.191094
O9    O     O_3   0.214782 0.364817 0.743624 -0.560917
O10   O     O_2   0.351881 0.244730 0.283254 -0.273726
O11   O     O_2   0.304094 0.166989 0.064926 -0.216090
O12   O     O_R   0.500000 0.316760 0.385350 -0.502615
O13   O     O_3   0.466232 0.211546 0.096183 -0.460269
O14   O     O_2   0.113141 0.809334 0.348668 -0.250086
O15   O     O_2   0.125252 0.637413 0.187252 -0.237068
O16   O     O_3   0.983226 0.758211 0.193542 -0.531559
O17   O     O_3   0.061448 0.592105 0.739115 -0.661528
O18   O     O_3   0.575931 0.126695 0.273249 -0.683696
O19   O     O_2   0.398359 0.740040 0.831962 -0.261130
O20   O     O_2   0.379917 0.930753 0.961080 -0.246311
O21   O     O_3   0.321072 0.921327 0.716530 -0.546746
O22   O     O_R   0.376780 0.500010 0.614650 -0.561447
O23   O     O_R   0.376770 0.499970 0.385310 -0.618392
O24   O     O_R   0.500000 0.683240 0.614650 -0.580248
O25   O     O_R   0.499990 0.683210 0.385310 -0.636521
O26   O     O_R   0.623230 0.500030 0.614690 -0.586857
O27   O     O_R   0.623220 0.499990 0.385350 -0.634030
O28   O     O_3   0.567917 0.865911 0.821126 -0.794382
S1    S     S_3+6 0.616284 0.132758 0.825329 0.100391
S2    S     S_3+6 0.249665 0.467102 0.860626 0.095949
S3    S     S_3+6 0.366801 0.252827 0.134885 0.095836
S4    S     S_3+6 0.066071 0.703536 0.280581 0.066910
S5    S     S_3+6 0.397630 0.878573 0.824040 0.059431
Zn1   Zn    Zn3+2 0.500010 0.500020 0.653130 1.089820
Zn2   Zn    Zn3+2 0.499990 0.499980 0.346870 1.056607

loop_
_geom_bond_atom_site_label_1
_geom_bond_atom_site_label_2
_ccdc_geom_bond_type
H3    O5    S    
H4    O6    S    
C22   C29   T    
C16   O25   A    
H9    O18   S    
C3    O18   S    
C1    O12   A    
O26   Zn1   S    
N2    Zn1   S    
C7    C8    S    
C5    H17   S    
C26   C27   S    
O13   S3    S    
O19   S5    D    
H10   O21   S    
C5    C6    A    
C10   C17   S    
C8    S5    S    
H5    O9    S    
C1    C2    S    
C9    S1    S    
C23   C26   S    
H18   O28   S    
H2    O2    S    
C24   O17   S    
O25   Zn2   S    
C19   C20   S    
C8    C9    S    
C23   C24   S    
C11   H11   S    
H6    O13   S    
O8    S2    D    
C13   O6    S    
C27   H15   S    
O27   Zn2   S    
C26   S4    S    
C7    C30   A    
C8    O28   S    
O7    S2    D    
C9    O2    S    
O21   S5    S    
C25   C29   S    
O12   Zn2   S    
N1    Zn2   S    
C10   C14   A    
C12   C26   S    
C17   H13   S    
C11   N1    A    
O16   S4    S    
O5    S1    S    
O10   S3    D    
C15   S2    S    
O14   S4    D    
H7    O16   S    
C12   C20   S    
O20   S5    D    
C1    O1    A    
O23   Zn2   S    
C4    O23   A    
O22   Zn1   S    
C9    C30   S    
C21   C28   T    
C12   C28   S    
C16   O24   A    
C4    O22   A    
C19   H14   S    
O4    S1    D    
C15   C17   S    
C18   O26   A    
O3    S1    D    
C18   C22   S    
C15   H12   S    
O24   Zn1   S    
C3    C5    A    
O9    S2    S    
C6    C7    A    
C20   C27   S    
C25   C27   S    
C12   C24   S    
C2    C30   A    
C2    C3    A    
O11   S3    D    
C4    C21   S    
C11   C13   A    
O15   S4    D    
C14   N2    A    
C18   O27   A    
C19   C24   S    
C17   S3    S    
C23   C25   S    
C19   C25   S    
C6    C16   S    
C13   N2    A    
H8    O17   S    
C23   H16   S    
C14   C15   S    
C10   N1    A    
O1    Zn1   S    
C20   H1    S    
