data_mof_unit_29169.cif
_audit_creation_date              2012-12-11T14:08:08-0500
_audit_creation_method            fapswitch 2.2
_symmetry_space_group_name_H-M    P1
_symmetry_Int_Tables_number       1
_space_group_crystal_system       triclinic
_cell_length_a                    10.997414
_cell_length_b                    10.977094
_cell_length_c                    18.802461
_cell_angle_alpha                 90.430298
_cell_angle_beta                  90.081428
_cell_angle_gamma                 59.976833
_cell_volume                      1965.20574571

loop_
_atom_site_label
_atom_site_type_symbol
_atom_type_description
_atom_site_fract_x
_atom_site_fract_y
_atom_site_fract_z
_atom_type_partial_charge
C1    C     C_R   0.243543 0.642427 0.610707 0.598866
C2    C     C_3   0.675416 0.552052 0.797543 -0.057517
C3    C     C_3   0.697359 0.679167 0.812202 -0.026384
C4    C     C_3   0.666216 0.655206 0.675768 -0.064673
C5    C     C_3   0.822673 0.611397 0.691612 0.455415
C6    C     C_3   0.622519 0.563711 0.721036 -0.243863
C7    C     C_2   0.674298 0.162456 0.672087 0.394726
C8    C     C_2   0.683163 0.174214 0.830319 -0.033377
C9    C     C_2   0.792802 0.139980 0.787151 -0.035166
C10   C     C_2   0.774002 0.171245 0.710428 0.372042
C11   C     C_2   0.197509 0.657992 0.685305 0.146760
C12   C     C_R   0.653133 0.624253 0.600900 0.582248
C13   C     C_2   0.212921 0.646917 0.846600 -0.029159
C14   C     C_2   0.212197 0.545920 0.805936 0.154052
C15   C     C_2   0.224508 0.543756 0.726671 0.144156
C16   C     C_2   0.662426 0.662987 0.326729 -0.071913
C17   C     C_2   0.634775 0.661919 0.155895 -0.081849
C18   C     C_2   0.717485 0.582175 0.208213 0.160240
C19   C     C_2   0.651817 0.587140 0.273859 0.126410
C20   C     C_2   0.670152 0.137062 0.332787 -0.031931
C21   C     C_2   0.714994 0.022383 0.186147 0.355216
C22   C     C_2   0.602545 0.053061 0.226023 -0.103169
C23   C     C_R   0.627681 0.229697 0.602498 0.563935
C24   C     C_2   0.595694 0.083281 0.302683 -0.111604
C25   C     C_2   0.180735 0.665871 0.328039 -0.062051
C26   C     C_2   0.183419 0.647328 0.173016 0.405650
C27   C     C_2   0.226115 0.724149 0.209181 0.380071
C28   C     C_2   0.248668 0.708573 0.284403 -0.030464
C29   C     C_R   0.701934 0.103967 0.898435 0.621757
C30   C     C_R   0.723343 0.688878 0.888356 0.641577
C31   C     C_R   0.124618 0.702002 0.910163 0.597777
C32   C     C_R   0.708026 0.029781 0.108847 0.583152
C33   C     C_R   0.693805 0.688674 0.094302 0.558517
C34   C     C_R   0.223404 0.649039 0.401024 0.557081
C35   C     C_R   0.099945 0.705546 0.110289 0.604302
C36   C     C_R   0.645631 0.627103 0.397153 0.572882
C37   C     C_R   0.620795 0.221978 0.397503 0.562120
C38   C     C_3   0.569421 0.821685 0.782239 0.528509
C39   C     C_3   0.571539 0.813891 0.699642 0.045667
C40   C     C_3   0.833365 0.648565 0.770458 -0.004784
Cr1   Cr    Cr6+3 0.393010 0.398050 0.501480 1.143662
Cr2   Cr    Cr6+3 0.398820 0.707980 0.501630 1.116458
Cr3   Cr    Cr6+3 0.708140 0.393940 0.496850 1.165358
Cr4   Cr    Cr6+3 0.937950 0.938450 0.008940 1.160244
Cr5   Cr    Cr6+3 0.626180 0.937030 0.994750 1.162794
Cr6   Cr    Cr6+3 0.937790 0.625760 0.001410 1.156219
H1    H     H_    0.665459 0.456283 0.698601 0.193503
H2    H     H_    0.926435 0.555792 0.793449 0.218345
H3    H     H_    0.899161 0.082926 0.807639 0.212077
H4    H     H_    0.576611 0.235778 0.810357 0.201783
H5    H     H_    0.255249 0.708959 0.826246 0.180460
H6    H     H_    0.521508 0.723311 0.163434 0.149843
H7    H     H_    0.707991 0.729879 0.318671 0.085870
H8    H     H_    0.505792 0.071308 0.201009 0.145159
H9    H     H_    0.507943 0.087211 0.331204 0.160067
H10   H     H_    0.753998 0.141015 0.304822 0.224279
H11   H     H_    0.320432 0.741489 0.304834 0.177037
H12   H     H_    0.106913 0.634146 0.309942 0.176111
H13   H     H_    0.625406 0.869787 0.680097 0.234654
H14   H     H_    0.778668 0.453128 0.801509 0.217932
H15   H     H_    0.506180 0.612375 0.720683 0.161828
O1    O     O_R   0.507110 0.256280 0.580300 -0.450019
O2    O     O_R   0.524640 0.695370 0.425100 -0.501473
O3    O     O_R   0.735890 0.504390 0.415980 -0.457651
O4    O     O_R   0.690560 0.277820 0.422350 -0.469743
O5    O     O_3   0.499990 0.499990 0.499980 -0.314105
O6    O     O_R   0.089190 0.825870 0.932320 -0.476670
O7    O     O_R   0.819070 0.053960 0.931440 -0.499883
O8    O     O_R   0.607070 0.076440 0.916460 -0.400784
O9    O     O_R   0.647110 0.806550 0.917690 -0.410818
O10   O     O_R   0.837080 0.593860 0.915300 -0.498746
O11   O     O_R   0.064770 0.636080 0.932550 -0.466766
O12   O     O_R   0.280830 0.527190 0.577940 -0.476362
O13   O     O_R   0.068250 0.829200 0.092940 -0.446688
O14   O     O_R   0.799650 0.057040 0.080330 -0.434853
O15   O     O_R   0.586130 0.079760 0.077080 -0.521975
O16   O     O_R   0.627700 0.809630 0.066580 -0.532183
O17   O     O_R   0.816140 0.597180 0.075920 -0.442145
O18   O     O_R   0.045360 0.639170 0.081440 -0.465668
O19   O     O_3   0.833980 0.833750 0.001700 -0.349064
O20   O     O_R   0.261360 0.738990 0.584270 -0.441635
O21   O     O_R   0.532590 0.694780 0.574370 -0.497589
O22   O     O_R   0.744470 0.503750 0.577000 -0.401730
O23   O     O_R   0.698520 0.277230 0.571620 -0.481253
O24   O     O_R   0.498530 0.256920 0.419280 -0.497546
O25   O     O_R   0.272880 0.527780 0.428680 -0.462811
O26   O     O_R   0.252780 0.739630 0.423250 -0.506182
F1    F     F_    0.580872 0.937772 0.800627 -0.512162
F2    F     F_    0.907002 0.466532 0.683778 -0.522363
F3    F     F_    0.862474 0.207954 0.679214 -0.551049
F4    F     F_    0.598757 0.108604 0.701633 -0.584390
Br1   Br    Br    0.211763 0.387626 0.852153 -0.295069
Br2   Br    Br    0.262594 0.365996 0.684272 -0.175146
Br3   Br    Br    0.390158 0.864959 0.825580 -0.272435
Br4   Br    Br    0.117678 0.851333 0.717483 -0.342721
Br5   Br    Br    0.920760 0.479795 0.210158 -0.313159
Br6   Br    Br    0.576179 0.464234 0.281695 -0.467516
F5    F     F_    0.842812 0.978318 0.216361 -0.639069
F6    F     F_    0.237528 0.829953 0.178342 -0.614327
Br7   Br    Br    0.383884 0.933237 0.658754 -0.203982
F7    F     F_    0.200126 0.524372 0.199008 -0.619275
Br8   Br    Br    0.872336 0.801318 0.784554 -0.419672
Br9   Br    Br    0.893848 0.693699 0.621940 -0.379025
Br10  Br    Br    0.559630 0.522953 0.866147 -0.553204

loop_
_geom_bond_atom_site_label_1
_geom_bond_atom_site_label_2
_ccdc_geom_bond_type
C7    C10   D    
C5    Br9   S    
C35   O13   A    
C21   F5    S    
C3    C30   S    
C18   Br5   S    
Cr2   O21   S    
C20   H10   S    
C32   O14   A    
C30   O10   A    
C19   Br6   S    
C22   H8    S    
C28   H11   S    
C24   H9    S    
C31   O6    A    
Cr1   O25   S    
C27   F6    S    
C26   C27   D    
Cr5   O15   S    
C8    C29   S    
C6    H15   S    
C37   O24   A    
C16   C19   D    
C26   F7    S    
C38   C39   S    
C2    H14   S    
C33   O17   A    
C1    O20   A    
Cr3   O22   S    
C18   C19   S    
C34   O25   A    
C16   H7    S    
C13   H5    S    
C11   C15   D    
C23   O1    A    
C20   C24   D    
C3    C38   S    
C8    C9    D    
C37   O4    A    
C4    C12   S    
C36   O2    A    
C9    C10   S    
Cr6   O11   S    
C25   C34   S    
C39   H13   S    
C13   C14   D    
Cr3   O23   S    
C2    C6    S    
Cr2   O20   S    
C17   C33   S    
Cr1   O1    S    
C17   H6    S    
C30   O9    A    
Cr3   O3    S    
C29   O8    A    
C21   C32   S    
C6    H1    S    
Cr5   O8    S    
Cr4   O19   S    
C9    H3    S    
C4    C6    S    
C23   O23   A    
Cr6   O17   S    
Cr1   O12   S    
C12   O22   A    
C38   F1    S    
C25   C28   D    
Cr4   O14   S    
C15   Br2   S    
C29   O7    A    
C4    C39   S    
C2    Br10  S    
Cr3   O4    S    
C7    F4    S    
C38   Br3   S    
C17   C18   D    
C12   O21   A    
Cr4   O13   S    
C14   Br1   S    
Cr6   O10   S    
C31   O11   A    
C3    C40   S    
C22   C24   S    
Cr4   O7    S    
C25   H12   S    
C8    H4    S    
C11   Br4   S    
C40   H2    S    
Cr5   O9    S    
C13   C31   S    
C4    C5    S    
C32   O15   A    
Cr1   O5    S    
Cr2   O26   S    
Cr1   O24   S    
C1    O12   A    
C2    C3    S    
C36   O3    A    
C16   C36   S    
Cr6   O19   S    
C20   C37   S    
C33   O16   A    
C39   Br7   S    
Cr6   O18   S    
Cr3   O5    S    
C7    C23   S    
C35   O18   A    
Cr5   O19   S    
C34   O26   A    
C40   Br8   S    
C26   C35   S    
C10   F3    S    
C5    C40   S    
C27   C28   S    
Cr2   O5    S    
C14   C15   S    
Cr4   O6    S    
Cr5   O16   S    
C1    C11   S    
C21   C22   D    
Cr2   O2    S    
C5    F2    S    
