data_mof_unit_41407.cif
_audit_creation_date              2012-12-10T17:46:27-0500
_audit_creation_method            fapswitch 2.2
_symmetry_space_group_name_H-M    P1
_symmetry_Int_Tables_number       1
_space_group_crystal_system       triclinic
_cell_length_a                    20.708765
_cell_length_b                    21.163543
_cell_length_c                    14.719575
_cell_angle_alpha                 90.000058
_cell_angle_beta                  128.405583
_cell_angle_gamma                 89.999918
_cell_volume                      5055.34177398

loop_
_atom_site_label
_atom_site_type_symbol
_atom_type_description
_atom_site_fract_x
_atom_site_fract_y
_atom_site_fract_z
_atom_type_partial_charge
C1    C     C_R   0.603768 0.914039 0.632540 0.813790
C2    C     C_R   0.622588 0.273936 0.002574 -0.226787
C3    C     C_R   0.740250 0.793127 0.991819 -0.011676
C4    C     C_R   0.194397 0.752747 0.922581 -0.043027
C5    C     C_R   0.759750 0.293128 0.008180 -0.011701
C6    C     C_R   0.805603 0.752747 0.077421 -0.043028
C7    C     C_R   0.240247 0.293125 0.991815 -0.011675
C8    C     C_R   0.317291 0.814544 0.991467 0.241697
C9    C     C_R   0.622672 0.247243 0.915917 0.249203
C10   C     C_R   0.682715 0.814550 0.008542 0.241721
C11   C     C_R   0.377328 0.247244 0.084082 0.249214
C12   C     C_R   0.817284 0.314552 0.991456 0.241766
C13   C     C_R   0.687778 0.792405 0.102112 -0.261432
C14   C     C_R   0.122670 0.747246 0.915917 0.249213
C15   C     C_R   0.182709 0.314545 0.008534 0.241702
C16   C     C_R   0.877328 0.747243 0.084082 0.249209
C17   C     C_3   0.293098 0.736751 0.606974 -0.705206
C18   C     C_3   0.622320 0.334816 0.277314 -0.692079
C19   C     C_3   0.706791 0.736640 0.392943 -0.705187
C20   C     C_3   0.377696 0.334832 0.722712 -0.692136
C21   C     C_3   0.793301 0.236551 0.607128 -0.705192
C22   C     C_3   0.122306 0.834832 0.277291 -0.692157
C23   C     C_3   0.206858 0.236710 0.392988 -0.705212
C24   C     C_R   0.377415 0.273941 0.997429 -0.226788
C25   C     C_3   0.877688 0.834830 0.722698 -0.692113
C26   C     C_3   0.459275 0.852557 0.110059 -0.714201
C27   C     C_3   0.503688 0.175723 0.825807 -0.661728
C28   C     C_3   0.540733 0.852562 0.889942 -0.714176
C29   C     C_3   0.496310 0.175722 0.174188 -0.661720
C30   C     C_3   0.959262 0.352584 0.110026 -0.714159
C31   C     C_3   0.003686 0.675726 0.825809 -0.661695
C32   C     C_3   0.040722 0.352550 0.889922 -0.714212
C33   C     C_3   0.996312 0.675723 0.174191 -0.661732
C34   C     C_R   0.812223 0.292405 0.897888 -0.261447
C35   C     C_R   0.122584 0.773943 0.002570 -0.226788
C36   C     C_R   0.187770 0.292399 0.102103 -0.261398
C37   C     C_R   0.877414 0.773937 0.997426 -0.226788
C38   C     C_R   0.320717 0.003766 0.663366 -0.316748
C39   C     C_R   0.679282 0.003776 0.336634 -0.316745
C40   C     C_R   0.820717 0.503771 0.663366 -0.316744
C41   C     C_R   0.396778 0.086389 0.368095 0.818486
C42   C     C_R   0.179283 0.503773 0.336634 -0.316750
C43   C     C_R   0.350926 0.999465 0.601474 0.065053
C44   C     C_R   0.649074 0.999472 0.398526 0.065063
C45   C     C_R   0.850926 0.499468 0.601474 0.065073
C46   C     C_R   0.149074 0.499469 0.398526 0.065058
C47   C     C_R   0.488489 0.004949 0.775825 -0.010827
C48   C     C_R   0.511510 0.004946 0.224175 -0.010821
C49   C     C_R   0.988489 0.504948 0.775825 -0.010827
C50   C     C_R   0.011511 0.504948 0.224175 -0.010809
C51   C     C_R   0.461670 0.009050 0.844417 -0.029413
C52   C     C_R   0.396232 0.914040 0.367460 0.813789
C53   C     C_R   0.538328 0.009050 0.155582 -0.029416
C54   C     C_R   0.961671 0.509050 0.844417 -0.029414
C55   C     C_R   0.038329 0.509052 0.155583 -0.029417
C56   C     C_R   0.375598 0.008502 0.784585 0.169931
C57   C     C_R   0.624400 0.008509 0.215414 0.169931
C58   C     C_R   0.875599 0.508505 0.784586 0.169920
C59   C     C_R   0.124401 0.508507 0.215414 0.169935
C60   C     C_R   0.516391 0.012306 0.969004 0.076921
C61   C     C_R   0.483607 0.012304 0.030995 0.076916
C62   C     C_R   0.016392 0.512306 0.969004 0.076925
C63   C     C_R   0.603222 0.086389 0.631905 0.818483
C64   C     C_R   0.983608 0.512306 0.030996 0.076888
C65   C     C_R   0.397348 0.015328 0.966239 -0.252625
C66   C     C_R   0.602650 0.015337 0.033760 -0.252637
C67   C     C_R   0.897349 0.515333 0.966239 -0.252604
C68   C     C_R   0.102651 0.515334 0.033761 -0.252634
C69   C     C_R   0.344687 0.012970 0.845793 -0.192246
C70   C     C_R   0.655312 0.012981 0.154206 -0.192253
C71   C     C_R   0.844687 0.512976 0.845793 -0.192241
C72   C     C_R   0.155313 0.512978 0.154207 -0.192254
C73   C     C_R   0.658994 0.139187 0.700941 -0.117560
C74   C     C_R   0.103768 0.414040 0.632540 0.813789
C75   C     C_R   0.329244 0.870754 0.283899 -0.133444
C76   C     C_R   0.341007 0.139188 0.299061 -0.117535
C77   C     C_R   0.670756 0.870753 0.716100 -0.133450
C78   C     C_R   0.158991 0.639189 0.700938 -0.117529
C79   C     C_R   0.829246 0.370751 0.283901 -0.133445
C80   C     C_R   0.841008 0.639189 0.299061 -0.117547
C81   C     C_R   0.170756 0.370754 0.716101 -0.133448
C82   C     C_R   0.760069 0.217228 0.740483 0.276151
C83   C     C_R   0.189318 0.832365 0.184008 0.279776
C84   C     C_R   0.239944 0.217236 0.259527 0.276081
C85   C     C_R   0.896778 0.586389 0.368095 0.818484
C86   C     C_R   0.810678 0.832359 0.815986 0.279775
C87   C     C_R   0.260050 0.717238 0.740467 0.276061
C88   C     C_R   0.689325 0.332354 0.184019 0.279766
C89   C     C_R   0.739942 0.717235 0.259528 0.276111
C90   C     C_R   0.310682 0.332364 0.815993 0.279772
C91   C     C_R   0.708620 0.165567 0.676382 -0.221953
C92   C     C_R   0.258284 0.866313 0.275148 -0.219869
C93   C     C_R   0.291384 0.165572 0.323623 -0.222004
C94   C     C_R   0.741713 0.866307 0.724847 -0.219865
C95   C     C_R   0.208613 0.665573 0.676374 -0.222015
C96   C     C_R   0.896232 0.414039 0.367460 0.813786
C97   C     C_R   0.758289 0.366303 0.275158 -0.219859
C98   C     C_R   0.791385 0.665572 0.323624 -0.221983
C99   C     C_R   0.241716 0.366312 0.724852 -0.219867
C100  C     C_R   0.659278 0.165371 0.788017 -0.261728
C101  C     C_R   0.332625 0.839672 0.203839 -0.210213
C102  C     C_R   0.340724 0.165371 0.211983 -0.261728
C103  C     C_R   0.667376 0.839673 0.796164 -0.210200
C104  C     C_R   0.159274 0.665372 0.788015 -0.261728
C105  C     C_R   0.832625 0.339673 0.203836 -0.210228
C106  C     C_R   0.840724 0.665372 0.211984 -0.261730
C107  C     C_R   0.103222 0.586389 0.631905 0.818486
C108  C     C_R   0.167375 0.339672 0.796160 -0.210199
C109  C     C_R   0.702391 0.221147 0.844538 0.044144
C110  C     C_R   0.261751 0.813284 0.102558 0.052145
C111  C     C_R   0.297610 0.221146 0.155461 0.044104
C112  C     C_R   0.738250 0.813284 0.897443 0.052145
C113  C     C_R   0.202388 0.721148 0.844537 0.044096
C114  C     C_R   0.761751 0.313283 0.102557 0.052135
C115  C     C_R   0.797611 0.721148 0.155464 0.044122
C116  C     C_R   0.238249 0.313283 0.897441 0.052147
C117  C     C_R   0.758536 0.243749 0.827519 0.047269
C118  C     C_R   0.312229 0.792398 0.897897 -0.261375
C119  C     C_R   0.191026 0.806102 0.096628 0.017748
C120  C     C_R   0.241468 0.243749 0.172482 0.047375
C121  C     C_R   0.808972 0.806098 0.903369 0.017742
C122  C     C_R   0.258529 0.743750 0.827516 0.047388
C123  C     C_R   0.691029 0.306095 0.096633 0.017754
C124  C     C_R   0.741470 0.743752 0.172486 0.047330
C125  C     C_R   0.308973 0.306101 0.903371 0.017745
C126  C     C_R   0.694398 0.252747 0.922578 -0.043016
C127  C     C_R   0.259752 0.793126 0.008184 -0.011684
C128  C     C_R   0.305601 0.252746 0.077418 -0.043029
Cu1   Cu    Cu3+1 0.526640 0.000000 0.436960 0.926266
Cu2   Cu    Cu3+1 0.473360 1.000000 0.563040 0.926264
Cu3   Cu    Cu3+1 0.026640 0.500000 0.436960 0.926261
Cu4   Cu    Cu3+1 0.973360 0.500000 0.563040 0.926269
H1    H     H_    0.353221 0.812545 0.883426 0.179442
H2    H     H_    0.631627 0.019564 0.993546 0.126732
H3    H     H_    0.046620 0.635931 0.876519 0.221087
H4    H     H_    0.147717 0.408549 0.977379 0.258090
H5    H     H_    0.000342 0.376497 0.804665 0.249206
H6    H     H_    0.027092 0.371129 0.946864 0.223982
H7    H     H_    0.026177 0.301217 0.874808 0.228212
H8    H     H_    0.964629 0.728122 0.264365 0.258489
H9    H     H_    0.049005 0.657996 0.261117 0.231873
H10   H     H_    0.021060 0.693405 0.130331 0.241657
H11   H     H_    0.953376 0.635933 0.123465 0.221095
H12   H     H_    0.868372 0.519558 0.006453 0.126724
H13   H     H_    0.131628 0.519559 0.993547 0.126731
H14   H     H_    0.392017 0.836151 0.223685 0.201597
H15   H     H_    0.626144 0.141391 0.812334 0.187104
H16   H     H_    0.607985 0.836156 0.776322 0.201598
H17   H     H_    0.373857 0.141389 0.187666 0.187104
H18   H     H_    0.892016 0.336157 0.223675 0.201593
H19   H     H_    0.126141 0.641390 0.812332 0.187101
H20   H     H_    0.107983 0.336152 0.776315 0.201598
H21   H     H_    0.566933 0.270595 0.993974 0.168023
H22   H     H_    0.873857 0.641390 0.187666 0.187104
H23   H     H_    0.256247 0.891062 0.337583 0.159450
H24   H     H_    0.708706 0.144640 0.609431 0.165285
H25   H     H_    0.743748 0.891054 0.662409 0.159457
H26   H     H_    0.291295 0.144649 0.390574 0.165291
H27   H     H_    0.756255 0.391049 0.337597 0.159459
H28   H     H_    0.208704 0.644652 0.609424 0.165293
H29   H     H_    0.243753 0.391061 0.662417 0.159451
H30   H     H_    0.791297 0.644647 0.390575 0.165289
H31   H     H_    0.278762 0.014108 0.799982 0.140167
H32   H     H_    0.646793 0.812560 0.116589 0.179389
H33   H     H_    0.721236 0.014124 0.200017 0.140168
H34   H     H_    0.778763 0.514115 0.799983 0.140165
H35   H     H_    0.221237 0.514118 0.200018 0.140168
H36   H     H_    0.447233 0.004971 0.185902 0.134403
H37   H     H_    0.552766 0.004979 0.814098 0.134408
H38   H     H_    0.947233 0.504975 0.185902 0.134400
H39   H     H_    0.052767 0.504975 0.814098 0.134406
H40   H     H_    0.691528 0.996525 0.492137 0.118835
H41   H     H_    0.308473 0.996515 0.507864 0.118837
H42   H     H_    0.191527 0.496520 0.492137 0.118837
H43   H     H_    0.433071 0.270603 0.006033 0.168023
H44   H     H_    0.808473 0.496520 0.507863 0.118836
H45   H     H_    0.254679 0.003495 0.616600 0.136221
H46   H     H_    0.745320 0.003511 0.383400 0.136220
H47   H     H_    0.754679 0.503503 0.616600 0.136222
H48   H     H_    0.245321 0.503505 0.383400 0.136222
H49   H     H_    0.376570 0.735578 0.788998 0.240965
H50   H     H_    0.331833 0.769696 0.600551 0.233106
H51   H     H_    0.227455 0.749784 0.539125 0.236287
H52   H     H_    0.304509 0.687937 0.592275 0.217969
H53   H     H_    0.565312 0.349418 0.101729 0.233762
H54   H     H_    0.853205 0.312565 0.883410 0.179362
H55   H     H_    0.563652 0.319658 0.257814 0.255794
H56   H     H_    0.632791 0.385069 0.304838 0.209755
H57   H     H_    0.672716 0.304713 0.348440 0.237437
H58   H     H_    0.623410 0.735651 0.210910 0.240942
H59   H     H_    0.668050 0.769569 0.399383 0.233095
H60   H     H_    0.772437 0.749627 0.460898 0.236266
H61   H     H_    0.695308 0.687808 0.407469 0.217965
H62   H     H_    0.434692 0.349444 0.898290 0.233767
H63   H     H_    0.436369 0.319679 0.742221 0.255795
H64   H     H_    0.367216 0.385084 0.695179 0.209758
H65   H     H_    0.066928 0.770606 0.993966 0.168021
H66   H     H_    0.327306 0.304723 0.651590 0.237446
H67   H     H_    0.876611 0.235700 0.789167 0.240928
H68   H     H_    0.832048 0.269466 0.600679 0.233090
H69   H     H_    0.727653 0.249504 0.539095 0.236256
H70   H     H_    0.804836 0.187705 0.592733 0.217964
H71   H     H_    0.065308 0.849445 0.101712 0.233766
H72   H     H_    0.063636 0.819674 0.257786 0.255799
H73   H     H_    0.132780 0.885085 0.304820 0.209759
H74   H     H_    0.172700 0.804727 0.348415 0.237444
H75   H     H_    0.123419 0.235596 0.210965 0.240960
H76   H     H_    0.146780 0.312548 0.116574 0.179421
H77   H     H_    0.168115 0.269646 0.399413 0.233108
H78   H     H_    0.272499 0.249731 0.460873 0.236284
H79   H     H_    0.195428 0.187889 0.407630 0.217971
H80   H     H_    0.934692 0.849424 0.898282 0.233762
H81   H     H_    0.936355 0.819671 0.742197 0.255796
H82   H     H_    0.867221 0.885086 0.695185 0.209757
H83   H     H_    0.827289 0.804732 0.651564 0.237437
H84   H     H_    0.352277 0.908550 0.022646 0.258088
H85   H     H_    0.499660 0.876491 0.195330 0.249202
H86   H     H_    0.472898 0.871157 0.053120 0.223996
H87   H     H_    0.933068 0.770597 0.006027 0.168023
H88   H     H_    0.473823 0.801224 0.125141 0.228214
H89   H     H_    0.535372 0.228122 0.735634 0.258490
H90   H     H_    0.450997 0.157995 0.738880 0.231871
H91   H     H_    0.478938 0.193406 0.869663 0.241658
H92   H     H_    0.546626 0.135934 0.876537 0.221094
H93   H     H_    0.647731 0.908556 0.977386 0.258086
H94   H     H_    0.500351 0.876501 0.804676 0.249200
H95   H     H_    0.527105 0.871154 0.946880 0.223990
H96   H     H_    0.526185 0.801229 0.874848 0.228213
H97   H     H_    0.464628 0.228121 0.264364 0.258493
H98   H     H_    0.368371 0.019552 0.006452 0.126727
H99   H     H_    0.549007 0.157998 0.261114 0.231869
H100  H     H_    0.521052 0.193403 0.130319 0.241654
H101  H     H_    0.453374 0.135930 0.123469 0.221092
H102  H     H_    0.852249 0.408566 0.022656 0.258073
H103  H     H_    0.999647 0.376489 0.195325 0.249194
H104  H     H_    0.972880 0.371224 0.053104 0.224015
H105  H     H_    0.973813 0.301250 0.125047 0.228199
H106  H     H_    0.035370 0.728123 0.735634 0.258489
H107  H     H_    0.950985 0.658006 0.738881 0.231866
H108  H     H_    0.978950 0.693405 0.869687 0.241647
N1    N     N_R   0.433280 0.000000 0.657760 -0.175051
N2    N     N_2   0.116267 0.827933 0.174381 -0.443490
N3    N     N_2   0.185124 0.241991 0.278920 -0.441485
N4    N     N_2   0.883727 0.827922 0.825606 -0.443489
N5    N     N_2   0.373763 0.864380 0.058434 -0.442788
N6    N     N_2   0.545283 0.225961 0.813368 -0.453352
N7    N     N_2   0.626247 0.864388 0.941578 -0.442785
N8    N     N_2   0.454717 0.225960 0.186630 -0.453354
N9    N     N_2   0.873749 0.364392 0.058418 -0.442794
N10   N     N_2   0.045280 0.725963 0.813368 -0.453352
N11   N     N_2   0.126238 0.364381 0.941567 -0.442777
N12   N     N_R   0.566720 1.000000 0.342240 -0.175049
N13   N     N_2   0.954718 0.725961 0.186630 -0.453351
N14   N     N_R   0.933280 0.500000 0.657760 -0.175050
N15   N     N_R   0.066720 0.500000 0.342240 -0.175051
N16   N     N_2   0.314864 0.741996 0.721068 -0.441495
N17   N     N_2   0.616278 0.327915 0.174402 -0.443500
N18   N     N_2   0.685118 0.741990 0.278916 -0.441446
N19   N     N_2   0.383733 0.327933 0.825620 -0.443497
N20   N     N_2   0.814901 0.241978 0.721104 -0.441414
O1    O     O_R   0.600040 0.935040 0.546740 -0.588290
O2    O     O_R   0.444990 0.064930 0.346780 -0.584274
O3    O     O_R   0.444990 0.935070 0.346780 -0.574613
O4    O     O_R   0.555010 0.064930 0.653220 -0.584272
O5    O     O_R   0.055010 0.435070 0.653220 -0.574610
O6    O     O_R   0.944990 0.564930 0.346780 -0.584274
O7    O     O_R   0.944990 0.435070 0.346780 -0.574620
O8    O     O_R   0.055010 0.564930 0.653220 -0.584275
O9    O     O_R   0.399960 0.064960 0.453260 -0.587367
O10   O     O_R   0.399960 0.935040 0.453260 -0.588295
O11   O     O_R   0.600040 0.064960 0.546740 -0.587372
O12   O     O_R   0.100040 0.435040 0.546740 -0.588292
O13   O     O_R   0.899960 0.564960 0.453260 -0.587369
O14   O     O_R   0.899960 0.435040 0.453260 -0.588288
O15   O     O_R   0.100040 0.564960 0.546740 -0.587367
O16   O     O_R   0.555010 0.935070 0.653220 -0.574612

loop_
_geom_bond_atom_site_label_1
_geom_bond_atom_site_label_2
_ccdc_geom_bond_type
H93   N7    S    
C73   C100  A    
C23   H77   S    
C31   H108  S    
C93   H26   S    
C17   N16   S    
C49   N14   A    
C55   C59   A    
C5    C114  A    
C26   H86   S    
C1    C77   S    
H58   N18   S    
C35   C119  A    
C56   C69   A    
C3    C6    A    
C112  C121  A    
C63   O4    A    
C28   H96   S    
C19   N18   S    
C106  C115  A    
C8    C118  A    
C18   H57   S    
Cu3   O6    S    
C110  C119  A    
C2    C123  A    
C43   N1    A    
C32   H6    S    
C105  H18   S    
C32   N11   S    
C79   C105  A    
C27   H92   S    
C23   H79   S    
C65   H98   S    
C60   C61   A    
Cu1   O11   S    
C11   N8    S    
C97   H27   S    
C104  H19   S    
C25   H82   S    
C51   C56   A    
C118  C122  A    
Cu2   O10   S    
Cu2   N1    S    
Cu3   N15   S    
C58   C71   A    
C68   C72   A    
Cu3   O7    S    
H89   N6    S    
C67   H12   S    
C100  H15   S    
C49   C54   A    
C39   C57   A    
C80   C106  A    
C11   C24   A    
C96   O14   A    
C4    C113  A    
C22   H74   S    
H62   N19   S    
C36   H76   S    
C83   C119  A    
C34   H54   S    
C63   O11   A    
C18   N17   S    
C62   C64   A    
C50   N15   A    
C86   C94   A    
C47   H37   S    
Cu4   O5    S    
C108  H20   S    
H97   N8    S    
C53   C61   A    
C17   H50   S    
C44   N12   A    
C52   O10   A    
C113  C122  A    
C42   H48   S    
C1    O16   A    
C71   H34   S    
C87   C95   A    
C5    C126  A    
C46   H42   S    
H4    N11   S    
C41   O9    A    
C59   C72   A    
C57   C70   A    
C84   N3    S    
C107  O15   A    
C3    C112  A    
C20   H63   S    
C88   C97   A    
C26   N5    S    
Cu4   N14   S    
C19   H60   S    
C52   C75   S    
C96   O7    A    
C7    C15   A    
H67   N20   S    
C81   C108  A    
C60   C66   A    
C100  C109  A    
C38   H45   S    
C99   H29   S    
C18   H55   S    
H106  N10   S    
C26   H85   S    
C102  C111  A    
C40   C45   A    
C7    C128  A    
C88   C123  A    
Cu1   O1    S    
C90   N19   S    
C85   O6    A    
C28   H95   S    
C54   C62   A    
C98   H30   S    
C103  H16   S    
C76   C102  A    
C48   C53   A    
C101  H14   S    
C40   C58   A    
Cu3   O12   S    
C78   C104  A    
C95   H28   S    
C64   C67   A    
C21   H69   S    
C105  C114  A    
C25   H83   S    
C9    C126  A    
C30   H105  S    
C73   C91   A    
C32   H7    S    
C31   H3    S    
C27   N6    S    
C28   H94   S    
C14   C35   A    
C47   N1    A    
Cu2   O9    S    
C74   O12   A    
C47   C51   A    
C63   C73   S    
C106  H22   S    
C15   C36   A    
C82   N20   S    
C33   H11   S    
C12   N9    S    
C31   N10   S    
C103  C112  A    
C28   N7    S    
C7    C116  A    
C48   N12   A    
C44   H40   S    
Cu3   O15   S    
C80   C85   S    
C83   C92   A    
H49   N16   S    
H75   N3    S    
C76   C93   A    
Cu4   O8    S    
C40   H47   S    
C16   N13   S    
C17   H51   S    
C8    C127  A    
C48   H36   S    
H8    N13   S    
C78   C95   A    
C84   C120  A    
Cu4   O14   S    
C55   C64   A    
C86   C121  A    
C50   H38   S    
C9    N6    S    
C20   H66   S    
C118  H1    S    
C75   C92   A    
C5    C12   A    
C37   C121  A    
C114  C123  A    
C88   N17   S    
H53   N17   S    
C87   N16   S    
C89   C124  A    
C8    N5    S    
C19   H61   S    
C2    H21   S    
C116  C125  A    
C69   H31   S    
C42   C46   A    
C24   C125  A    
C30   H103  S    
C29   N8    S    
C1    O1    A    
C70   H33   S    
C51   C60   A    
C37   H87   S    
C74   C81   S    
C12   C34   A    
Cu1   O2    S    
C90   C99   A    
C22   N2    S    
C39   H46   S    
H71   N2    S    
C22   H72   S    
C35   H65   S    
C13   H32   S    
C49   H39   S    
Cu1   Cu2   S    
C54   C58   A    
C25   N4    S    
C13   C124  A    
C52   O3    A    
C31   H107  S    
C83   N2    S    
C41   O2    A    
C27   H90   S    
C53   C57   A    
C115  C124  A    
C4    C127  A    
C80   C98   A    
H84   N5    S    
C21   H70   S    
C79   C97   A    
C26   H88   S    
H102  N9    S    
C89   N18   S    
C45   H44   S    
C16   C37   A    
C107  O8    A    
C10   C13   A    
C42   C59   A    
C87   C122  A    
C109  C117  A    
Cu2   O16   S    
C21   N20   S    
C39   C44   A    
C14   N10   S    
C23   H78   S    
C79   C96   S    
C33   H10   S    
C94   H25   S    
C81   C99   A    
C29   H100  S    
C45   N14   A    
C29   H99   S    
C27   H91   S    
C50   C55   A    
C30   N9    S    
C62   C68   A    
C89   C98   A    
C33   H9    S    
C108  C116  A    
C110  C127  A    
C25   H81   S    
C11   C128  A    
C101  C110  A    
C20   N19   S    
C91   H24   S    
H80   N4    S    
C3    C10   A    
C32   H5    S    
C41   C76   S    
C29   H101  S    
C43   H41   S    
C17   H52   S    
C66   C70   A    
C15   N11   S    
C34   C117  A    
C65   C69   A    
Cu4   O13   S    
C18   H56   S    
C2    C9    A    
C72   H35   S    
C90   C125  A    
C85   O13   A    
C92   H23   S    
C67   C71   A    
C84   C93   A    
C111  C120  A    
C4    C14   A    
C74   O5    A    
C36   C120  A    
C6    C115  A    
Cu1   N12   S    
C77   C103  A    
C82   C91   A    
C102  H17   S    
C6    C16   A    
C104  C113  A    
C61   C65   A    
C109  C126  A    
C38   C43   A    
C38   C56   A    
C22   H73   S    
C33   N13   S    
C86   N4    S    
C46   N15   A    
C111  C128  A    
C75   C101  A    
C77   C94   A    
C78   C107  S    
C10   N7    S    
C21   H68   S    
C82   C117  A    
C30   H104  S    
C66   H2    S    
Cu1   O3    S    
C24   H43   S    
C23   N3    S    
C20   H64   S    
Cu2   O4    S    
C68   H13   S    
Cu3   Cu4   S    
C19   H59   S    
