data_mof_unit_21608.cif
_audit_creation_date              2013-03-05T16:02:22-0500
_audit_creation_method            fapswitch 2.2
_symmetry_space_group_name_H-M    P1
_symmetry_Int_Tables_number       1
_space_group_crystal_system       triclinic
_cell_length_a                    15.03316
_cell_length_b                    13.979647
_cell_length_c                    10.834318
_cell_angle_alpha                 89.720953
_cell_angle_beta                  90.504596
_cell_angle_gamma                 89.110988
_cell_volume                      2276.53061356

loop_
_atom_site_label
_atom_site_type_symbol
_atom_site_description
_atom_site_fract_x
_atom_site_fract_y
_atom_site_fract_z
_atom_type_partial_charge
O1    O     O_R   0.367860 0.580280 0.500020 -0.584781
O2    O     O_R   0.367860 0.419720 0.500020 -0.610955
C1    C     C_R   0.326225 0.501645 0.498839 1.046221
O3    O     O_R   0.500000 0.580270 0.314790 -0.576968
O4    O     O_R   0.500000 0.419730 0.314790 -0.590978
C2    C     C_R   0.501782 0.500277 0.257332 0.969520
Zn1   Zn    Zn3+2 0.500020 0.607200 0.499990 1.078882
Zn2   Zn    Zn3+2 0.500020 0.392800 0.499990 1.055534
O5    O     O_R   0.632160 0.580270 0.499960 -0.629549
O6    O     O_R   0.632160 0.419730 0.499960 -0.614550
O7    O     O_R   0.500030 0.580270 0.685200 -0.602928
O8    O     O_R   0.500030 0.419730 0.685200 -0.574839
C3    C     C_R   0.673121 0.499021 0.503094 0.921493
C4    C     C_R   0.503645 0.499476 0.742538 0.955655
C5    C     C_3   0.492045 0.608041 0.069207 0.346542
C6    C     C_3   0.424642 0.431103 0.070655 0.388883
C7    C     C_3   0.496250 0.605045 0.925601 0.033832
C8    C     C_3   0.421725 0.442093 0.927024 0.008866
H1    H     H_    0.431977 0.632438 0.886998 0.177126
H2    H     H_    0.364455 0.488862 0.903597 0.200270
H3    H     H_    0.647763 0.505061 0.103452 0.236561
H4    H     H_    0.607601 0.388564 0.116457 0.227054
H5    H     H_    0.651555 0.481864 0.893794 0.246344
H6    H     H_    0.595148 0.374342 0.907666 0.262533
C9    C     C_3   0.591591 0.459507 0.074623 -0.466301
C10   C     C_3   0.500435 0.500642 0.120930 -0.258554
C11   C     C_3   0.504493 0.498611 0.878822 -0.255211
C12   C     C_3   0.590579 0.450871 0.932741 -0.291673
C13   C     C_R   0.810590 0.557177 0.421839 -0.243427
C14   C     C_R   0.768307 0.496392 0.503552 -0.124319
C15   C     C_R   0.816122 0.434154 0.582756 0.209821
C16   C     C_R   0.909134 0.435045 0.580155 0.070694
C17   C     C_R   0.952251 0.497944 0.497674 0.035078
C18   C     C_R   0.902526 0.558872 0.417414 0.044041
C19   C     C_R   0.960308 0.375910 0.659194 -0.141136
C20   C     C_R   0.051958 0.383972 0.663740 -0.080593
C21   C     C_R   0.094631 0.450211 0.588202 0.029708
C22   C     C_R   0.045248 0.502167 0.498386 0.001007
C23   C     C_R   0.088612 0.562897 0.414641 -0.049142
C24   C     C_R   0.038046 0.623442 0.336425 -0.110284
C25   C     C_R   0.945892 0.621738 0.337031 0.257922
C26   C     C_R   0.185228 0.468916 0.602384 0.195492
C27   C     C_R   0.229632 0.507560 0.501061 -0.259424
C28   C     C_R   0.181813 0.561811 0.411891 0.275032
H7    H     H_    0.770443 0.602832 0.361720 0.206057
H8    H     H_    0.930550 0.324248 0.720090 0.210954
H9    H     H_    0.089264 0.336612 0.725029 0.219445
H10   H     H_    0.069088 0.674435 0.275875 0.233623
C29   C     C_R   0.566813 0.797674 0.443532 0.047117
C30   C     C_R   0.566376 0.200598 0.442470 0.020798
N1    N     N_R   0.500070 0.750030 0.500050 -0.120564
N2    N     N_R   0.500070 0.249970 0.500050 -0.122631
C31   C     C_R   0.432757 0.798002 0.557529 0.135107
C32   C     C_R   0.432821 0.203682 0.557684 0.105988
C33   C     C_R   0.429703 0.899183 0.559862 -0.111975
C34   C     C_R   0.429624 0.102587 0.559718 -0.117250
C35   C     C_R   0.498331 0.949360 0.501127 0.052422
C36   C     C_R   0.498293 0.050638 0.501039 0.052547
C37   C     C_R   0.567484 0.898133 0.442288 0.040913
C38   C     C_R   0.567285 0.100061 0.441791 0.045819
C39   C     C_R   0.360541 0.951090 0.618475 0.246553
C40   C     C_R   0.360339 0.052431 0.618080 0.251628
C41   C     C_R   0.635477 0.048246 0.383312 -0.145242
C42   C     C_R   0.635621 0.948079 0.383652 -0.123895
H11   H     H_    0.619519 0.757171 0.399562 0.159197
H12   H     H_    0.618444 0.239827 0.397122 0.141094
H13   H     H_    0.382074 0.756218 0.601425 0.185828
H14   H     H_    0.382164 0.246646 0.601809 0.196081
H15   H     H_    0.688784 0.085227 0.337426 0.164591
H16   H     H_    0.689021 0.909628 0.337995 0.183726
Br1   Br    Br    0.591795 0.688136 0.134290 -0.357158
Br2   Br    Br    0.449415 0.295343 0.118608 -0.308572
N3    N     N_R   0.222730 0.482466 0.724164 0.229317
O9    O     O_R   0.182628 0.450578 0.821602 -0.278309
O10   O     O_R   0.278742 0.551510 0.739901 -0.408507
N4    N     N_R   0.227167 0.618765 0.322830 0.228178
O11   O     O_R   0.264948 0.697196 0.358245 -0.312302
O12   O     O_R   0.208652 0.607712 0.206463 -0.248129
Br3   Br    Br    0.883639 0.708244 0.226348 -0.390047
Br4   Br    Br    0.265518 0.884486 0.699584 -0.283575
Br5   Br    Br    0.264048 0.121230 0.696686 -0.308579
N5    N     N_R   0.407447 0.654572 0.107283 0.222366
O13   O     O_R   0.333823 0.639677 0.046884 -0.298154
O14   O     O_R   0.407583 0.723186 0.188083 -0.246826
N6    N     N_R   0.336250 0.452144 0.123831 0.236713
O15   O     O_R   0.326039 0.445780 0.242364 -0.381558
O16   O     O_R   0.264634 0.446440 0.055994 -0.223096
N7    N     N_R   0.563390 0.670162 0.874216 0.273437
O17   O     O_R   0.647697 0.647819 0.872411 -0.331917
O18   O     O_R   0.537777 0.752794 0.829486 -0.324813
N8    N     N_R   0.405770 0.349787 0.864889 0.262623
O19   O     O_R   0.468857 0.286069 0.850213 -0.334919
O20   O     O_R   0.325325 0.327413 0.832688 -0.283945
Br6   Br    Br    0.754206 0.354754 0.700499 -0.498660

loop_
_geom_bond_atom_site_label_1
_geom_bond_atom_site_label_2
_geom_bond_distance
_ccdc_geom_bond_type
C7    N7    1.480148 S    
N3    O9    1.300607 A    
C19   C20   1.384599 A    
C6    Br2   1.993897 S    
C2    C10   1.477765 S    
N6    O15   1.297502 A    
C9    C12   1.542475 S    
Zn1   O7    2.039830 S    
C1    C27   1.453587 S    
C37   C42   1.403453 A    
C21   C22   1.410409 A    
C29   H11   1.081991 S    
C38   C41   1.403528 A    
C8    N8    1.480238 S    
C20   C21   1.399678 A    
N4    O12   1.299201 A    
C14   C15   1.404472 A    
O7    C4    1.286555 A    
C35   C37   1.411740 A    
C32   H14   1.079003 S    
C39   Br4   1.932660 S    
C36   C38   1.412356 A    
C20   H9    1.082334 S    
C24   H10   1.080497 S    
C21   C26   1.398095 A    
C28   N4    1.432063 S    
O5    C3    1.283743 A    
C41   H15   1.083503 S    
C29   N1    1.361205 A    
H4    C9    1.110510 S    
C30   N2    1.361224 A    
C42   H16   1.083626 S    
C4    C11   1.476478 S    
Zn2   N2    1.996700 S    
N6    O16   1.301883 A    
N3    O10   1.301554 A    
C18   C25   1.405756 A    
O3    Zn1   2.043329 S    
N2    C32   1.363147 A    
C5    N5    1.482204 S    
C31   C33   1.414855 A    
C6    C10   1.602675 S    
C22   C23   1.410336 A    
C32   C34   1.414898 A    
C7    C11   1.577608 S    
C16   C19   1.403671 A    
C3    C14   1.430800 S    
N4    O11   1.300605 A    
O3    C2    1.282547 A    
C23   C24   1.405008 A    
C5    C10   1.602755 S    
C9    C10   1.565477 S    
C13   C18   1.383905 A    
C13   H7    1.083023 S    
O1    C1    1.273462 A    
C27   C28   1.410323 A    
C13   C14   1.388979 A    
N8    O20   1.299006 A    
C15   C16   1.399044 A    
Zn2   O8    2.043435 S    
C17   C18   1.414916 A    
H5    C12   1.106080 S    
C30   H12   1.082733 S    
Zn2   O6    2.027573 S    
C24   C25   1.386011 A    
C40   Br5   1.931902 S    
O8    C4    1.280520 A    
N5    O14   1.301776 A    
C33   C35   1.411052 A    
C6    N6    1.478914 S    
C34   C40   1.416433 A    
C26   C27   1.400313 A    
N8    O19   1.302294 A    
C5    C7    1.558451 S    
H3    C9    1.109134 S    
C26   N3    1.444709 S    
O1    Zn1   2.027843 S    
O2    Zn2   2.016370 S    
C8    C11   1.575784 S    
H6    C12   1.106338 S    
N7    O18   1.301917 A    
O6    C3    1.276796 A    
C25   Br3   1.925449 S    
O4    Zn2   2.039723 S    
C23   C28   1.401542 A    
C15   Br6   1.940338 S    
C5    Br1   2.010177 S    
C17   C22   1.400156 A    
C29   C37   1.404571 A    
C30   C38   1.405390 A    
C16   C17   1.418498 A    
O2    C1    1.296553 A    
Zn1   N1    1.996728 S    
C35   C36   1.415818 A    
O4    C2    1.284744 A    
C33   C39   1.415463 A    
C7    H1    1.111304 S    
C34   C36   1.410689 A    
C8    H2    1.100083 S    
C39   C40   1.416656 A    
C31   H13   1.079530 S    
C41   C42   1.400258 A    
Zn1   O5    2.016096 S    
N7    O17   1.300944 A    
C6    C8    1.563130 S    
N5    O13   1.300887 A    
C11   C12   1.554845 S    
N1    C31   1.362236 A    
C19   H8    1.080551 S    
