data_mof_unit_8595.cif
_audit_creation_date              2012-12-10T17:21:18-0500
_audit_creation_method            fapswitch 2.2
_symmetry_space_group_name_H-M    P1
_symmetry_Int_Tables_number       1
_space_group_crystal_system       triclinic
_cell_length_a                    9.623419
_cell_length_b                    10.827191
_cell_length_c                    13.877457
_cell_angle_alpha                 92.943565
_cell_angle_beta                  84.654824
_cell_angle_gamma                 88.482259
_cell_volume                      1437.05771504

loop_
_atom_site_label
_atom_site_type_symbol
_atom_type_description
_atom_site_fract_x
_atom_site_fract_y
_atom_site_fract_z
_atom_type_partial_charge
C1    C     C_R   0.497457 0.737228 0.504314 0.816909
C2    C     C_1   0.463179 0.499664 0.786110 -0.179233
C3    C     C_R   0.322481 0.886778 0.654817 -0.171264
C4    C     C_R   0.245286 0.959116 0.727929 -0.144249
C5    C     C_R   0.252104 0.087338 0.730024 -0.150894
C6    C     C_R   0.334037 0.144291 0.657971 -0.147752
C7    C     C_R   0.412773 0.073115 0.582602 0.034505
C8    C     C_R   0.407662 0.942290 0.581614 0.096760
C9    C     C_R   0.493225 0.871104 0.509881 -0.167611
C10   C     C_R   0.588832 0.927380 0.446623 -0.297838
C11   C     C_R   0.604707 0.054324 0.453730 0.448001
C12   C     C_R   0.477125 0.500340 0.682842 0.789393
C13   C     C_R   0.505167 0.128571 0.512900 -0.206347
C14   C     C_R   0.879450 0.350341 0.360434 -0.105463
C15   C     C_R   0.962847 0.284732 0.287140 -0.205053
C16   C     C_R   0.105857 0.280670 0.289146 -0.241206
C17   C     C_R   0.166135 0.345793 0.362451 -0.134827
C18   C     C_R   0.085950 0.425136 0.431998 0.221484
C19   C     C_R   0.936737 0.426369 0.431421 0.167765
C20   C     C_R   0.915362 0.571326 0.564793 -0.057116
C21   C     C_R   0.063114 0.571594 0.564576 -0.063712
C22   C     C_R   0.501618 0.262524 0.503411 0.814663
C23   C     C_R   0.522860 0.499537 0.317159 0.808854
C24   C     C_1   0.536737 0.498740 0.213836 -0.167720
C25   C     C_2   0.557594 0.497661 0.023056 -0.161049
C26   C     C_2   0.442142 0.498429 0.976802 -0.163140
C27   C     C_1   0.452538 0.499031 0.873040 0.000672
C28   C     C_1   0.547253 0.498123 0.126857 0.005366
Cu1   Cu    Cu3+1 0.359340 0.500010 0.500010 0.925761
Cu2   Cu    Cu3+1 0.640660 0.499990 0.499990 0.932034
H1    H     H_    0.339346 0.499036 0.016587 0.157077
H2    H     H_    0.771168 0.333585 0.361127 0.227276
H3    H     H_    0.915521 0.229436 0.232507 0.162992
H4    H     H_    0.170370 0.223213 0.235489 0.155666
H5    H     H_    0.275480 0.329014 0.361708 0.197760
H6    H     H_    0.109255 0.630516 0.617449 0.128906
H7    H     H_    0.660379 0.497160 0.983267 0.155504
H8    H     H_    0.656120 0.871405 0.393382 0.161382
H9    H     H_    0.317585 0.787501 0.658268 0.136094
H10   H     H_    0.181460 0.915390 0.784030 0.132861
H11   H     H_    0.193564 0.143065 0.787769 0.134125
H12   H     H_    0.338893 0.243898 0.664435 0.151840
H13   H     H_    0.851614 0.629994 0.617899 0.137932
N1    N     N_R   0.852210 0.498790 0.499090 -0.204898
N2    N     N_R   0.148080 0.498710 0.499060 -0.196255
O1    O     O_R   0.381190 0.680360 0.500010 -0.578025
O2    O     O_R   0.618760 0.680340 0.500000 -0.576168
O3    O     O_R   0.364420 0.499990 0.637850 -0.588036
O4    O     O_R   0.601990 0.499960 0.637840 -0.574954
O5    O     O_R   0.381240 0.319660 0.500000 -0.610358
O6    O     O_R   0.618810 0.319640 0.499990 -0.576729
O7    O     O_R   0.398010 0.500040 0.362160 -0.585473
O8    O     O_R   0.635580 0.500010 0.362150 -0.592287
O9    O     O_3   0.716770 0.106181 0.402142 -0.626933
C29   C     C_3   0.844278 0.061661 0.434240 0.056697
H14   H     H_    0.930635 0.084509 0.380518 0.179576
H15   H     H_    0.851922 0.959181 0.436164 0.132268
C30   C     C_3   0.869346 0.121196 0.533696 -0.366922
H16   H     H_    0.853596 0.222861 0.534038 0.250766
H17   H     H_    0.793759 0.085860 0.590469 0.208534
C31   C     C_3   0.016900 0.092971 0.559079 -0.877944
H18   H     H_    0.035318 0.991622 0.562389 0.261438
H19   H     H_    0.029622 0.138464 0.630954 0.262099
H20   H     H_    0.095001 0.129849 0.504720 0.266497

loop_
_geom_bond_atom_site_label_1
_geom_bond_atom_site_label_2
_ccdc_geom_bond_type
C10   H8    S    
C31   H20   S    
C23   C24   S    
Cu1   Cu2   S    
C17   H5    S    
C9    C10   A    
C12   O3    A    
Cu1   O1    S    
C22   O5    A    
C2    C12   S    
C30   C31   S    
C12   O4    A    
C23   O7    A    
C3    H9    S    
C26   H1    S    
C21   H6    S    
C19   N1    A    
C25   C28   S    
C4    C5    A    
C11   C13   A    
Cu2   N1    S    
C26   C27   S    
C2    C27   T    
C11   O9    S    
C5    C6    A    
C20   N1    A    
Cu2   O4    S    
C13   C22   S    
C23   O8    A    
C6    C7    A    
C21   N2    A    
Cu1   O5    S    
C29   H15   S    
C31   H18   S    
Cu2   O8    S    
C1    O1    A    
C30   H16   S    
C7    C8    A    
C10   C11   A    
C29   H14   S    
C30   H17   S    
C15   C16   A    
Cu2   O6    S    
C18   N2    A    
C4    H10   S    
Cu2   O2    S    
C7    C13   A    
C20   H13   S    
C1    C9    S    
C20   C21   A    
C17   C18   A    
C3    C8    A    
C6    H12   S    
C29   C30   S    
Cu1   N2    S    
C31   H19   S    
C18   C19   A    
C5    H11   S    
C14   C15   A    
C22   O6    A    
Cu1   O3    S    
C16   H4    S    
C25   C26   D    
O9    C29   S    
C14   C19   A    
C15   H3    S    
C1    O2    A    
C3    C4    A    
C24   C28   T    
C16   C17   A    
C14   H2    S    
C8    C9    A    
Cu1   O7    S    
C25   H7    S    
