data_mof_unit_23339.cif
_audit_creation_date              2013-03-05T15:44:19-0500
_audit_creation_method            fapswitch 2.2
_symmetry_space_group_name_H-M    P1
_symmetry_Int_Tables_number       1
_space_group_crystal_system       triclinic
_cell_length_a                    23.476434
_cell_length_b                    10.926654
_cell_length_c                    9.811343
_cell_angle_alpha                 89.528409
_cell_angle_beta                  90.049434
_cell_angle_gamma                 91.529578
_cell_volume                      2515.81210402

loop_
_atom_site_label
_atom_site_type_symbol
_atom_site_description
_atom_site_fract_x
_atom_site_fract_y
_atom_site_fract_z
_atom_type_partial_charge
O1    O     O_R   0.500010 0.321960 0.617040 -0.566836
O2    O     O_R   0.499990 0.321920 0.382900 -0.566031
C1    C     C_R   0.500450 0.265510 0.500873 0.828664
O3    O     O_R   0.417890 0.499980 0.617100 -0.520217
O4    O     O_R   0.417870 0.499940 0.382950 -0.531081
C2    C     C_R   0.391185 0.498824 0.499790 0.917391
Cu1   Cu    Cu3+1 0.500010 0.500020 0.638630 1.017837
Cu2   Cu    Cu3+1 0.499990 0.499980 0.361370 1.088808
O5    O     O_R   0.500010 0.678080 0.617100 -0.603564
O6    O     O_R   0.499990 0.678040 0.382960 -0.560831
O7    O     O_R   0.582130 0.500060 0.617050 -0.642015
O8    O     O_R   0.582110 0.500020 0.382900 -0.495457
C3    C     C_R   0.503155 0.733718 0.498862 0.816990
C4    C     C_R   0.608615 0.499284 0.499831 0.882591
C5    C     C_R   0.880783 0.590178 0.550232 0.686145
N1    N     N_R   0.851380 0.506506 0.472904 -0.430819
C6    C     C_R   0.878578 0.425961 0.391250 0.695760
C7    C     C_R   0.938593 0.421032 0.392274 -0.112895
C8    C     C_R   0.969755 0.511002 0.467436 -0.089762
C9    C     C_R   0.940687 0.598838 0.543865 -0.158404
C10   C     C_R   0.968552 0.331475 0.319088 0.330457
C11   C     C_R   0.028001 0.334972 0.318756 -0.200912
C12   C     C_R   0.058948 0.423203 0.392778 -0.053840
C13   C     C_R   0.030057 0.512551 0.466799 -0.051214
C14   C     C_R   0.061493 0.602038 0.541216 -0.201639
C15   C     C_R   0.031919 0.693762 0.611538 0.257613
C16   C     C_R   0.972037 0.693013 0.610963 0.377551
C17   C     C_R   0.118560 0.422114 0.396647 0.630473
N2    N     N_R   0.148287 0.506116 0.472469 -0.405243
C18   C     C_R   0.121561 0.594610 0.544262 0.659419
O9    O     O_2   0.851737 0.663912 0.633384 -0.471778
O10   O     O_2   0.847248 0.352763 0.308527 -0.423462
H1    H     H_    0.049961 0.265017 0.263280 0.214869
O11   O     O_2   0.146762 0.337243 0.326024 -0.552932
O12   O     O_2   0.153357 0.673072 0.619874 -0.499061
C19   C     C_R   0.242264 0.583386 0.398896 0.347263
C20   C     C_R   0.301572 0.588702 0.416183 0.265044
C21   C     C_R   0.328516 0.499794 0.496530 -0.336691
C22   C     C_R   0.295289 0.410573 0.567374 0.263640
C23   C     C_R   0.235360 0.418161 0.566006 0.319672
C24   C     C_R   0.209231 0.501191 0.477610 0.052862
C25   C     C_R   0.761322 0.406067 0.548177 0.248648
C26   C     C_R   0.701415 0.406841 0.560773 0.347531
C27   C     C_R   0.670922 0.500651 0.497752 -0.204606
C28   C     C_R   0.699606 0.594429 0.426071 -0.317178
H2    H     H_    0.675286 0.665175 0.376674 0.210839
C29   C     C_R   0.759009 0.597471 0.415844 0.350168
C30   C     C_R   0.790146 0.503179 0.478400 0.065064
C31   C     C_2   0.499144 0.935154 0.394153 0.446184
C32   C     C_2   0.518708 0.862206 0.492959 -0.334780
H3    H     H_    0.550973 0.894635 0.563877 0.101644
C33   C     C_2   0.515997 0.065588 0.399192 0.122952
C34   C     C_2   0.496360 0.132249 0.503920 0.140600
C35   C     C_2   0.459317 0.447105 0.921937 0.431398
N3    N     N_2   0.499380 0.498660 0.846910 -0.077140
C36   C     C_2   0.456283 0.459926 0.078353 0.470819
N4    N     N_2   0.499370 0.498630 0.153040 -0.099308
N5    N     N_R   0.939975 0.231789 0.250848 0.167713
O13   O     O_R   0.910217 0.151716 0.321573 -0.291871
O14   O     O_R   0.953928 0.205856 0.126268 -0.298965
O15   O     O_3   0.671825 0.310918 0.623955 -0.536547
C37   C     C_3   0.676790 0.323100 0.766721 0.105999
H4    H     H_    0.666273 0.416858 0.800418 0.126889
H5    H     H_    0.720580 0.302545 0.801522 0.203100
C38   C     C_3   0.635700 0.232325 0.835450 -0.633806
H6    H     H_    0.643290 0.138205 0.798927 0.241560
H7    H     H_    0.642125 0.234409 0.947506 0.269420
H8    H     H_    0.591199 0.256876 0.811660 0.229704
N6    N     N_R   0.786918 0.695368 0.340034 0.154475
O16   O     O_R   0.762547 0.800326 0.325902 -0.290981
O17   O     O_R   0.834078 0.677397 0.274471 -0.326447
O18   O     O_3   0.452058 0.897295 0.318323 -0.596480
C39   C     C_3   0.466939 0.888865 0.179764 0.085593
H9    H     H_    0.510676 0.853659 0.165455 0.182494
H10   H     H_    0.463612 0.980463 0.130865 0.163545
C40   C     C_3   0.425812 0.799442 0.109395 -0.714065
H11   H     H_    0.421795 0.712932 0.169105 0.300209
H12   H     H_    0.383218 0.839834 0.098374 0.226807
H13   H     H_    0.441836 0.777531 0.006392 0.222467
N7    N     N_R   0.558902 0.113522 0.305953 0.123315
O19   O     O_R   0.566744 0.061110 0.189219 -0.382230
O20   O     O_R   0.597277 0.192878 0.347781 -0.281992
O21   O     O_3   0.463930 0.076077 0.606173 -0.585654
C41   C     C_3   0.497058 0.067755 0.726441 0.134683
H14   H     H_    0.497647 0.154829 0.782998 0.209642
H15   H     H_    0.542253 0.045188 0.706735 0.113592
C42   C     C_3   0.470951 0.969631 0.818751 -0.795724
H16   H     H_    0.468697 0.880342 0.765753 0.266539
H17   H     H_    0.497965 0.960802 0.910573 0.203081
H18   H     H_    0.427385 0.995116 0.849853 0.251475
N8    N     N_R   0.411386 0.389820 0.856978 0.116038
O22   O     O_R   0.360866 0.431772 0.878794 -0.356688
O23   O     O_R   0.416229 0.283236 0.801594 -0.382869
O24   O     O_3   0.516266 0.608110 0.900282 -0.550737
C43   C     C_3   0.573350 0.636103 0.864120 0.240687
H19   H     H_    0.577411 0.667855 0.758072 0.168860
H20   H     H_    0.600935 0.556390 0.880331 0.168390
C44   C     C_3   0.595514 0.743913 0.948571 -0.769293
H21   H     H_    0.642526 0.753351 0.938109 0.234708
H22   H     H_    0.576382 0.829764 0.911615 0.219499
H23   H     H_    0.584567 0.731959 0.057767 0.281430
O25   O     O_3   0.406523 0.421022 0.143165 -0.558686
C45   C     C_3   0.404140 0.291106 0.149052 0.112073
H24   H     H_    0.446633 0.250255 0.166143 0.160415
H25   H     H_    0.385857 0.253110 0.053808 0.186711
C46   C     C_3   0.364964 0.248493 0.264031 -0.796566
H26   H     H_    0.322889 0.291980 0.254659 0.253650
H27   H     H_    0.358763 0.147516 0.260497 0.199049
H28   H     H_    0.384479 0.272699 0.363108 0.229622
N9    N     N_R   0.551680 0.456499 0.107308 0.214950
O26   O     O_R   0.598167 0.519966 0.130881 -0.339616
O27   O     O_R   0.556288 0.342545 0.071770 -0.390340
N10   N     N_R   0.061686 0.791030 0.681325 0.169360
O28   O     O_R   0.052996 0.807332 0.810776 -0.289687
O29   O     O_R   0.089269 0.875243 0.611527 -0.312367
O30   O     O_3   0.944536 0.785079 0.678760 -0.505211
C47   C     C_3   0.935736 0.882863 0.586510 0.093003
H29   H     H_    0.909553 0.852341 0.497638 0.185569
H30   H     H_    0.977037 0.922501 0.548894 0.171772
C48   C     C_3   0.904152 0.983119 0.659104 -0.501359
H31   H     H_    0.897175 0.060879 0.588030 0.239358
H32   H     H_    0.862156 0.947046 0.695673 0.270585
H33   H     H_    0.929514 0.016638 0.747509 0.256652
O31   O     O_3   0.215724 0.666292 0.314614 -0.541216
C49   C     C_3   0.220235 0.625737 0.178838 0.056032
H34   H     H_    0.202778 0.530353 0.167904 0.155345
H35   H     H_    0.265445 0.629669 0.144306 0.194119
C50   C     C_3   0.186100 0.708608 0.086180 -0.684248
H36   H     H_    0.202873 0.804422 0.092974 0.252321
H37   H     H_    0.189430 0.677597 0.979006 0.212057
H38   H     H_    0.140543 0.705266 0.116963 0.266969
O32   O     O_3   0.332819 0.685014 0.359101 -0.560660
C51   C     C_3   0.334013 0.784712 0.450924 0.157660
H39   H     H_    0.378688 0.802176 0.483719 0.183600
H40   H     H_    0.308502 0.770043 0.546253 0.117481
C52   C     C_3   0.312308 0.898500 0.379471 -0.692371
H41   H     H_    0.266400 0.886139 0.354668 0.272436
H42   H     H_    0.317889 0.978596 0.446974 0.177432
H43   H     H_    0.336353 0.917112 0.284252 0.253360
O33   O     O_3   0.321564 0.324093 0.647806 -0.493792
C53   C     C_3   0.310807 0.204064 0.598989 0.145824
H44   H     H_    0.350890 0.170294 0.554995 0.166754
H45   H     H_    0.277168 0.196430 0.518770 0.139913
C54   C     C_3   0.294279 0.119579 0.717619 -0.661916
H46   H     H_    0.253865 0.148634 0.764119 0.257146
H47   H     H_    0.288307 0.024224 0.681067 0.187983
H48   H     H_    0.328216 0.121368 0.796482 0.259272
O34   O     O_3   0.201717 0.342194 0.647773 -0.546259
C55   C     C_3   0.200618 0.391476 0.780483 0.056519
H49   H     H_    0.191473 0.491081 0.779163 0.164180
H50   H     H_    0.242034 0.377714 0.832824 0.211400
C56   C     C_3   0.153868 0.326351 0.862717 -0.707912
H51   H     H_    0.161864 0.226759 0.868950 0.259977
H52   H     H_    0.152919 0.363943 0.967521 0.211101
H53   H     H_    0.111869 0.340279 0.813538 0.263088
N11   N     N_R   0.792624 0.305657 0.603330 0.136940
O35   O     O_R   0.838763 0.325792 0.674164 -0.351250
O36   O     O_R   0.774146 0.193468 0.586359 -0.266989

loop_
_geom_bond_atom_site_label_1
_geom_bond_atom_site_label_2
_geom_bond_distance
_ccdc_geom_bond_type
C42   H16   1.109315 S    
C7    C10   1.420211 A    
C39   H9    1.115439 S    
C8    C9    1.413084 A    
C40   H13   1.108870 S    
Cu1   N3    2.043502 S    
C50   H36   1.111143 S    
N1    C30   1.438101 S    
C47   H30   1.113312 S    
C43   C44   1.525639 S    
Cu1   Cu2   2.720295 S    
C28   H2    1.084126 S    
O30   C47   1.413863 S    
Cu1   O7    1.939646 S    
C15   C16   1.405635 A    
N2    C18   1.367179 A    
C18   O12   1.348300 S    
C17   N2    1.363469 A    
C19   O31   1.381853 S    
C40   H12   1.108593 S    
N6    O16   1.301575 A    
C55   H50   1.112352 S    
C21   C22   1.411086 A    
N7    O19   1.300153 A    
O7    C4    1.308069 A    
C46   H26   1.110907 S    
N5    O14   1.301133 A    
C5    N1    1.365559 A    
C36   N4    1.311479 D    
C7    C8    1.420581 A    
N6    O17   1.301159 A    
O5    C3    1.306500 A    
N9    O26   1.298940 A    
C29   N6    1.441225 S    
C37   H5    1.111008 S    
C45   H24   1.115697 S    
C35   N3    1.307627 D    
C53   H44   1.108975 S    
C41   H14   1.105115 S    
C29   C30   1.414768 A    
O32   C51   1.419018 S    
C38   H7    1.109928 S    
C31   O18   1.387746 S    
N3    O24   1.358763 S    
C49   C50   1.520691 S    
C12   C13   1.410118 A    
C2    C21   1.471898 S    
C41   C42   1.515049 S    
C48   H33   1.110700 S    
C16   O30   1.384807 S    
C31   C33   1.470098 S    
C49   H34   1.115642 S    
C17   O11   1.350041 S    
C10   C11   1.395171 A    
C51   H40   1.119184 S    
C39   H10   1.110939 S    
C54   H48   1.110035 S    
C19   C24   1.398890 A    
O15   C37   1.412545 S    
O3    Cu1   1.939228 S    
C11   C12   1.399258 A    
C48   H32   1.110712 S    
C32   H3    1.082708 S    
C40   H11   1.109882 S    
C28   C29   1.397750 A    
C5    C9    1.408397 A    
C35   C36   1.544061 S    
C23   O34   1.382581 S    
C13   C14   1.416381 A    
C54   H47   1.110000 S    
C53   C54   1.523628 S    
N8    O22   1.301424 A    
N1    C6    1.366220 A    
N5    O13   1.301266 A    
O1    C1    1.300594 A    
C52   H43   1.106544 S    
C25   N11   1.438456 S    
C26   C27   1.404801 A    
C20   C21   1.408765 A    
Cu2   N4    2.044209 S    
N8    O23   1.296961 A    
O21   C41   1.416309 S    
C56   H53   1.110918 S    
Cu2   O8    1.939233 S    
C38   H8    1.109677 S    
C37   H4    1.113104 S    
C6    C7    1.411425 A    
O24   C43   1.411572 S    
C45   H25   1.107250 S    
C25   C30   1.415296 A    
C12   C17   1.400343 A    
O33   C53   1.416226 S    
C51   C52   1.521785 S    
C55   C56   1.520622 S    
C52   H42   1.106800 S    
C23   C24   1.402645 A    
O8    C4    1.304729 A    
C31   C32   1.338699 D    
C44   H22   1.108962 S    
C42   H17   1.106322 S    
C51   H39   1.108904 S    
C39   C40   1.524202 S    
C47   C48   1.521259 S    
O3    C2    1.310156 A    
C25   C26   1.412173 A    
C50   H38   1.111185 S    
C22   C23   1.411613 A    
C33   C34   1.352752 D    
C26   O15   1.384401 S    
C4    C27   1.462570 S    
N10   O28   1.300998 A    
C14   C18   1.414934 A    
Cu1   O5    1.955303 S    
C11   H1    1.083830 S    
C22   O33   1.383534 S    
N11   O35   1.301211 A    
C37   C38   1.519243 S    
N2    C24   1.434018 S    
O1    Cu1   1.958831 S    
Cu2   O6    1.958830 S    
O2    Cu2   1.955303 S    
C27   C28   1.396487 A    
C56   H52   1.110867 S    
O18   C39   1.408271 S    
O6    C3    1.295222 A    
C50   H37   1.110883 S    
O4    Cu2   1.939646 S    
C43   H20   1.109488 S    
N4    N9    1.398527 S    
C5    O9    1.349363 S    
C9    C16   1.415567 A    
C44   H23   1.107831 S    
C47   H29   1.114591 S    
C20   O32   1.381685 S    
C34   O21   1.388911 S    
C54   H46   1.108294 S    
C53   H45   1.116497 S    
O2    C1    1.307041 A    
C14   C15   1.418425 A    
C15   N10   1.434652 S    
C36   O25   1.385649 S    
C35   N8    1.425443 S    
C55   H49   1.114905 S    
C1    C34   1.456762 S    
O4    C2    1.306649 A    
C46   H27   1.109865 S    
N11   O36   1.301326 A    
N7    O20   1.302086 A    
C8    C13   1.415351 A    
C45   C46   1.518398 S    
O34   C55   1.413629 S    
C38   H6    1.110751 S    
O25   C45   1.419865 S    
N9    O27   1.303099 A    
C3    C32   1.441896 S    
C10   N5    1.434220 S    
C56   H51   1.110386 S    
C19   C20   1.402214 A    
C44   H21   1.110492 S    
C42   H18   1.110799 S    
C43   H19   1.097506 S    
C49   H35   1.114060 S    
C6    O10   1.348221 S    
C48   H31   1.110184 S    
C41   H15   1.113117 S    
C33   N7    1.446134 S    
C52   H41   1.109666 S    
O31   C49   1.412318 S    
N10   O29   1.301381 A    
C46   H28   1.105340 S    
