data_mof_unit_31126.cif
_audit_creation_date              2012-12-11T14:42:05-0500
_audit_creation_method            fapswitch 2.2
_symmetry_space_group_name_H-M    P1
_symmetry_Int_Tables_number       1
_space_group_crystal_system       triclinic
_cell_length_a                    18.945021
_cell_length_b                    10.961928
_cell_length_c                    18.810615
_cell_angle_alpha                 90.00815
_cell_angle_beta                  90.070858
_cell_angle_gamma                 90.003149
_cell_volume                      3906.47180204

loop_
_atom_site_label
_atom_site_type_symbol
_atom_type_description
_atom_site_fract_x
_atom_site_fract_y
_atom_site_fract_z
_atom_type_partial_charge
Br1   Br    Br    0.637608 0.589924 0.592619 -0.393266
Br2   Br    Br    0.097789 0.337249 0.086907 -0.445207
Br3   Br    Br    0.402237 0.837529 0.913021 -0.445274
Br4   Br    Br    0.597789 0.837249 0.086907 -0.445207
Br5   Br    Br    0.361847 0.590851 0.407135 -0.393536
Br6   Br    Br    0.137606 0.089921 0.592618 -0.393265
Br7   Br    Br    0.861848 0.090852 0.407135 -0.393534
Br8   Br    Br    0.611675 0.539260 0.921372 -0.404614
Br9   Br    Br    0.388269 0.539416 0.078679 -0.404560
Br10  Br    Br    0.111675 0.039260 0.921372 -0.404614
Br11  Br    Br    0.888269 0.039416 0.078679 -0.404560
Br12  Br    Br    0.902237 0.337529 0.913021 -0.445274
C1    C     C_R   0.725966 0.958410 0.854847 0.561135
C2    C     C_R   0.239400 0.430452 0.929026 -0.044281
C3    C     C_R   0.260618 0.930477 0.070963 -0.044252
C4    C     C_R   0.739400 0.930452 0.929026 -0.044281
C5    C     C_R   0.816871 0.384639 0.031283 -0.102114
C6    C     C_R   0.183168 0.384492 0.968685 -0.102165
C7    C     C_R   0.316871 0.884639 0.031283 -0.102114
C8    C     C_R   0.683168 0.884492 0.968685 -0.102165
C9    C     C_R   0.814766 0.384527 0.958399 0.125570
C10   C     C_R   0.185260 0.384368 0.041569 0.125575
C11   C     C_R   0.314766 0.884527 0.958399 0.125570
C12   C     C_R   0.274039 0.958411 0.145150 0.561128
C13   C     C_R   0.685260 0.884368 0.041569 0.125575
C14   C     C_R   0.751373 0.417145 0.922984 0.030099
C15   C     C_R   0.248630 0.417086 0.077007 0.030102
C16   C     C_R   0.251373 0.917145 0.922984 0.030098
C17   C     C_R   0.748630 0.917086 0.077007 0.030102
C18   C     C_R   0.492040 0.281872 0.536291 0.117802
C19   C     C_R   0.506477 0.282200 0.464257 0.118393
C20   C     C_R   0.992036 0.781872 0.536292 0.117801
C21   C     C_R   0.006475 0.782201 0.464258 0.118396
C22   C     C_R   0.499476 0.171927 0.426467 -0.003523
C23   C     C_R   0.225966 0.458410 0.854847 0.561135
C24   C     C_R   0.499934 0.171611 0.573841 -0.003171
C25   C     C_R   0.999476 0.671928 0.426468 -0.003524
C26   C     C_R   0.999932 0.671610 0.573842 -0.003170
C27   C     C_R   0.496669 0.061887 0.463503 -0.168747
C28   C     C_R   0.503284 0.061777 0.536600 -0.168167
C29   C     C_R   0.996668 0.561887 0.463503 -0.168746
C30   C     C_R   0.003283 0.561776 0.536601 -0.168166
C31   C     C_R   0.824035 0.392008 0.544946 0.051225
C32   C     C_R   0.175979 0.391780 0.455080 0.051121
C33   C     C_R   0.324035 0.892008 0.544946 0.051226
C34   C     C_R   0.774039 0.458411 0.145150 0.561128
C35   C     C_R   0.675979 0.891780 0.455080 0.051121
C36   C     C_R   0.832363 0.418824 0.473786 -0.107465
C37   C     C_R   0.167694 0.418491 0.526258 -0.107774
C38   C     C_R   0.332363 0.918824 0.473786 -0.107466
C39   C     C_R   0.667694 0.918491 0.526258 -0.107774
C40   C     C_R   0.529941 0.177817 0.850818 0.558797
C41   C     C_R   0.470072 0.177811 0.149191 0.558790
C42   C     C_R   0.029941 0.677817 0.850818 0.558797
C43   C     C_R   0.970072 0.677811 0.149191 0.558790
C44   C     C_R   0.781348 0.484519 0.436595 -0.039219
C45   C     C_R   0.700772 0.475950 0.036414 -0.111893
C46   C     C_R   0.218591 0.484589 0.563390 -0.039190
C47   C     C_R   0.281348 0.984518 0.436595 -0.039219
C48   C     C_R   0.718591 0.984589 0.563390 -0.039190
C49   C     C_R   0.724971 0.536288 0.473777 -0.101566
C50   C     C_R   0.274767 0.536838 0.526117 -0.101443
C51   C     C_R   0.224969 0.036287 0.473776 -0.101565
C52   C     C_R   0.774767 0.036839 0.526117 -0.101443
C53   C     C_R   0.714409 0.509103 0.545588 0.139374
C54   C     C_R   0.285344 0.509568 0.454307 0.139529
C55   C     C_R   0.214408 0.009102 0.545588 0.139374
C56   C     C_R   0.299220 0.476006 0.963599 -0.111894
C57   C     C_R   0.785343 0.009568 0.454307 0.139528
C58   C     C_R   0.760934 0.427720 0.580546 0.026638
C59   C     C_R   0.238988 0.427789 0.419428 0.026819
C60   C     C_R   0.260934 0.927720 0.580546 0.026638
C61   C     C_R   0.738988 0.927789 0.419428 0.026818
C62   C     C_R   0.739065 0.366436 0.852087 0.576281
C63   C     C_R   0.260936 0.366422 0.147910 0.576339
C64   C     C_R   0.239065 0.866436 0.852087 0.576281
C65   C     C_R   0.760936 0.866422 0.147910 0.576338
C66   C     C_R   0.709060 0.002390 0.640012 0.554957
C67   C     C_R   0.200772 0.975950 0.036414 -0.111893
C68   C     C_R   0.290920 0.002360 0.359992 0.554866
C69   C     C_R   0.209060 0.502390 0.640012 0.554957
C70   C     C_R   0.790920 0.502360 0.359992 0.554866
C71   C     C_R   0.528537 0.176738 0.645194 0.547261
C72   C     C_R   0.471339 0.176804 0.354910 0.547038
C73   C     C_R   0.028537 0.676738 0.645195 0.547262
C74   C     C_R   0.971339 0.676804 0.354910 0.547038
C75   C     C_R   0.741306 0.366083 0.647499 0.557786
C76   C     C_R   0.258678 0.366119 0.352489 0.557929
C77   C     C_R   0.241306 0.866083 0.647499 0.557786
C78   C     C_R   0.799220 0.976005 0.963599 -0.111894
C79   C     C_R   0.758678 0.866119 0.352489 0.557928
C80   C     C_2   0.497332 0.169417 0.920848 -0.095114
C81   C     C_2   0.502719 0.169410 0.079179 -0.095221
C82   C     C_2   0.997332 0.669417 0.920848 -0.095114
C83   C     C_2   0.002720 0.669410 0.079179 -0.095221
C84   C     C_2   0.490700 0.072128 0.037712 -0.123613
C85   C     C_2   0.509397 0.072150 0.962301 -0.123548
C86   C     C_2   0.990700 0.572129 0.037712 -0.123613
C87   C     C_2   0.009397 0.572150 0.962301 -0.123548
C88   C     C_R   0.695488 0.469768 0.962710 0.114696
C89   C     C_R   0.760618 0.430477 0.070963 -0.044252
C90   C     C_R   0.304498 0.469801 0.037303 0.114699
C91   C     C_R   0.195488 0.969768 0.962710 0.114696
C92   C     C_R   0.804498 0.969802 0.037303 0.114699
Cr1   Cr    Cr6+3 0.769270 0.163730 0.750710 1.111388
Cr2   Cr    Cr6+3 0.385840 0.322500 0.252290 1.143099
Cr3   Cr    Cr6+3 0.114160 0.822500 0.747710 1.143206
Cr4   Cr    Cr6+3 0.885840 0.822500 0.252290 1.143099
Cr5   Cr    Cr6+3 0.230730 0.163730 0.249290 1.111171
Cr6   Cr    Cr6+3 0.269270 0.663730 0.750710 1.111388
Cr7   Cr    Cr6+3 0.730730 0.663730 0.249290 1.111171
Cr8   Cr    Cr6+3 0.612620 0.009790 0.748780 1.093967
Cr9   Cr    Cr6+3 0.387380 0.009790 0.251220 1.094081
Cr10  Cr    Cr6+3 0.112620 0.509790 0.748780 1.093966
Cr11  Cr    Cr6+3 0.887380 0.509790 0.251220 1.094081
Cr12  Cr    Cr6+3 0.614160 0.322500 0.747710 1.143205
H1    H     H_    0.466418 0.990372 0.059045 0.200760
H2    H     H_    0.311148 0.596624 0.553124 0.198077
H3    H     H_    0.188424 0.095651 0.446699 0.198255
H4    H     H_    0.811148 0.096626 0.553123 0.198077
H5    H     H_    0.528339 0.250076 0.057637 0.138429
H6    H     H_    0.471695 0.250059 0.942406 0.138429
H7    H     H_    0.028339 0.750076 0.057637 0.138429
H8    H     H_    0.971696 0.750059 0.942406 0.138429
H9    H     H_    0.658720 0.518510 0.066520 0.198591
H10   H     H_    0.341255 0.518653 0.933512 0.198598
H11   H     H_    0.158720 0.018510 0.066520 0.198591
H12   H     H_    0.533705 0.990423 0.940952 0.200753
H13   H     H_    0.841255 0.018653 0.933512 0.198598
H14   H     H_    0.865148 0.354448 0.056641 0.201587
H15   H     H_    0.134909 0.354229 0.943312 0.201655
H16   H     H_    0.365148 0.854449 0.056641 0.201587
H17   H     H_    0.634909 0.854229 0.943312 0.201655
H18   H     H_    0.488580 0.977031 0.436014 0.181318
H19   H     H_    0.511954 0.976926 0.563906 0.181190
H20   H     H_    0.988580 0.477030 0.436014 0.181318
H21   H     H_    0.011953 0.476925 0.563906 0.181190
H22   H     H_    0.966418 0.490372 0.059045 0.200760
H23   H     H_    0.033705 0.490423 0.940952 0.200753
H24   H     H_    0.878696 0.384526 0.446871 0.189031
H25   H     H_    0.121478 0.383840 0.553218 0.189101
H26   H     H_    0.378696 0.884527 0.446871 0.189030
H27   H     H_    0.621478 0.883839 0.553218 0.189102
H28   H     H_    0.688426 0.595654 0.446699 0.198254
I1    I     I_    0.451607 0.444187 0.584546 -0.148469
I2    I     I_    0.546651 0.445210 0.416652 -0.147072
I3    I     I_    0.951603 0.944186 0.584548 -0.148471
I4    I     I_    0.046652 0.945214 0.416655 -0.147072
I5    I     I_    0.911874 0.293318 0.588478 -0.250147
I6    I     I_    0.088185 0.292929 0.411573 -0.250610
I7    I     I_    0.411874 0.793318 0.588478 -0.250147
I8    I     I_    0.588185 0.792927 0.411574 -0.250609
O1    O     O_R   0.784320 0.290430 0.830510 -0.463336
O2    O     O_R   0.456080 0.282180 0.333210 -0.467231
O3    O     O_R   0.043920 0.782180 0.666790 -0.466896
O4    O     O_R   0.956080 0.782180 0.333210 -0.467231
O5    O     O_R   0.679040 0.374160 0.674430 -0.456072
O6    O     O_R   0.320960 0.374160 0.325570 -0.456139
O7    O     O_R   0.179040 0.874160 0.674430 -0.456072
O8    O     O_R   0.820960 0.874160 0.325570 -0.456139
O9    O     O_3   0.665350 0.165340 0.749070 -0.317591
O10   O     O_3   0.334650 0.165340 0.250930 -0.317544
O11   O     O_3   0.165350 0.665340 0.749070 -0.317590
O12   O     O_R   0.215680 0.290430 0.169490 -0.463353
O13   O     O_3   0.834650 0.665340 0.250930 -0.317544
O14   O     O_R   0.762640 0.040960 0.825200 -0.488773
O15   O     O_R   0.237360 0.040960 0.174800 -0.488815
O16   O     O_R   0.262640 0.540960 0.825200 -0.488774
O17   O     O_R   0.737360 0.540960 0.174800 -0.488815
O18   O     O_R   0.667400 0.923970 0.829950 -0.495954
O19   O     O_R   0.332600 0.923970 0.170050 -0.495868
O20   O     O_R   0.167400 0.423970 0.829950 -0.495954
O21   O     O_R   0.832600 0.423970 0.170050 -0.495868
O22   O     O_R   0.553960 0.081340 0.821780 -0.490415
O23   O     O_R   0.284320 0.790430 0.830510 -0.463336
O24   O     O_R   0.446040 0.081340 0.178220 -0.490395
O25   O     O_R   0.053960 0.581340 0.821780 -0.490415
O26   O     O_R   0.946040 0.581340 0.178220 -0.490394
O27   O     O_R   0.543180 0.283240 0.826740 -0.469202
O28   O     O_R   0.456820 0.283240 0.173260 -0.469256
O29   O     O_R   0.043180 0.783240 0.826740 -0.469202
O30   O     O_R   0.956820 0.783240 0.173260 -0.469256
O31   O     O_R   0.678360 0.375140 0.822710 -0.460242
O32   O     O_R   0.321640 0.375140 0.177290 -0.460207
O33   O     O_R   0.178360 0.875140 0.822710 -0.460242
O34   O     O_R   0.715680 0.790430 0.169490 -0.463353
O35   O     O_R   0.821640 0.875140 0.177290 -0.460207
O36   O     O_R   0.785050 0.289380 0.670560 -0.498477
O37   O     O_R   0.214950 0.289380 0.329440 -0.498466
O38   O     O_R   0.285050 0.789380 0.670560 -0.498477
O39   O     O_R   0.714950 0.789380 0.329440 -0.498467
O40   O     O_R   0.763320 0.039990 0.676930 -0.476773
O41   O     O_R   0.236680 0.039990 0.323070 -0.477168
O42   O     O_R   0.263320 0.539990 0.676930 -0.476774
O43   O     O_R   0.736680 0.539990 0.323070 -0.477167
O44   O     O_R   0.668130 0.922920 0.670000 -0.473775
O45   O     O_R   0.554640 0.080370 0.673500 -0.522148
O46   O     O_R   0.331870 0.922920 0.330000 -0.473417
O47   O     O_R   0.168130 0.422920 0.670000 -0.473775
O48   O     O_R   0.831870 0.422920 0.330000 -0.473418
O49   O     O_R   0.445360 0.080370 0.326500 -0.522008
O50   O     O_R   0.054640 0.580370 0.673500 -0.522149
O51   O     O_R   0.945360 0.580370 0.326500 -0.522007
O52   O     O_R   0.543920 0.282180 0.666790 -0.466897

loop_
_geom_bond_atom_site_label_1
_geom_bond_atom_site_label_2
_ccdc_geom_bond_type
C72   O49   A    
C32   C37   A    
Cr1   O1    S    
Cr4   O13   S    
C4    C78   A    
C65   O34   A    
C56   H10   S    
C29   C30   A    
C2    C6    A    
Cr4   O35   S    
Cr8   O22   S    
C9    C14   A    
C87   H23   S    
Br4   C13   S    
Cr10  O11   S    
C83   C86   D    
Cr9   O19   S    
C20   I3    S    
Cr6   O23   S    
C3    C7    A    
C68   O41   A    
C48   C66   S    
C86   H22   S    
C38   C47   A    
C82   C87   D    
Cr1   O36   S    
Br10  C91   S    
C56   C90   A    
C26   C30   A    
C72   O2    A    
Cr5   O10   S    
C45   H9    S    
C18   C19   A    
C48   C52   A    
C8    C13   A    
C58   C75   S    
C24   C71   S    
C53   C58   A    
Cr12  O31   S    
Cr1   O14   S    
C32   C59   A    
C55   C60   A    
C73   O3    A    
C12   O19   A    
C5    C89   A    
Cr8   O44   S    
C74   O4    A    
Cr5   O15   S    
Cr9   O10   S    
C19   I2    S    
Cr6   O16   S    
Cr4   O30   S    
Cr8   O18   S    
Cr5   O37   S    
Br9   C90   S    
Cr2   O2    S    
C37   H25   S    
Cr6   O42   S    
Br1   C53   S    
C77   O38   A    
Cr10  O50   S    
Cr5   O41   S    
Br11  C92   S    
Cr7   O13   S    
Cr9   O49   S    
C8    H17   S    
C71   O45   A    
C31   C36   A    
C31   I5    S    
Cr12  O27   S    
C69   O42   A    
C61   C79   S    
C6    C10   A    
C30   H21   S    
C23   O20   A    
C78   H13   S    
Cr1   O40   S    
C67   C91   A    
C6    H15   S    
C22   C72   S    
C85   H12   S    
C15   C63   S    
C63   O32   A    
Cr2   O28   S    
Cr12  O52   S    
C80   C85   D    
C77   O7    A    
C13   C17   A    
C76   O37   A    
C28   H19   S    
C51   C55   A    
C34   O21   A    
C50   H2    S    
C50   C54   A    
C26   C73   S    
C41   C81   S    
C22   C27   A    
C84   H1    S    
C24   C28   A    
C12   O15   A    
C66   O40   A    
C35   C61   A    
C43   C83   S    
C46   C69   S    
C2    C23   S    
C36   H24   S    
Br5   C54   S    
C35   C39   A    
C62   O31   A    
Br3   C11   S    
Cr2   O6    S    
C45   C88   A    
C79   O39   A    
Br12  C9    S    
Cr6   O38   S    
C32   I6    S    
C37   C46   A    
Cr7   O39   S    
C62   O1    A    
Cr11  O51   S    
C63   O12   A    
C33   I7    S    
C7    C11   A    
C70   O48   A    
Cr8   O9    S    
C21   I4    S    
C80   H6    S    
C51   H3    S    
C25   C74   S    
C49   H28   S    
C54   C59   A    
Cr4   O4    S    
C4    C8    A    
Cr10  O25   S    
C68   O46   A    
C84   C85   S    
C81   H5    S    
C23   O16   A    
C70   O43   A    
C42   O29   A    
C66   O44   A    
C11   C16   A    
C57   C61   A    
C78   C92   A    
C79   O8    A    
C46   C50   A    
Cr9   O24   S    
C73   O50   A    
C1    O18   A    
Cr3   O29   S    
C81   C84   D    
C76   O6    A    
Cr10  O47   S    
C65   O35   A    
C43   O26   A    
Cr1   O9    S    
C40   C80   S    
Cr11  O13   S    
C16   C64   S    
C41   O28   A    
C40   O22   A    
Cr8   O45   S    
C27   C28   A    
C19   C22   A    
C39   H27   S    
C18   I1    S    
C21   C25   A    
Cr9   O46   S    
C83   H7    S    
C7    H16   S    
C36   C44   A    
C67   H11   S    
C3    C12   S    
Cr7   O34   S    
C5    H14   S    
Cr12  O9    S    
C52   C57   A    
C64   O23   A    
Cr3   O11   S    
C71   O52   A    
Cr5   O12   S    
C34   C89   S    
C47   C68   S    
Cr10  O20   S    
Cr3   O7    S    
Cr6   O11   S    
C34   O17   A    
C44   C70   S    
C75   O36   A    
Cr4   O8    S    
C3    C67   A    
C31   C58   A    
C45   C89   A    
Cr11  O48   S    
Cr3   O33   S    
C15   C90   A    
C47   C51   A    
C20   C26   A    
C52   H4    S    
C42   O25   A    
C18   C24   A    
C10   C15   A    
C20   C21   A    
Br7   C57   S    
Br8   C88   S    
C40   O27   A    
Cr12  O5    S    
Cr11  O21   S    
Br6   C55   S    
Br2   C10   S    
C60   C77   S    
C16   C91   A    
C1    O14   A    
C33   C38   A    
C14   C62   S    
C43   O30   A    
Cr2   O10   S    
C49   C53   A    
C25   C29   A    
C5    C9    A    
C42   C82   S    
Cr11  O26   S    
C69   O47   A    
C59   C76   S    
C75   O5    A    
C17   C65   S    
C35   I8    S    
C17   C92   A    
C86   C87   S    
C1    C4    S    
C14   C88   A    
C2    C56   A    
C44   C49   A    
C39   C48   A    
Cr7   O17   S    
Cr2   O32   S    
C74   O51   A    
C29   H20   S    
Cr3   O3    S    
C64   O33   A    
C38   H26   S    
C41   O24   A    
Cr7   O43   S    
C33   C60   A    
C27   H18   S    
C82   H8    S    
