data_mof_unit_67112.cif
_audit_creation_date              2013-03-05T15:58:40-0500
_audit_creation_method            fapswitch 2.2
_symmetry_space_group_name_H-M    P1
_symmetry_Int_Tables_number       1
_space_group_crystal_system       triclinic
_cell_length_a                    8.260773
_cell_length_b                    12.880144
_cell_length_c                    14.950477
_cell_angle_alpha                 96.021883
_cell_angle_beta                  97.36757
_cell_angle_gamma                 98.674465
_cell_volume                      1546.97611452

loop_
_atom_site_label
_atom_site_type_symbol
_atom_site_description
_atom_site_fract_x
_atom_site_fract_y
_atom_site_fract_z
_atom_type_partial_charge
P1    P     P_3+3 0.998770 0.403620 0.291990 0.496357
O1    O     O_2   0.827930 0.435360 0.277760 -0.351295
O2    O     O_3   0.100310 0.439010 0.391180 -0.359320
O3    O     O_3   0.625610 0.634200 0.333270 -0.362512
O4    O     O_2   0.664547 0.520054 0.180340 -0.362398
O5    O     O_3   0.954725 0.266681 0.285180 -0.527572
O6    O     O_3   0.691624 0.714572 0.168336 -0.499219
H1    H     H_    0.609785 0.844454 0.226763 0.091359
C1    C     C_3   0.669766 0.862389 0.091674 -0.783710
H2    H     H_    0.799903 0.895135 0.118687 0.243391
H3    H     H_    0.667628 0.812581 0.026096 0.255617
P2    P     P_3+3 0.687370 0.751000 0.571300 0.493684
P3    P     P_3+3 0.106954 0.828369 0.383275 0.538503
O7    O     O_2   0.857120 0.766320 0.543890 -0.367647
O8    O     O_3   0.056570 0.691100 0.379020 -0.368052
O9    O     O_2   0.982741 0.880195 0.434479 -0.324871
O10   O     O_3   0.727642 0.781470 0.690145 -0.529347
O11   O     O_3   0.060539 0.854442 0.271720 -0.480394
C2    C     C_3   0.166277 0.804759 0.221694 0.275301
H4    H     H_    0.161110 0.720413 0.233326 0.093186
H5    H     H_    0.296430 0.846280 0.240873 0.028131
C3    C     C_3   0.112037 0.803064 0.120828 -0.692932
H6    H     H_    0.978615 0.769357 0.102405 0.227376
C4    C     C_3   0.344444 0.800085 0.748091 0.107236
H7    H     H_    0.446136 0.754986 0.757219 0.097604
C5    C     C_3   0.324684 0.862332 0.839098 -0.613706
H8    H     H_    0.449138 0.904358 0.870102 0.107748
Ba1   Ba    Ba6+2 0.843760 0.550230 0.455610 1.623996
C6    C     C_3   0.908592 0.224998 0.193480 0.222820
H9    H     H_    0.000670 0.256172 0.150645 0.057168
H10   H     H_    0.785037 0.243209 0.167420 0.133420
C7    C     C_3   0.901518 0.106131 0.185878 -0.646496
H11   H     H_    0.853728 0.072267 0.114451 0.205023
H12   H     H_    0.028728 0.088412 0.203130 0.202330
C8    C     C_3   0.759077 0.692345 0.731387 0.466850
H13   H     H_    0.883565 0.677518 0.720330 0.137152
H14   H     H_    0.666093 0.620828 0.704672 0.105129
C9    C     C_3   0.755265 0.714421 0.833453 -0.926725
H15   H     H_    0.805197 0.652310 0.868838 0.226172
H16   H     H_    0.628957 0.712410 0.849769 0.206672
H17   H     H_    0.826767 0.793730 0.861176 0.313801
P4    P     P_3+3 0.190950 0.596470 0.708020 0.485074
O12   O     O_2   0.361790 0.564680 0.722290 -0.426061
O13   O     O_3   0.089410 0.561080 0.608830 -0.352455
O14   O     O_3   0.564100 0.365890 0.666740 -0.367591
O15   O     O_3   0.195702 0.734339 0.709765 -0.548190
P5    P     P_3+3 0.088700 0.171807 0.622875 0.509102
O16   O     O_3   0.601940 0.368260 0.453780 -0.393791
O17   O     O_3   0.133140 0.308990 0.620990 -0.405501
O18   O     O_2   0.224588 0.123277 0.578948 -0.309783
O19   O     O_3   0.125288 0.150732 0.737331 -0.527613
Ba2   Ba    Ba6+2 0.346080 0.449860 0.544400 1.614390
P6    P     P_3+3 0.580462 0.612129 0.213570 0.449868
C10   C     C_3   0.598803 0.795901 0.159782 0.369997
H18   H     H_    0.466457 0.766086 0.134291 0.088072
H19   H     H_    0.599467 0.927628 0.079705 0.278518
O20   O     O_3   0.587770 0.631830 0.546230 -0.416968
C11   C     C_3   0.415243 0.294086 0.267657 0.463606
H20   H     H_    0.303265 0.314708 0.294110 0.078519
H21   H     H_    0.517157 0.363000 0.283425 0.127099
C12   C     C_3   0.375864 0.267249 0.164782 -0.976887
H22   H     H_    0.269873 0.201247 0.146779 0.253845
H23   H     H_    0.342942 0.336700 0.133184 0.223458
H24   H     H_    0.484866 0.243472 0.136845 0.278500
P7    P     P_3+3 0.506570 0.234644 0.423114 0.474292
O21   O     O_2   0.332600 0.233710 0.456170 -0.348648
O22   O     O_3   0.462188 0.205701 0.304744 -0.537162
H25   H     H_    0.181261 0.748058 0.086634 0.154139
C13   C     C_3   0.139267 0.248530 0.791936 0.499089
H26   H     H_    0.247617 0.303679 0.779588 0.176630
H27   H     H_    0.027354 0.284856 0.776575 -0.018549
C14   C     C_3   0.163625 0.234460 0.892242 -0.879332
H28   H     H_    0.285362 0.210483 0.911401 0.293968
H29   H     H_    0.164881 0.310278 0.934381 0.194630
H30   H     H_    0.061973 0.175283 0.907566 0.300510
P8    P     P_3+3 0.608057 0.376940 0.784022 0.490168
C15   C     C_3   0.670370 0.190875 0.806173 0.322705
H31   H     H_    0.796628 0.235048 0.828125 0.026925
O23   O     O_2   0.488386 0.444277 0.822124 -0.395907
O24   O     O_3   0.546827 0.253049 0.817387 -0.539161
H32   H     H_    0.657981 0.157004 0.733560 0.052456
C16   C     C_3   0.648646 0.102359 0.865177 0.705827
H33   H     H_    0.521403 0.059549 0.843268 0.039445
C17   C     C_R   0.360755 0.561646 0.169629 0.104822
H34   H     H_    0.325091 0.526690 0.303636 0.160992
H35   H     H_    0.517788 0.606962 0.026929 0.173883
C18   C     C_R   0.107865 0.469852 0.207758 0.233427
C19   C     C_R   0.917460 0.483107 0.767350 -0.617691
C20   C     C_R   0.821139 0.439503 0.827802 0.188753
C21   C     C_R   0.886668 0.436992 0.918374 0.364330
C22   C     C_R   0.051221 0.488529 0.953240 -0.147353
C23   C     C_R   0.150942 0.529924 0.888882 -0.087992
C24   C     C_R   0.121558 0.499826 0.048616 0.089372
C25   C     C_R   0.291577 0.545428 0.075961 -0.006471
C26   C     C_R   0.387698 0.574913 0.009788 -0.115126
C27   C     C_R   0.317519 0.571336 0.920078 -0.013928
C28   C     C_R   0.030622 0.468182 0.118642 -0.323723
C29   C     C_R   0.268507 0.521798 0.233563 -0.449778
C30   C     C_R   0.080576 0.530652 0.795577 0.294469
H36   H     H_    0.899523 0.442855 0.108111 0.223236
H37   H     H_    0.863275 0.481059 0.697218 0.183758
H38   H     H_    0.396689 0.607773 0.876928 0.148258
C31   C     C_R   0.779067 0.177159 0.523309 -0.383099
C32   C     C_R   0.423430 0.811689 0.466609 -0.450264
C33   C     C_R   0.389886 0.987175 0.432787 -0.185017
C34   C     C_R   0.324747 0.880362 0.430929 0.218285
C35   C     C_R   0.583806 0.849013 0.511802 0.303178
C36   C     C_R   0.651400 0.959564 0.517278 0.027421
C37   C     C_R   0.552841 0.028723 0.475247 -0.051974
C38   C     C_R   0.618716 0.138118 0.478833 0.236552
C39   C     C_R   0.876775 0.111661 0.565186 0.197314
C40   C     C_R   0.812208 0.003791 0.563784 -0.120130
H39   H     H_    0.310590 0.036886 0.401702 0.182572
H40   H     H_    0.889098 0.955782 0.598860 0.184541
H41   H     H_    0.829244 0.260088 0.524870 0.166782
H42   H     H_    0.370625 0.729064 0.464063 0.162597
C41   C     C_2   0.205357 0.939431 0.829512 1.163074
O25   O     O_2   0.225533 0.018305 0.884925 -0.659993
O26   O     O_R   0.063497 0.915157 0.764359 -0.741913
H43   H     H_    0.987954 0.969791 0.768747 0.376535
C42   C     C_2   0.266219 0.794447 0.905622 1.058315
O27   O     O_2   0.357977 0.789776 0.974901 -0.719576
O28   O     O_R   0.102001 0.745224 0.892537 -0.806775
H44   H     H_    0.069170 0.709808 0.946016 0.301516
C43   C     C_2   0.791393 0.058767 0.248683 1.144653
O29   O     O_2   0.850906 0.021948 0.314984 -0.603281
O30   O     O_R   0.621050 0.056828 0.230649 -0.767347
H45   H     H_    0.559216 0.020490 0.276148 0.316174
O31   O     O_3   0.763265 0.034901 0.850742 -0.746173
H46   H     H_    0.740097 0.976544 0.888043 0.348169
O32   O     O_3   0.671404 0.143216 0.957649 -0.766015
H47   H     H_    0.564281 0.162208 0.971256 0.328772
O33   O     O_3   0.792708 0.372708 0.966532 -0.727209
H48   H     H_    0.864481 0.323284 0.989771 0.321424
C44   C     C_2   0.150534 0.910054 0.089493 1.177680
O34   O     O_2   0.044978 0.943136 0.040455 -0.655529
O35   O     O_R   0.309747 0.968784 0.112216 -0.778365
H49   H     H_    0.323900 0.035569 0.081773 0.343713
C45   C     C_2   0.390047 0.881012 0.685156 0.958531
O36   O     O_2   0.529701 0.931728 0.697676 -0.634565
O37   O     O_R   0.273549 0.907240 0.618561 -0.745838
H50   H     H_    0.159880 0.862909 0.611479 0.354966

loop_
_geom_bond_atom_site_label_1
_geom_bond_atom_site_label_2
_geom_bond_distance
_ccdc_geom_bond_type
P1    C18   1.846711 S    
C24   C25   1.427666 A    
C27   H38   1.069251 S    
O3    P6    1.764246 S    
C12   H24   1.109884 S    
Ba1   Ba2   4.526820 S    
C39   C40   1.408121 A    
C5    C41   1.505736 S    
C32   C34   1.391567 A    
C19   H37   1.081979 S    
O8    Ba1   2.771969 S    
O28   H44   1.007829 S    
P5    O17   1.753585 S    
Ba1   O20   2.918637 S    
C5    H8    1.105479 S    
P3    O11   1.741743 S    
P2    Ba1   3.462668 S    
P6    C17   1.843105 S    
C33   H39   1.079770 S    
O2    Ba1   2.936199 S    
C2    H5    1.113339 S    
C4    C5    1.545399 S    
O11   C2    1.402697 S    
C6    C7    1.514982 S    
C13   H26   1.103570 S    
C41   O26   1.397380 S    
C9    H15   1.105602 S    
O2    Ba2   2.836070 S    
O12   Ba2   2.881922 S    
C11   H21   1.109950 S    
C23   C27   1.399061 A    
C36   C37   1.433960 A    
C31   C39   1.393470 A    
P1    O1    1.522942 D    
P4    O15   1.767648 S    
C13   H27   1.106751 S    
H34   C29   1.082437 S    
C32   H42   1.082361 S    
C26   C27   1.384421 A    
P7    O22   1.749044 S    
P2    O10   1.756245 S    
P1    Ba1   3.428265 S    
C35   C36   1.438745 A    
P8    O23   1.534076 D    
C5    C42   1.471460 S    
O16   P7    1.767916 S    
C1    H2    1.101286 S    
P8    C20   1.828149 S    
C18   C29   1.379928 A    
O13   Ba2   2.937026 S    
C11   C12   1.522193 S    
C25   C26   1.393847 A    
P4    O13   1.591946 S    
C14   H30   1.109732 S    
C40   H40   1.077907 S    
O3    Ba1   2.814298 S    
P5    O18   1.548122 D    
C4    C45   1.513928 S    
P1    O5    1.735786 S    
C44   O34   1.221910 D    
C2    C3    1.513978 S    
C4    H7    1.093692 S    
C9    H17   1.109297 S    
C14   H29   1.103099 S    
H35   C26   1.079028 S    
H1    C10   1.109189 S    
C22   C23   1.437742 A    
C21   O33   1.371490 S    
C14   H28   1.107745 S    
P5    O19   1.755771 S    
O14   Ba2   2.813639 S    
C11   H20   1.108382 S    
C15   H31   1.101490 S    
Ba1   O13   2.835470 S    
C36   C40   1.422786 A    
P1    O2    1.591945 S    
C8    H13   1.103425 S    
C7    H12   1.112699 S    
C7    C43   1.501084 S    
C13   C14   1.520799 S    
C31   H41   1.082591 S    
C6    H9    1.112051 S    
C22   C24   1.452751 A    
C15   H32   1.112651 S    
O26   H43   1.011038 S    
O17   Ba2   2.772600 S    
C8    C9    1.527859 S    
C12   H23   1.107447 S    
C1    H19   1.107899 S    
C17   C25   1.424300 A    
C16   O31   1.399724 S    
C1    H3    1.110537 S    
C3    H25   1.100680 S    
C42   O27   1.215097 D    
P2    O20   1.610186 S    
P2    O7    1.501366 D    
P7    O21   1.577305 D    
C31   C38   1.397379 A    
O33   H48   0.992420 S    
P4    O12   1.523244 D    
O6    P6    1.738567 S    
O32   H47   0.992640 S    
C24   C28   1.423153 A    
C28   H36   1.069101 S    
Ba2   O21   2.932843 S    
O31   H46   0.992239 S    
C33   C34   1.395665 A    
C15   O24   1.404706 S    
O4    P6    1.532681 D    
C44   O35   1.396005 S    
C33   C37   1.411988 A    
C10   H18   1.106242 S    
Ba1   O16   2.836350 S    
C8    H14   1.108488 S    
P8    O24   1.743344 S    
P3    C34   1.844097 S    
P2    C35   1.866304 S    
C45   O36   1.218321 D    
O19   C13   1.408093 S    
O35   H49   1.013026 S    
C41   O25   1.217836 D    
C3    C44   1.503685 S    
C4    O15   1.399620 S    
C7    H11   1.108442 S    
C2    H4    1.113493 S    
P3    O8    1.746685 S    
C20   C21   1.397901 A    
C17   C29   1.389074 A    
C6    H10   1.112643 S    
P4    C30   1.889258 S    
C9    H16   1.098771 S    
C45   O37   1.398006 S    
C21   C22   1.426060 A    
C43   O29   1.221933 D    
C15   C16   1.516607 S    
P5    C39   1.863415 S    
O14   P8    1.730713 S    
C12   H22   1.108507 S    
P7    C38   1.861364 S    
C42   O28   1.388160 S    
C19   C30   1.385573 A    
Ba2   O20   2.835728 S    
C11   O22   1.401524 S    
O16   Ba2   2.917737 S    
O5    C6    1.401010 S    
C19   C20   1.386184 A    
C16   H33   1.102344 S    
P3    O9    1.544456 D    
C37   C38   1.424688 A    
C43   O30   1.394323 S    
C3    H6    1.109882 S    
O1    Ba1   2.881522 S    
C1    C10   1.516056 S    
O10   C8    1.400975 S    
O6    C10   1.395308 S    
O7    Ba1   2.932567 S    
C16   O32   1.405144 S    
O37   H50   1.009477 S    
C32   C35   1.397484 A    
O30   H45   1.013151 S    
C23   C30   1.442324 A    
P4    Ba2   3.428806 S    
C18   C28   1.398043 A    
