data_mof_unit_45249.cif
_audit_creation_date              2012-12-10T16:50:13-0500
_audit_creation_method            fapswitch 2.2
_symmetry_space_group_name_H-M    P1
_symmetry_Int_Tables_number       1
_space_group_crystal_system       triclinic
_cell_length_a                    23.492184
_cell_length_b                    8.676231
_cell_length_c                    7.554906
_cell_angle_alpha                 102.554064
_cell_angle_beta                  95.487938
_cell_angle_gamma                 93.902876
_cell_volume                      1489.89340169

loop_
_atom_site_label
_atom_site_type_symbol
_atom_type_description
_atom_site_fract_x
_atom_site_fract_y
_atom_site_fract_z
_atom_type_partial_charge
C1    C     C_R   0.497315 0.200174 0.453919 0.881009
C2    C     C_R   0.502685 0.799826 0.546080 0.881009
C3    C     C_R   0.245734 0.540619 0.673161 0.203020
C4    C     C_R   0.754265 0.459509 0.326802 0.203107
C5    C     C_R   0.305113 0.538497 0.669053 -0.224522
C6    C     C_R   0.694888 0.461663 0.330925 -0.224527
C7    C     C_R   0.328524 0.499936 0.502336 -0.067965
C8    C     C_R   0.671476 0.500048 0.497655 -0.067976
C9    C     C_R   0.291725 0.462107 0.338395 -0.218049
C10   C     C_R   0.708274 0.537679 0.661596 -0.218038
C11   C     C_R   0.232552 0.462099 0.341286 -0.145650
C12   C     C_R   0.767446 0.537661 0.658688 -0.145625
C13   C     C_R   0.209252 0.501165 0.507222 0.371794
C14   C     C_R   0.790747 0.498764 0.492739 0.371769
C15   C     C_2   0.492658 0.031962 0.429839 -0.368626
C16   C     C_2   0.507341 0.968038 0.570161 -0.368627
C17   C     C_R   0.391123 0.499493 0.500397 0.793911
C18   C     C_R   0.608877 0.500505 0.499602 0.793925
C19   C     C_R   0.882583 0.628175 0.462592 0.532181
C20   C     C_R   0.117417 0.371753 0.537368 0.532163
C21   C     C_R   0.877932 0.371551 0.531216 0.535008
C22   C     C_R   0.122067 0.628371 0.468724 0.535022
C23   C     C_R   0.937626 0.369147 0.534159 -0.013557
C24   C     C_R   0.062373 0.630776 0.465785 -0.013564
C25   C     C_R   0.969956 0.499970 0.499268 -0.016152
C26   C     C_R   0.030043 0.499954 0.500679 -0.016153
C27   C     C_R   0.942345 0.630835 0.463050 -0.014133
C28   C     C_R   0.057654 0.369091 0.536902 -0.014126
C29   C     C_R   0.965605 0.239536 0.570692 -0.164707
C30   C     C_R   0.034394 0.760388 0.429253 -0.164709
C31   C     C_R   0.025020 0.239483 0.571993 -0.176568
C32   C     C_R   0.974979 0.760442 0.427958 -0.176565
Cu1   Cu    Cu3+1 0.506340 0.517380 0.684380 0.940803
Cu2   Cu    Cu3+1 0.493660 0.482620 0.315620 0.940807
H1    H     H_    0.941712 0.137897 0.598570 0.194537
H2    H     H_    0.058287 0.862026 0.401373 0.194533
H3    H     H_    0.045266 0.137881 0.601023 0.184792
H4    H     H_    0.954733 0.862046 0.398931 0.184793
H5    H     H_    0.333002 0.568589 0.796809 0.167123
H6    H     H_    0.667001 0.431733 0.203165 0.167113
H7    H     H_    0.308565 0.431400 0.207979 0.162932
H8    H     H_    0.691434 0.568249 0.792024 0.162940
H9    H     H_    0.204449 0.431277 0.214254 0.147920
H10   H     H_    0.795550 0.568341 0.785717 0.147914
H11   H     H_    0.475683 0.960737 0.296531 0.163094
H12   H     H_    0.524317 0.039263 0.703469 0.163097
N1    N     N_R   0.851820 0.499435 0.495196 -0.473725
N2    N     N_R   0.148179 0.500489 0.504752 -0.473731
N3    N     N_2   0.484110 0.456420 0.038520 -0.057061
N4    N     N_2   0.515890 0.543580 0.961480 -0.057068
O1    O     O_R   0.504120 0.286130 0.619770 -0.591140
O2    O     O_R   0.495880 0.713870 0.380230 -0.591136
O3    O     O_R   0.493410 0.256770 0.308360 -0.593901
O4    O     O_R   0.506590 0.743230 0.691640 -0.593901
O5    O     O_R   0.423230 0.514630 0.655730 -0.596882
O6    O     O_R   0.576770 0.485370 0.344270 -0.596885
O7    O     O_R   0.412530 0.485280 0.344320 -0.581686
O8    O     O_R   0.587470 0.514720 0.655680 -0.581694
O9    O     O_2   0.855322 0.752737 0.429578 -0.516937
O10   O     O_2   0.144679 0.247200 0.570402 -0.516949
O11   O     O_2   0.846125 0.247091 0.563245 -0.514574
O12   O     O_2   0.153874 0.752825 0.436683 -0.514575
C33   C     C_3   0.223216 0.585918 0.855575 -0.800570
H13   H     H_    0.242825 0.705626 0.928732 0.237602
H14   H     H_    0.175924 0.588743 0.843977 0.238909
H15   H     H_    0.234990 0.499125 0.937944 0.223690
C34   C     C_3   0.776782 0.414422 0.144371 -0.800698
H16   H     H_    0.824067 0.411396 0.155949 0.238930
H17   H     H_    0.757117 0.294849 0.070946 0.237559
H18   H     H_    0.765069 0.501459 0.062274 0.223716
C35   C     C_3   0.456315 0.305894 0.936992 -0.352910
H19   H     H_    0.426256 0.260575 0.022334 0.157037
H20   H     H_    0.429300 0.315248 0.813450 0.188681
H21   H     H_    0.488564 0.219248 0.910797 0.165310
C36   C     C_3   0.543685 0.694106 0.063008 -0.352925
H22   H     H_    0.573744 0.739425 0.977666 0.157050
H23   H     H_    0.511436 0.780752 0.089203 0.165315
H24   H     H_    0.570700 0.684751 0.186550 0.188673

loop_
_geom_bond_atom_site_label_1
_geom_bond_atom_site_label_2
_ccdc_geom_bond_type
Cu1   O5    S    
C22   N2    A    
C33   H14   S    
Cu2   O6    S    
Cu1   O8    S    
C10   H8    S    
C23   C29   A    
C24   C26   A    
C19   N1    A    
C15   C16   D    
C1    O3    A    
Cu2   O2    S    
C18   O8    A    
C7    C17   S    
Cu2   O7    S    
C11   H9    S    
C1    C15   S    
C32   H4    S    
C20   O10   S    
C19   C27   A    
C17   O5    A    
C21   O11   S    
C3    C13   A    
C18   O6    A    
C33   H15   S    
C10   C12   A    
C34   H16   S    
C4    C6    A    
C2    O4    A    
C16   H12   S    
C5    C7    A    
C6    C8    A    
C20   C28   A    
C19   O9    S    
C25   C26   A    
C8    C18   S    
C31   H3    S    
C34   H17   S    
C13   N2    S    
C36   H22   S    
C22   O12   S    
C9    C11   A    
Cu1   Cu2   S    
C36   H23   S    
C20   N2    A    
C2    O2    A    
C12   C14   A    
C21   C23   A    
C22   C24   A    
Cu1   O1    S    
C15   H11   S    
C2    C16   S    
C35   H20   S    
Cu1   O4    S    
C7    C9    A    
Cu2   N3    S    
C27   C32   A    
C26   C28   A    
C28   C31   A    
C3    C5    A    
C4    C34   S    
C35   H21   S    
C14   N1    S    
C3    C33   S    
C25   C27   A    
C29   H1    S    
C9    H7    S    
C1    O1    A    
C30   H2    S    
C34   H18   S    
C5    H5    S    
Cu1   N4    S    
C35   H19   S    
C29   C31   A    
N4    C36   S    
C30   C32   A    
C11   C13   A    
C6    H6    S    
C23   C25   A    
C4    C14   A    
C36   H24   S    
C24   C30   A    
C33   H13   S    
Cu2   O3    S    
C8    C10   A    
N3    N4    D    
N3    C35   S    
C12   H10   S    
C17   O7    A    
C21   N1    A    
