data_mof_unit_39252.cif
_audit_creation_date              2012-12-10T19:16:29-0500
_audit_creation_method            fapswitch 2.2
_symmetry_space_group_name_H-M    P1
_symmetry_Int_Tables_number       1
_space_group_crystal_system       triclinic
_cell_length_a                    10.650553
_cell_length_b                    9.824609
_cell_length_c                    27.265118
_cell_angle_alpha                 89.823132
_cell_angle_beta                  86.86362
_cell_angle_gamma                 90.595635
_cell_volume                      2848.50792505

loop_
_atom_site_label
_atom_site_type_symbol
_atom_type_description
_atom_site_fract_x
_atom_site_fract_y
_atom_site_fract_z
_atom_type_partial_charge
C1    C     C_R   0.257686 0.499655 0.502254 0.853852
C2    C     C_R   0.307502 0.459732 0.978637 0.044244
C3    C     C_R   0.463437 0.647107 0.981016 0.045399
C4    C     C_R   0.498550 0.500498 0.405867 0.943923
C5    C     C_R   0.399125 0.546414 0.954529 0.073268
C6    C     C_R   0.239141 0.368715 0.949818 -0.211368
C7    C     C_R   0.265305 0.357809 0.899515 -0.129571
C8    C     C_R   0.360858 0.436591 0.876103 -0.025199
C9    C     C_R   0.428017 0.531092 0.903491 -0.051852
C10   C     C_R   0.524623 0.609828 0.879803 -0.020508
C11   C     C_R   0.552575 0.592242 0.829493 0.505284
C12   C     C_R   0.308449 0.564434 0.297820 -0.072747
C13   C     C_R   0.388872 0.425677 0.825433 0.515539
C14   C     C_R   0.530843 0.383383 0.725213 -0.068871
C15   C     C_R   0.536156 0.382789 0.673979 -0.185375
C16   C     C_R   0.741776 0.500458 0.501887 0.855686
C17   C     C_R   0.488944 0.623410 0.673718 -0.175664
C18   C     C_R   0.481723 0.623632 0.724623 -0.102399
C19   C     C_R   0.500239 0.503304 0.750680 0.283219
C20   C     C_R   0.290212 0.464247 0.030612 0.042245
C21   C     C_R   0.354059 0.565910 0.056863 0.075055
C22   C     C_R   0.433607 0.663175 0.031843 0.043043
C23   C     C_R   0.385947 0.517915 0.258804 0.230073
C24   C     C_R   0.215432 0.367050 0.057650 -0.208583
C25   C     C_R   0.470061 0.773131 0.109884 -0.110903
C26   C     C_R   0.560264 0.724105 0.956155 -0.211911
C27   C     C_R   0.590592 0.705033 0.906570 -0.132391
C28   C     C_R   0.503647 0.500088 0.594244 0.885793
C29   C     C_R   0.483664 0.771309 0.059018 -0.214078
C30   C     C_3   0.068650 0.629338 0.529700 -0.378483
C31   C     C_3   0.064944 0.373674 0.531302 -0.353343
C32   C     C_3   0.924729 0.626494 0.531821 -0.417844
C33   C     C_3   0.921855 0.370924 0.529731 -0.415331
C34   C     C_R   0.342950 0.566967 0.108854 -0.048791
C35   C     C_3   0.079146 0.500231 0.450060 -0.440943
C36   C     C_3   0.120635 0.500070 0.503390 0.148953
C37   C     C_3   0.877943 0.500722 0.503428 0.172285
C38   C     C_3   0.935458 0.502167 0.450162 -0.348991
C39   C     C_3   0.399038 0.079207 0.469343 -0.228551
C40   C     C_3   0.410864 0.919940 0.463942 -0.247651
C41   C     C_3   0.623704 0.083449 0.479631 -0.188821
C42   C     C_3   0.627761 0.921569 0.484739 -0.191487
C43   C     C_3   0.481782 0.076618 0.550168 -0.155399
C44   C     C_3   0.462515 0.915616 0.548724 -0.159560
C45   C     C_R   0.274194 0.463780 0.134676 -0.022257
C46   C     C_R   0.280449 0.455243 0.185842 0.595108
C47   C     C_R   0.408037 0.656205 0.186173 0.517131
C48   C     C_R   0.504638 0.461352 0.267135 -0.059979
C49   C     C_R   0.545046 0.454047 0.315730 -0.107379
C50   C     C_R   0.348404 0.558148 0.345225 -0.216890
C51   C     C_2   0.588162 0.420103 0.224331 0.964548
C52   C     C_2   0.665748 0.136433 0.428852 1.009725
C53   C     C_2   0.697397 0.856019 0.440748 0.996411
C54   C     C_2   0.384562 0.140675 0.585311 0.997410
C55   C     C_2   0.329699 0.868475 0.566703 0.966368
C56   C     C_R   0.208287 0.366649 0.108716 -0.113178
C57   C     C_2   0.671729 0.403191 0.325290 0.970158
C58   C     C_R   0.405558 0.667747 0.135155 -0.027638
C59   C     C_R   0.465601 0.503590 0.354605 -0.083223
C60   C     C_R   0.509864 0.501676 0.647909 -0.072060
H1    H     H_    0.514618 0.854850 0.129359 0.201221
H2    H     H_    0.089523 0.379445 0.570280 0.177077
H3    H     H_    0.887669 0.621846 0.570779 0.165659
H4    H     H_    0.878163 0.364684 0.567741 0.161068
H5    H     H_    0.117453 0.591994 0.430266 0.169702
H6    H     H_    0.115585 0.408758 0.430137 0.183706
H7    H     H_    0.904637 0.593236 0.430112 0.205417
H8    H     H_    0.903112 0.411365 0.430355 0.214803
H9    H     H_    0.305195 0.103581 0.486321 0.227102
H10   H     H_    0.317224 0.870019 0.468595 0.188959
H11   H     H_    0.570562 0.095021 0.569230 0.081564
H12   H     H_    0.618004 0.796614 0.974455 0.147350
H13   H     H_    0.527380 0.872059 0.575206 0.118465
H14   H     H_    0.697550 0.123185 0.503365 0.125252
H15   H     H_    0.689506 0.899781 0.515509 0.106830
H16   H     H_    0.561115 0.289937 0.654861 0.185392
H17   H     H_    0.548558 0.290564 0.745083 0.159508
H18   H     H_    0.163183 0.305572 0.964892 0.145794
H19   H     H_    0.166085 0.285228 0.040584 0.146022
H20   H     H_    0.288150 0.597843 0.374888 0.133244
H21   H     H_    0.605604 0.319705 0.159922 0.348861
H22   H     H_    0.219027 0.610469 0.291084 0.156650
H23   H     H_    0.476274 0.718548 0.654886 0.205129
H24   H     H_    0.891172 0.722837 0.515985 0.231257
H25   H     H_    0.893222 0.277683 0.509918 0.221872
H26   H     H_    0.398525 0.128656 0.432818 0.197523
H27   H     H_    0.440199 0.896272 0.425437 0.220538
H28   H     H_    0.810912 0.211748 0.386192 0.362381
H29   H     H_    0.867065 0.817690 0.407465 0.350220
H30   H     H_    0.217060 0.225849 0.597588 0.329105
H31   H     H_    0.142217 0.897872 0.566499 0.338188
H32   H     H_    0.154015 0.286842 0.127769 0.195874
H33   H     H_    0.210527 0.286322 0.879069 0.192822
H34   H     H_    0.666095 0.765918 0.889258 0.192203
H35   H     H_    0.840096 0.444447 0.351884 0.331448
H36   H     H_    0.459461 0.717251 0.743929 0.163433
H37   H     H_    0.534523 0.855922 0.041927 0.147776
H38   H     H_    0.101941 0.721819 0.509040 0.216231
H39   H     H_    0.102368 0.277937 0.514757 0.229316
H40   H     H_    0.102343 0.635828 0.567560 0.195419
N1    N     N_R   0.352534 0.546546 0.209795 -0.354478
N2    N     N_R   0.482971 0.503645 0.803163 -0.352673
N3    N     N_3   0.499750 0.138610 0.498940 -0.119459
N4    N     N_3   0.499750 0.861390 0.498940 -0.127206
O1    O     O_R   0.314910 0.616040 0.499990 -0.638637
O2    O     O_2   0.320772 0.340147 0.798474 -0.546654
O3    O     O_2   0.470437 0.749945 0.211870 -0.513676
O4    O     O_2   0.647933 0.663981 0.806855 -0.559473
O5    O     O_2   0.697867 0.458636 0.220941 -0.577655
O6    O     O_R   0.540467 0.339226 0.187440 -0.789004
O7    O     O_2   0.601818 0.118422 0.393517 -0.590948
O8    O     O_R   0.785667 0.194269 0.421990 -0.832068
O9    O     O_2   0.643667 0.823523 0.404086 -0.561032
O10   O     O_R   0.828427 0.849172 0.440237 -0.843976
O11   O     O_2   0.395876 0.127709 0.629496 -0.662865
O12   O     O_R   0.314910 0.383960 0.499990 -0.590626
O13   O     O_R   0.277089 0.200730 0.569033 -0.779566
O14   O     O_2   0.315832 0.785585 0.600030 -0.645726
O15   O     O_R   0.223145 0.927147 0.547968 -0.840236
O16   O     O_2   0.707918 0.295600 0.307369 -0.567432
O17   O     O_R   0.751713 0.481757 0.352917 -0.811049
O18   O     O_R   0.500140 0.616020 0.428740 -0.573036
O19   O     O_R   0.500140 0.383980 0.428740 -0.621324
O20   O     O_R   0.685320 0.616040 0.499970 -0.639446
O21   O     O_R   0.685320 0.383960 0.499970 -0.629876
O22   O     O_R   0.500090 0.616050 0.571230 -0.612051
O23   O     O_R   0.500090 0.383950 0.571230 -0.629805
O24   O     O_2   0.220430 0.353341 0.211126 -0.521510
Zn1   Zn    Zn3+2 0.500150 0.654960 0.499980 0.963225
Zn2   Zn    Zn3+2 0.500150 0.345040 0.499980 0.962379

loop_
_geom_bond_atom_site_label_1
_geom_bond_atom_site_label_2
_ccdc_geom_bond_type
C10   C27   A    
C8    C13   A    
C47   N1    A    
C22   C29   A    
C18   H36   S    
C15   C60   A    
C35   C36   S    
H21   O6    S    
C44   N4    S    
C7    C8    A    
C55   O15   S    
C45   C46   A    
C12   C23   A    
C26   C27   A    
C40   H10   S    
C50   C59   A    
C40   H27   S    
C46   O24   S    
C42   C53   S    
C19   N2    S    
C6    H18   S    
C52   O8    S    
C30   H40   S    
C49   C57   S    
C18   C19   A    
C41   C42   S    
C14   H17   S    
C33   H25   S    
C43   C54   S    
C41   H14   S    
O21   Zn2   S    
C48   C51   S    
C20   C24   A    
C45   C56   A    
C53   O9    D    
C8    C9    A    
C31   C33   S    
C1    O12   A    
C31   H39   S    
C9    C10   A    
C3    C22   A    
O18   Zn1   S    
C28   O23   A    
C16   C37   S    
H35   O17   S    
C15   H16   S    
C51   O5    D    
C42   H15   S    
C21   C22   A    
C31   H2    S    
C2    C6    A    
C32   H24   S    
C28   O22   A    
C28   C60   S    
C25   C29   A    
C7    H33   S    
C46   N1    A    
C12   H22   S    
H30   O13   S    
C35   C38   S    
C39   C40   S    
O1    Zn1   S    
C21   C34   A    
C35   H6    S    
C2    C20   A    
C33   C37   S    
C41   N3    S    
C4    O19   A    
C42   N4    S    
C17   H23   S    
C43   C44   S    
C5    C9    A    
C37   C38   S    
C40   N4    S    
C24   H19   S    
C14   C15   A    
C54   O11   D    
C17   C18   A    
C39   H9    S    
C4    O18   A    
C34   C45   A    
C25   H1    S    
C32   C37   S    
C20   C21   A    
C57   O16   D    
C48   C49   A    
C38   H8    S    
C51   O6    S    
C47   O3    S    
N4    Zn1   S    
O19   Zn2   S    
H31   O15   S    
C2    C5    A    
C25   C58   A    
C53   O10   S    
C16   O21   A    
C26   H12   S    
H29   O10   S    
C43   H11   S    
C23   C48   A    
C41   C52   S    
O22   Zn1   S    
C14   C19   A    
C3    C26   A    
C32   H3    S    
C13   O2    S    
C3    C5    A    
C50   H20   S    
C12   C50   A    
C39   N3    S    
C6    C7    A    
C29   H37   S    
C24   C56   A    
C30   H38   S    
C52   O7    D    
C30   C36   S    
C16   O20   A    
O23   Zn2   S    
C49   C59   A    
C47   C58   A    
C30   C32   S    
C44   C55   S    
C23   N1    S    
C33   H4    S    
C4    C59   S    
O20   Zn1   S    
C11   N2    A    
C44   H13   S    
N3    Zn2   S    
C43   N3    S    
C10   C11   A    
C17   C60   A    
C57   O17   S    
H28   O8    S    
C56   H32   S    
O12   Zn2   S    
C38   H7    S    
C54   O13   S    
C11   O4    S    
C34   C58   A    
C35   H5    S    
C31   C36   S    
C27   H34   S    
C39   H26   S    
C13   N2    A    
C1    C36   S    
C1    O1    A    
C55   O14   D    
