data_mof_unit_15784.cif
_audit_creation_date              2013-03-05T16:38:31-0500
_audit_creation_method            fapswitch 2.2
_symmetry_space_group_name_H-M    P1
_symmetry_Int_Tables_number       1
_space_group_crystal_system       triclinic
_cell_length_a                    15.991746
_cell_length_b                    14.775108
_cell_length_c                    10.709833
_cell_angle_alpha                 91.06737
_cell_angle_beta                  89.709342
_cell_angle_gamma                 90.006287
_cell_volume                      2530.04528011

loop_
_atom_site_label
_atom_site_type_symbol
_atom_site_description
_atom_site_fract_x
_atom_site_fract_y
_atom_site_fract_z
_atom_type_partial_charge
O1    O     O_R   0.380310 0.575320 0.500020 -0.556243
O2    O     O_R   0.619690 0.424680 0.499980 -0.556155
O3    O     O_R   0.619690 0.575320 0.499980 -0.588412
O4    O     O_R   0.380310 0.424680 0.500020 -0.587506
C1    C     C_R   0.340992 0.499948 0.499520 0.833973
C2    C     C_R   0.659000 0.500023 0.500351 0.834886
O5    O     O_R   0.499980 0.575330 0.316850 -0.560567
O6    O     O_R   0.500020 0.424670 0.683150 -0.561195
O7    O     O_R   0.500020 0.575330 0.683150 -0.539203
O8    O     O_R   0.499980 0.424670 0.316850 -0.539939
C3    C     C_R   0.497574 0.499009 0.259447 0.909260
C4    C     C_R   0.502275 0.501020 0.740586 0.909322
Cu1   Cu    Cu3+1 0.500000 0.589220 0.500000 1.038076
Cu2   Cu    Cu3+1 0.500000 0.410780 0.500000 1.037896
C5    C     C_1   0.252192 0.499581 0.496295 -0.155361
C6    C     C_1   0.747807 0.500178 0.502161 -0.150491
C7    C     C_R   0.571635 0.952101 0.541270 0.122174
C8    C     C_R   0.428927 0.047910 0.457236 0.121811
C9    C     C_R   0.428108 0.950892 0.460622 0.120626
C10   C     C_R   0.572497 0.049119 0.537694 0.122706
C11   C     C_R   0.499893 0.902982 0.500944 -0.065620
C12   C     C_R   0.500572 0.097027 0.497910 -0.065751
C13   C     C_3   0.435856 0.549548 0.041976 0.275510
C14   C     C_3   0.563853 0.450685 0.958160 0.270888
C15   C     C_3   0.509546 0.585791 0.965803 0.285386
C16   C     C_3   0.490136 0.414429 0.034301 0.283914
C17   C     C_3   0.427843 0.466626 0.952807 -0.076865
C18   C     C_3   0.571817 0.533606 0.047326 -0.077212
C19   C     C_3   0.502486 0.503169 0.875919 -0.324994
C20   C     C_3   0.497216 0.497020 0.124159 -0.324246
C21   C     C_1   0.499998 0.802499 0.500448 0.196030
C22   C     C_1   0.500232 0.197502 0.499101 0.196143
N1    N     N_1   0.500000 0.276710 0.500000 -0.141030
N2    N     N_1   0.500000 0.723290 0.500000 -0.140725
C23   C     C_1   0.822718 0.500617 0.503595 -0.026112
C24   C     C_1   0.177300 0.498696 0.493144 -0.026448
C25   C     C_R   0.955746 0.576639 0.454927 0.102856
C26   C     C_R   0.044333 0.422696 0.540753 0.106076
C27   C     C_R   0.044059 0.572687 0.442074 0.101875
C28   C     C_R   0.955944 0.424969 0.548707 0.096402
C29   C     C_R   0.912744 0.501285 0.503988 0.012149
C30   C     C_R   0.087290 0.497484 0.490403 0.022821
C31   C     C_3   0.650491 0.102901 0.573609 -0.460272
C32   C     C_3   0.646583 0.135189 0.709825 -0.682122
H1    H     H_    0.592253 0.180861 0.725598 0.281858
H2    H     H_    0.641003 0.076684 0.772884 0.244816
H3    H     H_    0.704536 0.173078 0.733441 0.255640
H4    H     H_    0.708635 0.063687 0.557004 0.208912
H5    H     H_    0.657901 0.162498 0.512798 0.216262
C33   C     C_3   0.350387 0.897087 0.423499 -0.456297
C34   C     C_3   0.355227 0.864976 0.287250 -0.681455
H6    H     H_    0.361112 0.923588 0.224432 0.244470
H7    H     H_    0.409740 0.819451 0.272151 0.282197
H8    H     H_    0.297509 0.826978 0.262666 0.254111
H9    H     H_    0.342633 0.837417 0.484067 0.215209
H10   H     H_    0.292115 0.936215 0.439339 0.209303
C35   C     C_3   0.354242 0.100376 0.408021 -0.377555
C36   C     C_3   0.296244 0.131195 0.514302 -0.826818
H11   H     H_    0.272803 0.072091 0.566559 0.250074
H12   H     H_    0.329661 0.177523 0.579875 0.260382
H13   H     H_    0.241943 0.167917 0.475518 0.240369
H14   H     H_    0.375477 0.160565 0.355947 0.235915
H15   H     H_    0.318396 0.060606 0.337841 0.209418
C37   C     C_3   0.646418 0.899642 0.590155 -0.377408
C38   C     C_3   0.703930 0.868313 0.483548 -0.827908
H16   H     H_    0.670163 0.821867 0.418546 0.260129
H17   H     H_    0.727300 0.927181 0.430721 0.250486
H18   H     H_    0.758305 0.831572 0.522077 0.240528
H19   H     H_    0.682659 0.939587 0.659683 0.209603
H20   H     H_    0.625255 0.839706 0.642841 0.235309
C39   C     C_3   0.346764 0.429995 0.895201 -0.330437
C40   C     C_3   0.282800 0.403177 0.994095 -0.746657
H21   H     H_    0.307635 0.348418 0.052639 0.283639
H22   H     H_    0.265699 0.462068 0.054643 0.273560
H23   H     H_    0.225250 0.377940 0.947720 0.223824
H24   H     H_    0.319182 0.482799 0.835466 0.202636
H25   H     H_    0.361614 0.369970 0.835165 0.222571
C41   C     C_3   0.652776 0.570403 0.105118 -0.332924
C42   C     C_3   0.716366 0.598368 0.006364 -0.740667
H26   H     H_    0.733585 0.539999 0.944924 0.276779
H27   H     H_    0.691099 0.653422 0.948735 0.283114
H28   H     H_    0.773870 0.623651 0.052840 0.221209
H29   H     H_    0.637676 0.629945 0.165935 0.222978
H30   H     H_    0.680781 0.517397 0.164083 0.203684
N3    N     N_R   0.365438 0.605230 0.084101 0.145024
O9    O     O_R   0.321021 0.648137 0.002840 -0.351513
O10   O     O_R   0.344542 0.609765 0.201504 -0.390092
N4    N     N_R   0.634418 0.395160 0.916209 0.148188
O11   O     O_R   0.678442 0.351860 0.997543 -0.343804
O12   O     O_R   0.656321 0.391848 0.799151 -0.383099
N5    N     N_R   0.518935 0.681271 0.935757 0.159033
O13   O     O_R   0.504947 0.742418 0.022257 -0.334218
O14   O     O_R   0.556782 0.704802 0.833705 -0.370605
N6    N     N_R   0.480726 0.319033 0.064768 0.159209
O15   O     O_R   0.495879 0.257641 0.979043 -0.332882
O16   O     O_R   0.441454 0.295791 0.165768 -0.372055
C43   C     C_3   0.093677 0.646120 0.375009 -0.406535
C44   C     C_3   0.125752 0.612154 0.247635 -0.723969
H31   H     H_    0.171192 0.556098 0.257414 0.266869
H32   H     H_    0.072976 0.587881 0.189005 0.234635
H33   H     H_    0.157668 0.668266 0.198910 0.265653
H34   H     H_    0.057415 0.708139 0.358131 0.204526
H35   H     H_    0.147272 0.668628 0.433457 0.212397
C45   C     C_3   0.906764 0.347954 0.607720 -0.372811
C46   C     C_3   0.876674 0.279683 0.508967 -0.805327
H36   H     H_    0.834023 0.312627 0.442131 0.265407
H37   H     H_    0.930525 0.250205 0.456579 0.241694
H38   H     H_    0.842115 0.224138 0.554932 0.242400
H39   H     H_    0.943561 0.312598 0.679308 0.207000
H40   H     H_    0.851900 0.374811 0.660569 0.231201
C47   C     C_3   0.906320 0.660948 0.420100 -0.381820
C48   C     C_3   0.883242 0.659563 0.282027 -0.818589
H41   H     H_    0.940027 0.661817 0.222446 0.256656
H42   H     H_    0.847146 0.597364 0.258544 0.255538
H43   H     H_    0.843954 0.719407 0.261600 0.242054
H44   H     H_    0.847731 0.666818 0.475685 0.206494
H45   H     H_    0.939916 0.724038 0.446116 0.184049
C49   C     C_3   0.093831 0.340237 0.582290 -0.384594
C50   C     C_3   0.123815 0.351938 0.716750 -0.836260
H46   H     H_    0.166048 0.411316 0.725716 0.257656
H47   H     H_    0.069940 0.361652 0.781367 0.250220
H48   H     H_    0.158803 0.290635 0.744413 0.245875
H49   H     H_    0.057334 0.276799 0.572665 0.204894
H50   H     H_    0.148785 0.328494 0.520207 0.206331

loop_
_geom_bond_atom_site_label_1
_geom_bond_atom_site_label_2
_geom_bond_distance
_ccdc_geom_bond_type
C16   N6    1.460251 S    
C45   H40   1.110978 S    
C4    C19   1.449167 S    
C17   C19   1.549483 S    
C24   C30   1.439966 S    
C47   C48   1.525676 S    
O3    C2    1.277988 A    
Cu2   N1    1.980900 S    
C48   H42   1.110748 S    
C43   C44   1.530797 S    
C35   H14   1.110729 S    
N3    O9    1.300295 A    
C15   C18   1.543548 S    
O5    C3    1.274927 A    
C11   C21   1.484559 S    
C16   C17   1.543692 S    
C12   C22   1.484359 S    
O1    C1    1.278748 A    
C9    C11   1.421972 A    
C14   C16   1.532329 S    
C26   C30   1.414928 A    
C6    C23   1.198154 T    
C39   H24   1.110881 S    
C27   C43   1.531581 S    
N5    O14   1.299675 A    
C36   H12   1.110463 S    
C44   H31   1.108659 S    
C7    C10   1.434741 A    
C8    C9    1.434639 A    
O7    Cu1   1.976012 S    
C49   C50   1.526830 S    
C45   C46   1.527390 S    
C14   C19   1.540974 S    
C41   H29   1.110681 S    
C3    C20   1.448704 S    
C38   H17   1.110131 S    
C47   H44   1.110045 S    
C37   H20   1.110755 S    
C18   C41   1.533060 S    
C31   H4    1.107466 S    
C43   H34   1.102704 S    
O3    Cu1   1.925058 S    
C32   H3    1.110523 S    
C36   H13   1.110468 S    
N3    O10   1.299896 A    
Cu1   Cu2   2.636469 S    
C25   C29   1.416519 A    
O2    C2    1.278324 A    
C40   H23   1.109217 S    
O2    Cu2   1.925014 S    
C48   H41   1.108065 S    
C32   H2    1.110146 S    
C35   H15   1.107545 S    
C27   C30   1.416225 A    
C50   H47   1.109989 S    
C15   C19   1.544984 S    
C46   H38   1.110620 S    
C15   N5    1.460351 S    
C1    C5    1.420665 S    
C34   H6    1.110174 S    
C13   C20   1.540860 S    
C40   H22   1.108890 S    
O8    Cu2   1.976013 S    
N5    O13   1.300474 A    
C42   H27   1.107773 S    
C41   C42   1.526008 S    
C31   H5    1.110919 S    
C36   H11   1.110117 S    
C7    C11   1.422194 A    
C34   H7    1.110490 S    
C31   C32   1.527382 S    
C28   C45   1.527864 S    
C46   H37   1.110044 S    
C8    C35   1.525438 S    
O5    Cu1   1.968409 S    
O6    C4    1.275393 A    
C38   H18   1.110482 S    
C33   C34   1.527555 S    
C21   N2    1.170245 T    
C49   H50   1.110988 S    
C37   H19   1.107522 S    
N6    O16   1.299733 A    
C14   N4    1.459316 S    
C43   H35   1.111139 S    
C28   C29   1.414822 A    
C10   C12   1.421957 A    
C16   C20   1.544476 S    
C13   C17   1.545024 S    
O1    Cu1   1.925016 S    
C5    C24   1.198368 T    
C39   H25   1.110679 S    
C10   C31   1.525883 S    
C17   C39   1.533047 S    
C32   H1    1.110469 S    
C50   H48   1.110418 S    
O6    Cu2   1.968407 S    
C8    C12   1.422042 A    
C14   C18   1.544927 S    
N4    O12   1.300018 A    
C40   H21   1.107677 S    
C42   H28   1.109322 S    
C50   H46   1.110143 S    
C44   H33   1.110632 S    
C46   H36   1.110189 S    
C44   H32   1.110000 S    
C33   H9    1.110812 S    
C47   H45   1.107683 S    
C34   H8    1.110557 S    
C37   C38   1.527580 S    
C18   C20   1.548889 S    
Cu1   N2    1.980900 S    
C7    C37   1.525364 S    
C22   N1    1.170169 T    
C26   C28   1.415982 A    
C9    C33   1.525738 S    
C35   C36   1.527507 S    
C45   H39   1.107499 S    
C49   H49   1.107573 S    
C13   C15   1.532111 S    
O4    Cu2   1.925060 S    
N6    O15   1.300457 A    
C23   C29   1.439734 S    
O7    C4    1.269071 A    
C33   H10   1.107375 S    
C25   C47   1.528420 S    
O8    C3    1.269346 A    
C2    C6    1.420414 S    
C42   H26   1.108891 S    
C26   C49   1.527347 S    
C41   H30   1.110896 S    
O4    C1    1.277706 A    
C39   C40   1.526325 S    
N4    O11   1.300300 A    
C25   C27   1.419379 A    
C38   H16   1.110447 S    
C13   N3    1.459357 S    
C48   H43   1.110470 S    
