data_mof_unit_39421.cif
_audit_creation_date              2013-03-05T15:41:56-0500
_audit_creation_method            fapswitch 2.2
_symmetry_space_group_name_H-M    P1
_symmetry_Int_Tables_number       1
_space_group_crystal_system       triclinic
_cell_length_a                    25.746312
_cell_length_b                    17.585063
_cell_length_c                    15.912608
_cell_angle_alpha                 89.898888
_cell_angle_beta                  48.447272
_cell_angle_gamma                 90.06628
_cell_volume                      5391.37771476

loop_
_atom_site_label
_atom_site_type_symbol
_atom_site_description
_atom_site_fract_x
_atom_site_fract_y
_atom_site_fract_z
_atom_type_partial_charge
C1    C     C_R   0.359709 0.149183 0.746705 0.048688
C2    C     C_R   0.667000 0.889111 0.198486 -0.011584
C3    C     C_R   0.624086 0.157123 0.279183 0.065364
C4    C     C_R   0.334960 0.885590 0.801328 -0.004341
C5    C     C_R   0.878311 0.657975 0.715276 0.060144
C6    C     C_R   0.144604 0.352829 0.250774 0.046941
C7    C     C_R   0.122889 0.657646 0.284788 0.061409
C8    C     C_R   0.835047 0.383411 0.797624 -0.023624
N1    N     N_R   0.389620 0.081040 0.705440 -0.073568
N2    N     N_R   0.610380 0.918960 0.294560 -0.064206
N3    N     N_R   0.610380 0.081040 0.294560 -0.070651
N4    N     N_R   0.389620 0.918960 0.705440 -0.066761
N5    N     N_R   0.889620 0.581040 0.705440 -0.077671
N6    N     N_R   0.110380 0.418960 0.294560 -0.075035
N7    N     N_R   0.110380 0.581040 0.294560 -0.076508
N8    N     N_R   0.889620 0.418960 0.705440 -0.067228
C9    C     C_R   0.602839 0.134023 0.590318 0.068815
C10   C     C_R   0.396554 0.875879 0.403277 0.132604
C11   C     C_R   0.394802 0.127774 0.407130 0.092052
C12   C     C_R   0.611211 0.891237 0.595331 0.143358
C13   C     C_R   0.114399 0.611419 0.587685 0.130693
C14   C     C_R   0.889867 0.396767 0.400848 0.168022
C15   C     C_R   0.891013 0.621124 0.408602 0.101196
C16   C     C_R   0.112815 0.401442 0.597461 0.138820
N9    N     N_R   0.582320 0.079840 0.556630 -0.076524
N10   N     N_R   0.417680 0.920160 0.443370 -0.070840
N11   N     N_R   0.417680 0.079840 0.443370 -0.078514
N12   N     N_R   0.582320 0.920160 0.556630 -0.069711
N13   N     N_R   0.082320 0.579840 0.556630 -0.076818
N14   N     N_R   0.917680 0.420160 0.443370 -0.068704
N15   N     N_R   0.917680 0.579840 0.443370 -0.072992
N16   N     N_R   0.082320 0.420160 0.556630 -0.065356
C17   C     C_R   0.681573 0.126858 0.401197 0.107359
C18   C     C_R   0.321741 0.869953 0.589053 0.147257
C19   C     C_R   0.318850 0.127437 0.594859 0.121540
C20   C     C_R   0.686374 0.886140 0.410539 0.144850
C21   C     C_R   0.187757 0.615145 0.399806 0.107542
C22   C     C_R   0.812666 0.391013 0.586330 0.143734
C23   C     C_R   0.816380 0.623401 0.597857 0.102135
C24   C     C_R   0.189865 0.399165 0.412404 0.161070
N17   N     N_R   0.627920 0.078930 0.443400 -0.064550
N18   N     N_R   0.372080 0.921070 0.556600 -0.070412
N19   N     N_R   0.372080 0.078930 0.556600 -0.066102
N20   N     N_R   0.627920 0.921070 0.443400 -0.067805
N21   N     N_R   0.127920 0.578930 0.443400 -0.066509
N22   N     N_R   0.872080 0.421070 0.556600 -0.067317
N23   N     N_R   0.872080 0.578930 0.556600 -0.065414
N24   N     N_R   0.127920 0.421070 0.443400 -0.067776
C25   C     C_R   0.569780 0.128707 0.218911 0.008905
C26   C     C_R   0.415396 0.900411 0.811019 0.043913
C27   C     C_R   0.415255 0.114721 0.802410 -0.004337
C28   C     C_R   0.588165 0.902731 0.185831 0.030545
C29   C     C_R   0.065551 0.635064 0.228654 0.016220
C30   C     C_R   0.921299 0.380369 0.796138 0.070878
C31   C     C_R   0.937578 0.635360 0.767548 0.049801
C32   C     C_R   0.063070 0.357345 0.239750 -0.003227
N25   N     N_R   0.555090 0.077730 0.294590 -0.073449
N26   N     N_R   0.444910 0.922270 0.705410 -0.073665
N27   N     N_R   0.444910 0.077730 0.705410 -0.072294
N28   N     N_R   0.555090 0.922270 0.294590 -0.072276
N29   N     N_R   0.055090 0.577730 0.294590 -0.072942
N30   N     N_R   0.944910 0.422270 0.705410 -0.073471
N31   N     N_R   0.944910 0.577730 0.705410 -0.078047
N32   N     N_R   0.055090 0.422270 0.294590 -0.074099
C33   C     C_R   0.368058 0.166094 0.821159 -0.032452
C34   C     C_R   0.659953 0.898954 0.120956 -0.013719
C35   C     C_R   0.608599 0.184167 0.215875 -0.028531
C36   C     C_R   0.343590 0.895047 0.877405 -0.021839
C37   C     C_R   0.895944 0.688586 0.773995 -0.038386
C38   C     C_R   0.122761 0.321660 0.200723 -0.015988
C39   C     C_R   0.104191 0.689315 0.228701 -0.030431
C40   C     C_R   0.849351 0.375849 0.866425 -0.029369
C41   C     C_R   0.663238 0.166381 0.492278 -0.015669
C42   C     C_R   0.338195 0.841880 0.492820 -0.073888
C43   C     C_R   0.336402 0.162224 0.500896 -0.040745
C44   C     C_R   0.674673 0.867205 0.506062 -0.092467
C45   C     C_R   0.176866 0.638754 0.492668 -0.047325
C46   C     C_R   0.825342 0.374100 0.488903 -0.082806
C47   C     C_R   0.831220 0.653898 0.503787 -0.040873
C48   C     C_R   0.180180 0.385039 0.508327 -0.108183
Ni1   Ni    Ni4+2 0.382970 0.000000 0.629840 0.187340
Ni2   Ni    Ni4+2 0.617030 0.000000 0.370160 0.194725
Ni3   Ni    Ni4+2 0.882970 0.500000 0.629840 0.191682
Ni4   Ni    Ni4+2 0.117030 0.500000 0.370160 0.192738
Ni5   Ni    Ni4+2 0.514540 0.000000 0.629840 0.190086
Ni6   Ni    Ni4+2 0.485460 0.000000 0.370160 0.186655
Ni7   Ni    Ni4+2 0.014540 0.500000 0.629840 0.194667
Ni8   Ni    Ni4+2 0.985460 0.500000 0.370160 0.190887
C49   C     C_3   0.323426 0.278357 0.404734 -0.217125
C50   C     C_3   0.695818 0.777099 0.619412 -0.230778
C51   C     C_3   0.679029 0.286152 0.574597 -0.258148
C52   C     C_3   0.316490 0.752778 0.380224 -0.234094
C53   C     C_3   0.813257 0.758741 0.405638 -0.212314
C54   C     C_3   0.200220 0.282847 0.615039 -0.242951
C55   C     C_3   0.199824 0.732142 0.594882 -0.267564
C56   C     C_3   0.810949 0.270350 0.381679 -0.262460
C57   C     C_3   0.789656 0.832686 0.471579 0.190352
C58   C     C_3   0.229131 0.214935 0.536722 0.207143
C59   C     C_3   0.223871 0.807244 0.530380 0.275234
C60   C     C_3   0.767281 0.208104 0.470757 0.238745
C61   C     C_3   0.294087 0.347063 0.483021 0.198280
C62   C     C_3   0.719205 0.702750 0.553399 0.209924
C63   C     C_3   0.723030 0.347766 0.484883 0.202941
C64   C     C_3   0.292781 0.677147 0.443775 0.280937
H1    H     H_    0.373097 0.284847 0.317789 0.140333
H2    H     H_    0.649819 0.780052 0.710224 0.122122
H3    H     H_    0.625276 0.300757 0.650019 0.156436
H4    H     H_    0.360729 0.757706 0.288929 0.128353
H5    H     H_    0.861798 0.761438 0.318602 0.152375
H6    H     H_    0.154348 0.274411 0.705189 0.118493
H7    H     H_    0.154133 0.732237 0.685558 0.143748
H8    H     H_    0.865183 0.263815 0.301300 0.144990
C65   C     C_3   0.716804 0.818993 0.515178 0.130314
C66   C     C_3   0.299586 0.226543 0.502533 0.136044
C67   C     C_3   0.296816 0.791850 0.485080 0.136985
C68   C     C_3   0.704914 0.228426 0.482520 0.146227
C69   C     C_3   0.223534 0.334909 0.515972 0.134042
C70   C     C_3   0.792695 0.715740 0.507372 0.138908
C71   C     C_3   0.783655 0.326977 0.477176 0.140373
C72   C     C_3   0.219280 0.692483 0.491785 0.111309
C73   C     C_3   0.252085 0.265199 0.439247 -0.228758
C74   C     C_3   0.770299 0.790250 0.573674 -0.225669
C75   C     C_3   0.741289 0.263866 0.564541 -0.215512
C76   C     C_3   0.241991 0.767857 0.428383 -0.221880
C77   C     C_3   0.739317 0.744001 0.450891 -0.236342
C78   C     C_3   0.271520 0.295405 0.580821 -0.218147
C79   C     C_3   0.274106 0.715972 0.547335 -0.260550
C80   C     C_3   0.748250 0.290312 0.391594 -0.231917
H9    H     H_    0.243373 0.246606 0.382977 0.139043
H10   H     H_    0.784486 0.811345 0.621814 0.131029
H11   H     H_    0.740810 0.247943 0.632261 0.130037
H12   H     H_    0.226144 0.790141 0.383290 0.138139
H13   H     H_    0.726187 0.723262 0.400988 0.133822
H14   H     H_    0.279048 0.309370 0.640053 0.128550
H15   H     H_    0.287786 0.694750 0.596315 0.141884
H16   H     H_    0.750045 0.304129 0.321905 0.135653
H17   H     H_    0.209456 0.863669 0.998946 0.141582
H18   H     H_    0.693663 0.286325 0.189637 0.138410
H19   H     H_    0.793722 0.863972 0.001933 0.144443
H20   H     H_    0.246585 0.110776 0.993564 0.150636
H21   H     H_    0.712579 0.370044 0.997420 0.145921
H22   H     H_    0.200238 0.784729 0.185039 0.145009
H23   H     H_    0.171546 0.184557 0.185441 0.150217
H24   H     H_    0.801013 0.785282 0.817807 0.144175
C81   C     C_2   0.632174 0.256709 0.152082 0.032163
C82   C     C_2   0.291232 0.870994 0.998519 0.036365
C83   C     C_2   0.314509 0.204912 0.926641 0.053755
C84   C     C_2   0.713442 0.875874 0.999328 0.032767
C85   C     C_2   0.125215 0.765171 0.172554 0.042828
C86   C     C_2   0.798250 0.347988 0.984581 0.052884
C87   C     C_2   0.875792 0.764365 0.830221 0.032907
C88   C     C_2   0.166286 0.273296 0.101578 0.045343
C89   C     C_2   0.680419 0.299324 0.139362 -0.191503
C90   C     C_2   0.225366 0.853132 0.046211 -0.164561
C91   C     C_2   0.253000 0.170095 0.004294 -0.202350
C92   C     C_2   0.778159 0.855010 0.953835 -0.160110
C93   C     C_2   0.179863 0.803223 0.146885 -0.188822
C94   C     C_2   0.729971 0.346600 0.038288 -0.163098
C95   C     C_2   0.821867 0.803325 0.855269 -0.186950
C96   C     C_2   0.192930 0.208909 0.105404 -0.193883
C97   C     C_1   0.384131 0.210499 0.667411 0.057977
N33   N     N_1   0.404222 0.259639 0.603849 -0.105060
C98   C     C_1   0.682280 0.810990 0.203479 0.054586
N34   N     N_1   0.693264 0.747634 0.206475 -0.096854
C99   C     C_1   0.597554 0.206491 0.372910 0.039598
N35   N     N_1   0.575635 0.246876 0.447262 -0.087815
C100  C     C_1   0.326114 0.805217 0.794078 0.055976
N36   N     N_1   0.320276 0.740435 0.789102 -0.094759
C101  C     C_1   0.905896 0.704242 0.617842 0.054351
N37   N     N_1   0.928268 0.741944 0.540520 -0.094080
C102  C     C_1   0.143915 0.298267 0.319144 0.032858
N38   N     N_1   0.141748 0.252949 0.374306 -0.109843
C103  C     C_1   0.100389 0.703971 0.378966 0.051966
N39   N     N_1   0.082053 0.741895 0.453733 -0.091716
C104  C     C_1   0.810426 0.314382 0.785112 0.075834
N40   N     N_1   0.792557 0.256864 0.776196 -0.098823
C105  C     C_3   0.557634 0.164983 0.709543 -0.424332
C106  C     C_3   0.582846 0.175739 0.774363 -0.320884
C107  C     C_3   0.534923 0.229896 0.873097 -0.928633
H25   H     H_    0.480233 0.210662 0.925849 0.277006
H26   H     H_    0.549651 0.231501 0.924713 0.264626
H27   H     H_    0.539022 0.288450 0.843054 0.260810
H28   H     H_    0.583622 0.121622 0.808450 0.214167
H29   H     H_    0.635371 0.196390 0.725068 0.223477
H30   H     H_    0.531155 0.216897 0.714417 0.210152
H31   H     H_    0.520221 0.121038 0.759853 0.203264
C108  C     C_3   0.411505 0.886856 0.295565 -0.464066
C109  C     C_3   0.445146 0.961112 0.240723 -0.265253
C110  C     C_3   0.464191 0.966626 0.127976 -0.938349
H32   H     H_    0.501625 0.920948 0.071991 0.279792
H33   H     H_    0.417305 0.961017 0.138102 0.275172
H34   H     H_    0.489305 0.022136 0.088615 0.270738
H35   H     H_    0.405442 0.001423 0.302702 0.204362
H36   H     H_    0.491280 0.972819 0.228977 0.213328
H37   H     H_    0.439745 0.838820 0.239183 0.207833
H38   H     H_    0.361857 0.888597 0.313869 0.203462
C111  C     C_3   0.426874 0.142801 0.286697 -0.424805
C112  C     C_3   0.378539 0.133541 0.260665 -0.264721
C113  C     C_3   0.408845 0.172316 0.150558 -0.934912
H39   H     H_    0.459661 0.146473 0.080633 0.273787
H40   H     H_    0.373305 0.164338 0.134444 0.256796
H41   H     H_    0.416282 0.234152 0.152629 0.263165
H42   H     H_    0.368658 0.074282 0.253248 0.208180
H43   H     H_    0.326151 0.153594 0.327820 0.203688
H44   H     H_    0.451676 0.199744 0.261227 0.193782
H45   H     H_    0.468209 0.102874 0.232041 0.197025
C114  C     C_3   0.593539 0.906621 0.705027 -0.447648
C115  C     C_3   0.555781 0.979339 0.762117 -0.267892
C116  C     C_3   0.530070 0.980303 0.879944 -0.954537
H46   H     H_    0.492201 0.933329 0.930060 0.284906
H47   H     H_    0.574288 0.973756 0.876751 0.273137
H48   H     H_    0.503754 0.034614 0.922125 0.268975
H49   H     H_    0.594013 0.024860 0.711364 0.199369
H50   H     H_    0.511767 0.986687 0.766482 0.218669
H51   H     H_    0.566481 0.857686 0.761408 0.204928
H52   H     H_    0.642470 0.912182 0.689257 0.193165
C117  C     C_3   0.092946 0.602475 0.700352 -0.396804
C118  C     C_3   0.149410 0.567742 0.697217 -0.283057
C119  C     C_3   0.135022 0.583431 0.805365 -0.911370
H53   H     H_    0.145572 0.644052 0.808702 0.263750
H54   H     H_    0.080234 0.570833 0.880443 0.265995
H55   H     H_    0.169458 0.547663 0.807952 0.257053
H56   H     H_    0.153352 0.506248 0.682252 0.190698
H57   H     H_    0.201935 0.588159 0.626729 0.209620
H58   H     H_    0.072550 0.656911 0.746388 0.192285
H59   H     H_    0.049266 0.564019 0.746395 0.172958
C120  C     C_3   0.905571 0.431373 0.298871 -0.488078
C121  C     C_3   0.981222 0.432810 0.186918 -0.221064
C122  C     C_3   0.990480 0.472496 0.092626 -0.996113
H60   H     H_    0.038947 0.452368 0.010467 0.266377
H61   H     H_    0.945029 0.462271 0.100780 0.280621
H62   H     H_    0.997169 0.534044 0.092288 0.277051
H63   H     H_    0.014706 0.462763 0.196502 0.211253
H64   H     H_    0.998552 0.373825 0.157180 0.211998
H65   H     H_    0.874517 0.402953 0.282836 0.193908
H66   H     H_    0.885923 0.488873 0.326403 0.192739
C123  C     C_3   0.924686 0.631487 0.286922 -0.418794
C124  C     C_3   0.879572 0.621102 0.254745 -0.305938
C125  C     C_3   0.907641 0.666667 0.149443 -0.873794
H67   H     H_    0.920967 0.726324 0.150440 0.248129
H68   H     H_    0.955650 0.640123 0.073423 0.264159
H69   H     H_    0.867991 0.667180 0.141347 0.254230
H70   H     H_    0.878637 0.562042 0.233520 0.210017
H71   H     H_    0.824432 0.633346 0.324759 0.210572
H72   H     H_    0.951509 0.687414 0.257669 0.197985
H73   H     H_    0.963717 0.587122 0.242024 0.200686
C126  C     C_3   0.079324 0.382451 0.718133 -0.426688
C127  C     C_3   0.021750 0.429368 0.820701 -0.274930
C128  C     C_3   0.978149 0.379818 0.926051 -0.915108
H74   H     H_    0.963289 0.325074 0.913845 0.268366
H75   H     H_    0.008243 0.364304 0.950494 0.261951
H76   H     H_    0.930500 0.411264 0.993966 0.261338
H77   H     H_    0.044105 0.472229 0.839199 0.217716
H78   H     H_    0.989887 0.460628 0.809451 0.202903
H79   H     H_    0.065019 0.321758 0.731198 0.197377
H80   H     H_    0.120287 0.387808 0.722212 0.177053
C129  C     C_3   0.742702 0.150843 0.278321 -0.427104
C130  C     C_3   0.768896 0.096364 0.182206 -0.309401
C131  C     C_3   0.794259 0.134335 0.074182 -0.872666
H81   H     H_    0.754587 0.171534 0.088821 0.268786
H82   H     H_    0.842271 0.167401 0.034915 0.264690
H83   H     H_    0.807062 0.089728 0.013654 0.247921
H84   H     H_    0.816482 0.069506 0.155400 0.213441
H85   H     H_    0.728673 0.054240 0.209655 0.214486
H86   H     H_    0.729619 0.205590 0.262516 0.200797
H87   H     H_    0.788074 0.163095 0.270396 0.176392
C132  C     C_3   0.252929 0.852666 0.704137 -0.449928
C133  C     C_3   0.215769 0.922717 0.769626 -0.316287
C134  C     C_3   0.144054 0.904745 0.881585 -0.914367
H88   H     H_    0.110698 0.878117 0.868603 0.262119
H89   H     H_    0.150075 0.865166 0.928516 0.273342
H90   H     H_    0.118682 0.957440 0.931307 0.260253
H91   H     H_    0.247349 0.950094 0.784775 0.215337
H92   H     H_    0.211022 0.957570 0.716881 0.199597
H93   H     H_    0.218038 0.823609 0.698152 0.198592
H94   H     H_    0.255706 0.810472 0.750496 0.201055
C135  C     C_3   0.255182 0.153584 0.714669 -0.446398
C136  C     C_3   0.215145 0.096196 0.809285 -0.314758
C137  C     C_3   0.156977 0.132707 0.922108 -0.925208
H95   H     H_    0.179144 0.172584 0.943818 0.283502
H96   H     H_    0.120531 0.163630 0.919277 0.261587
H97   H     H_    0.127746 0.088291 0.988461 0.254311
H98   H     H_    0.187752 0.060141 0.793777 0.221196
H99   H     H_    0.250255 0.066049 0.815186 0.215102
H100  H     H_    0.266412 0.204275 0.740785 0.206759
H101  H     H_    0.215936 0.174874 0.712471 0.193801
C138  C     C_3   0.754892 0.867297 0.294747 -0.459253
C139  C     C_3   0.792923 0.933663 0.217226 -0.315007
C140  C     C_3   0.870803 0.918470 0.125145 -0.934243
H102  H     H_    0.895986 0.919411 0.160864 0.262315
H103  H     H_    0.879481 0.862031 0.086883 0.279715
H104  H     H_    0.895369 0.962794 0.058815 0.258435
H105  H     H_    0.771878 0.943748 0.176310 0.213237
H106  H     H_    0.785252 0.981687 0.269618 0.209187
H107  H     H_    0.790999 0.845328 0.303183 0.220148
H108  H     H_    0.750980 0.819665 0.255613 0.196005
C141  C     C_3   0.243947 0.651518 0.281442 -0.436834
C142  C     C_3   0.273794 0.609558 0.172614 -0.305909
C143  C     C_3   0.298500 0.661730 0.075244 -0.896212
H109  H     H_    0.254895 0.677577 0.080753 0.267568
H110  H     H_    0.324682 0.712909 0.072713 0.269090
H111  H     H_    0.336384 0.630989 0.994522 0.252105
H112  H     H_    0.322379 0.581713 0.140430 0.217231
H113  H     H_    0.236380 0.568497 0.186775 0.216528
H114  H     H_    0.226195 0.708027 0.279783 0.198781
H115  H     H_    0.289854 0.663961 0.271519 0.180461
C144  C     C_3   0.739300 0.385899 0.699494 -0.457778
C145  C     C_3   0.714871 0.452692 0.774688 -0.287990
C146  C     C_3   0.636208 0.447889 0.874324 -0.949216
H116  H     H_    0.607841 0.469400 0.848828 0.255586
H117  H     H_    0.619545 0.388488 0.903900 0.283478
H118  H     H_    0.621228 0.482013 0.946074 0.253096
H119  H     H_    0.742158 0.453645 0.806341 0.207856
H120  H     H_    0.727105 0.502951 0.722335 0.211063
H121  H     H_    0.702882 0.382789 0.684691 0.210441
H122  H     H_    0.730384 0.333419 0.744769 0.201621
C147  C     C_3   0.761272 0.659724 0.716195 -0.435794
C148  C     C_3   0.727723 0.614670 0.824367 -0.307862
C149  C     C_3   0.701482 0.664142 0.924632 -0.897698
H123  H     H_    0.743995 0.677170 0.923317 0.268014
H124  H     H_    0.677750 0.717268 0.925955 0.270100
H125  H     H_    0.661338 0.632514 0.003868 0.249714
H126  H     H_    0.680002 0.588665 0.850294 0.224033
H127  H     H_    0.763244 0.571671 0.812102 0.215811
H128  H     H_    0.781072 0.714151 0.719270 0.197237
H129  H     H_    0.716879 0.678379 0.725365 0.181456
C150  C     C_3   0.258706 0.381746 0.295353 -0.469104
C151  C     C_3   0.286767 0.445091 0.213550 -0.302399
C152  C     C_3   0.362731 0.430972 0.107836 -0.922658
H130  H     H_    0.396885 0.439441 0.126686 0.250762
H131  H     H_    0.369878 0.372072 0.076786 0.277840
H132  H     H_    0.379065 0.471035 0.040069 0.255900
H133  H     H_    0.254762 0.449869 0.190323 0.215618
H134  H     H_    0.283670 0.495247 0.258451 0.211386
H135  H     H_    0.298752 0.372484 0.301062 0.210892
H136  H     H_    0.257537 0.329392 0.258616 0.203850
C153  C     C_1   0.590533 0.103346 0.113924 0.030062
N41   N     N_1   0.607652 0.083130 0.029568 -0.086288
C154  C     C_1   0.444920 0.839123 0.827488 0.062887
N42   N     N_1   0.464779 0.787228 0.843907 -0.114974
C155  C     C_1   0.401066 0.078366 0.897441 0.019982
N43   N     N_1   0.387517 0.049804 0.975453 -0.084749
C156  C     C_1   0.563929 0.841246 0.159963 0.074406
N44   N     N_1   0.550325 0.789707 0.132525 -0.112728
C157  C     C_1   0.084818 0.619621 0.122103 0.031891
N45   N     N_1   0.101723 0.608076 0.035460 -0.086932
C158  C     C_1   0.950777 0.305579 0.773467 0.071294
N46   N     N_1   0.972301 0.244508 0.756158 -0.114547
C159  C     C_1   0.934428 0.622715 0.860055 -0.000063
N47   N     N_1   0.930928 0.612013 0.935402 -0.099307
C160  C     C_1   0.009014 0.303370 0.278211 0.050538
N48   N     N_1   0.967689 0.257426 0.307484 -0.102317
C161  C     C_3   0.830955 0.906959 0.428483 -0.494515
C162  C     C_3   0.909471 0.894219 0.347336 -0.235873
C163  C     C_3   0.948247 0.969297 0.317226 -0.886771
H137  H     H_    0.936144 0.008830 0.277706 0.256679
H138  H     H_    0.933427 0.996206 0.393590 0.258753
H139  H     H_    0.005026 0.958692 0.256910 0.254516
H140  H     H_    0.922692 0.855301 0.385902 0.210988
H141  H     H_    0.926854 0.868244 0.268866 0.195690
H142  H     H_    0.817871 0.941223 0.386102 0.198192
H143  H     H_    0.815812 0.937575 0.502460 0.218743
C164  C     C_3   0.188697 0.141824 0.565162 -0.517184
C165  C     C_3   0.113699 0.158288 0.619079 -0.205082
C166  C     C_3   0.075496 0.086683 0.631701 -0.899971
H144  H     H_    0.103028 0.059922 0.548594 0.269257
H145  H     H_    0.071005 0.045642 0.689374 0.255764
H146  H     H_    0.022344 0.101617 0.667712 0.259024
H147  H     H_    0.085264 0.182761 0.703806 0.192000
H148  H     H_    0.113243 0.200174 0.567211 0.215237
H149  H     H_    0.215649 0.110705 0.485579 0.197664
H150  H     H_    0.188566 0.107467 0.623764 0.182863
C167  C     C_3   0.178140 0.877591 0.579476 -0.452255
C168  C     C_3   0.216495 0.948757 0.508933 -0.287220
C169  C     C_3   0.226027 0.953350 0.403333 -0.882871
H151  H     H_    0.265067 0.912003 0.339511 0.258501
H152  H     H_    0.176079 0.942828 0.424069 0.261595
H153  H     H_    0.245121 0.010713 0.365056 0.233905
H154  H     H_    0.183378 0.995832 0.563946 0.213348
H155  H     H_    0.266965 0.955816 0.487361 0.197320
H156  H     H_    0.132104 0.867080 0.588359 0.202966
H157  H     H_    0.157680 0.887232 0.665478 0.159394
C170  C     C_3   0.796503 0.128644 0.457373 -0.427731
C171  C     C_3   0.745965 0.078730 0.562334 -0.266681
C172  C     C_3   0.765848 0.072021 0.633641 -0.897037
H158  H     H_    0.819194 0.049189 0.583147 0.258829
H159  H     H_    0.763308 0.128356 0.667395 0.264327
H160  H     H_    0.729093 0.032886 0.705315 0.251301
H161  H     H_    0.693198 0.100577 0.614876 0.199588
H162  H     H_    0.741797 0.021909 0.538030 0.182465
H163  H     H_    0.807383 0.100571 0.384661 0.150511
H164  H     H_    0.847028 0.134564 0.436235 0.211638
C173  C     C_3   0.337040 0.418197 0.452707 -0.492926
C174  C     C_3   0.401460 0.398651 0.436691 -0.201904
C175  C     C_3   0.449248 0.466585 0.397754 -0.922960
H165  H     H_    0.471132 0.484770 0.313000 0.269398
H166  H     H_    0.420550 0.513924 0.458618 0.261286
H167  H     H_    0.492978 0.450235 0.392506 0.254980
H168  H     H_    0.384888 0.378566 0.517503 0.204877
H169  H     H_    0.431653 0.352513 0.373806 0.195905
H170  H     H_    0.353147 0.441888 0.373817 0.193914
H171  H     H_    0.303975 0.459275 0.522513 0.185366
C176  C     C_3   0.676199 0.629494 0.602018 -0.502170
C177  C     C_3   0.601687 0.643637 0.651761 -0.204153
C178  C     C_3   0.557449 0.571650 0.703888 -0.926312
H172  H     H_    0.576649 0.528571 0.638266 0.263769
H173  H     H_    0.558256 0.547598 0.767615 0.258793
H174  H     H_    0.502963 0.585500 0.745690 0.255858
H175  H     H_    0.577035 0.687439 0.718417 0.202815
H176  H     H_    0.602230 0.664975 0.585383 0.196500
H177  H     H_    0.701990 0.587452 0.533988 0.206178
H178  H     H_    0.674863 0.606079 0.668093 0.192147
C179  C     C_3   0.692773 0.424693 0.492526 -0.455014
C180  C     C_3   0.742122 0.470659 0.382857 -0.259663
C181  C     C_3   0.703248 0.522523 0.363655 -0.918720
H179  H     H_    0.673522 0.487787 0.349659 0.267937
H180  H     H_    0.666841 0.560348 0.436384 0.267589
H181  H     H_    0.741076 0.558335 0.288072 0.252680
H182  H     H_    0.776179 0.505347 0.386917 0.175403
H183  H     H_    0.775661 0.433128 0.308497 0.204524
H184  H     H_    0.643181 0.413544 0.512171 0.207434
H185  H     H_    0.680810 0.456862 0.563464 0.179868
C182  C     C_3   0.330841 0.601051 0.397759 -0.482774
C183  C     C_3   0.402930 0.606096 0.279530 -0.243812
C184  C     C_3   0.455840 0.646687 0.278670 -0.846182
H186  H     H_    0.442143 0.707253 0.301697 0.261055
H187  H     H_    0.458300 0.620348 0.339157 0.256381
H188  H     H_    0.508002 0.642970 0.193417 0.243317
H189  H     H_    0.421798 0.547566 0.247136 0.186010
H190  H     H_    0.399894 0.634718 0.220688 0.186376
H191  H     H_    0.336099 0.578474 0.456745 0.200095
H192  H     H_    0.298662 0.560507 0.395626 0.153693
C185  C     C_1   0.311556 0.868829 0.064442 0.068134
N49   N     N_1   0.327816 0.867283 0.116994 -0.115655
C186  C     C_1   0.608256 0.275425 0.093949 0.073850
N50   N     N_1   0.588449 0.289630 0.048438 -0.114347
C187  C     C_1   0.695483 0.877674 0.930009 0.065616
N51   N     N_1   0.681234 0.879264 0.874644 -0.112350
C188  C     C_1   0.328922 0.281411 0.939515 0.090069
N52   N     N_1   0.340420 0.342861 0.949043 -0.094327
C189  C     C_1   0.820534 0.325271 0.043808 0.039559
N53   N     N_1   0.836073 0.307044 0.094439 -0.118376
C190  C     C_1   0.087597 0.794026 0.141062 0.049939
N54   N     N_1   0.055829 0.815898 0.118470 -0.114273
C191  C     C_1   0.188038 0.304560 0.997998 0.068182
N55   N     N_1   0.205305 0.329758 0.915518 -0.102906
C192  C     C_1   0.913080 0.793294 0.862465 0.079527
N56   N     N_1   0.943923 0.816167 0.886374 -0.108069

loop_
_geom_bond_atom_site_label_1
_geom_bond_atom_site_label_2
_geom_bond_distance
_ccdc_geom_bond_type
C147  H129  1.102295 S    
C58   C73   1.521275 S    
C59   C167  1.520988 S    
C130  H84   1.102191 S    
C184  H186  1.106253 S    
C18   N18   1.364616 A    
C62   C77   1.526286 S    
C153  N41   1.157435 T    
C8    C104  1.442732 S    
C187  N51   1.157681 T    
C132  H93   1.090738 S    
C148  H126  1.102030 S    
C170  H163  1.110520 S    
C85   C190  1.445935 S    
C54   C69   1.556246 S    
C55   C59   1.526871 S    
C58   C66   1.522395 S    
C25   C153  1.447188 S    
C158  N46   1.155968 T    
C124  C125  1.536071 S    
C10   N10   1.330548 A    
N23   Ni3   1.947321 S    
C4    N4    1.341369 A    
C83   C91   1.344883 D    
C5    N5    1.371439 A    
C117  H59   1.078075 S    
C7    N7    1.369107 A    
C113  H39   1.108249 S    
C8    N8    1.333121 A    
C64   C182  1.530247 S    
C111  H45   1.076081 S    
C177  H176  1.111579 S    
C150  H136  1.102464 S    
C97   N33   1.157217 T    
C21   C141  1.558308 S    
C183  H189  1.109902 S    
C51   H3    1.104578 S    
C129  H86   1.102647 S    
C14   C46   1.338101 A    
N9    N17   1.348672 A    
N28   Ni6   1.918292 S    
C22   C46   1.388908 A    
C13   N13   1.332687 A    
N12   N20   1.348564 A    
C105  H31   1.067256 S    
N13   N21   1.348672 A    
N1    N27   1.424452 A    
C15   N15   1.344687 A    
N11   Ni6   1.920451 S    
N2    N28   1.424455 A    
C192  N56   1.156577 T    
C16   N16   1.350367 A    
C122  H60   1.109062 S    
C173  H171  1.109131 S    
C104  N40   1.157945 T    
C82   C90   1.356835 D    
N6    N32   1.424455 A    
N7    N29   1.424320 A    
C123  H72   1.109571 S    
C176  H178  1.107546 S    
C164  H149  1.105541 S    
C17   C41   1.379553 A    
C134  H89   1.103708 S    
C112  H43   1.084365 S    
C184  H188  1.109864 S    
C166  H146  1.109559 S    
C142  C143  1.527460 S    
C21   N21   1.355962 A    
C170  C171  1.536946 S    
C29   C39   1.377904 A    
C36   C82   1.503210 S    
C23   N23   1.361810 A    
C9    C105  1.525172 S    
C24   N24   1.376129 A    
C48   C69   1.489912 S    
C49   C61   1.530133 S    
C130  H85   1.099521 S    
C51   C63   1.530206 S    
C131  H82   1.108574 S    
C169  H151  1.104743 S    
N7    Ni4   1.942975 S    
C71   C75   1.527800 S    
C173  C174  1.541047 S    
C9    N9    1.360378 A    
C80   H16   1.105400 S    
C61   C69   1.534746 S    
C166  H144  1.110029 S    
C59   C67   1.525119 S    
C162  H141  1.108701 S    
N17   Ni2   1.949787 S    
C114  H52   1.113479 S    
C138  H107  1.094359 S    
C168  H154  1.092072 S    
C137  H96   1.111500 S    
C19   C135  1.546650 S    
C191  N55   1.157585 T    
C3    N3    1.362949 A    
C174  C175  1.519058 S    
C52   C64   1.529231 S    
C141  C142  1.540878 S    
C108  C109  1.485763 S    
C78   H14   1.108735 S    
C17   C129  1.546335 S    
N12   Ni5   1.920451 S    
C178  H172  1.107932 S    
C58   C164  1.520308 S    
C182  H192  1.109906 S    
C172  H159  1.108872 S    
C149  H124  1.109447 S    
C115  H49   1.096921 S    
C32   C160  1.441298 S    
C160  N48   1.157993 T    
C116  H48   1.105524 S    
C106  C107  1.527776 S    
H23   C96   1.084368 S    
C128  H74   1.099652 S    
C57   C74   1.537966 S    
C41   C68   1.463402 S    
C122  H62   1.095193 S    
C27   C33   1.379939 A    
C66   C78   1.534136 S    
C47   C70   1.448225 S    
C10   C108  1.498848 S    
C25   N25   1.337169 A    
C51   C68   1.527337 S    
C76   H12   1.105750 S    
C129  C130  1.533015 S    
C70   C74   1.536879 S    
C83   C188  1.445690 S    
C89   C94   1.475231 S    
C110  H33   1.111075 S    
C168  C169  1.530629 S    
C50   C62   1.530663 S    
C28   N28   1.373321 A    
C29   N29   1.345596 A    
C52   H4    1.104312 S    
C28   C156  1.438246 S    
C31   N31   1.340416 A    
H17   C90   1.084514 S    
C113  H41   1.108244 S    
C1    C33   1.370140 A    
C181  H180  1.107009 S    
C19   N19   1.368994 A    
C180  H183  1.109026 S    
C161  H142  1.109841 S    
C126  H80   1.102710 S    
C30   C158  1.441043 S    
C13   C117  1.493048 S    
C123  C124  1.559942 S    
C9    C41   1.397231 A    
C152  H131  1.110142 S    
N18   Ni1   1.949789 S    
C141  H114  1.101826 S    
C44   C65   1.458377 S    
C146  H117  1.107280 S    
N3    Ni2   1.942975 S    
C18   C132  1.509136 S    
C177  C178  1.525593 S    
C145  H119  1.103174 S    
C178  H174  1.110477 S    
C4    C36   1.378395 A    
C127  H77   1.100225 S    
C117  C118  1.547529 S    
C135  H100  1.100461 S    
C124  H70   1.097847 S    
C107  H25   1.109751 S    
C87   C95   1.350862 D    
C165  H147  1.110060 S    
N27   Ni5   1.918292 S    
C55   C79   1.547042 S    
C6    N6    1.343516 A    
C60   C170  1.534538 S    
C164  C165  1.533883 S    
C27   C155  1.446414 S    
N9    Ni5   1.914484 S    
C116  H46   1.110505 S    
C125  H68   1.108499 S    
C121  H63   1.103420 S    
C31   C37   1.375641 A    
C183  C184  1.529166 S    
C163  H138  1.110613 S    
C109  H35   1.089415 S    
C139  H106  1.109800 S    
C136  H98   1.091175 S    
N19   Ni1   1.947321 S    
C33   C83   1.456146 S    
C133  H92   1.108803 S    
C53   C57   1.523774 S    
C3    C99   1.448811 S    
C169  H153  1.108884 S    
C147  H128  1.100206 S    
C128  H76   1.106151 S    
C14   N14   1.335264 A    
C34   C84   1.508407 S    
N14   N22   1.348670 A    
C151  C152  1.534449 S    
C2    C34   1.371547 A    
C179  H185  1.109299 S    
C132  C133  1.484374 S    
C40   C86   1.489863 S    
C148  H127  1.100700 S    
C87   C192  1.448107 S    
C130  C131  1.527369 S    
C171  H161  1.089853 S    
C119  H55   1.110403 S    
C85   C93   1.352290 D    
C42   C67   1.447909 S    
C56   C60   1.532618 S    
C26   C154  1.439861 S    
C142  H112  1.104197 S    
C111  C112  1.558973 S    
C143  H111  1.111364 S    
N13   Ni7   1.914484 S    
C103  N39   1.158245 T    
C144  H121  1.109307 S    
C162  C163  1.526248 S    
C49   H1    1.102045 S    
C61   C173  1.518995 S    
C136  C137  1.522372 S    
C63   C179  1.526092 S    
C16   C126  1.530613 S    
C12   C114  1.508475 S    
C82   C185  1.450433 S    
C53   H5    1.088895 S    
C59   C76   1.527022 S    
C179  C180  1.537627 S    
C108  H38   1.107196 S    
N16   N24   1.348564 A    
C56   C71   1.544321 S    
C111  H44   1.108372 S    
C125  H67   1.106795 S    
C60   C68   1.530977 S    
N6    Ni4   1.945797 S    
C102  N38   1.158083 T    
C45   C72   1.436173 S    
C150  H135  1.105604 S    
C161  C162  1.530767 S    
C183  H190  1.109799 S    
C120  H66   1.085806 S    
N10   N18   1.348670 A    
C159  N47   1.156246 T    
C79   H15   1.110942 S    
N20   Ni2   1.947319 S    
C174  H168  1.109321 S    
C52   C76   1.545461 S    
C29   C157  1.442482 S    
C175  H167  1.110565 S    
N22   Ni3   1.949789 S    
C54   C58   1.519877 S    
C54   C78   1.545216 S    
C140  H104  1.109938 S    
C105  H30   1.111613 S    
C56   C80   1.554880 S    
C101  N37   1.158122 T    
C121  C122  1.522042 S    
C151  H134  1.105256 S    
C98   N34   1.158409 T    
C115  C116  1.519044 S    
N25   Ni6   1.912303 S    
C137  H95   1.094661 S    
C176  H177  1.099880 S    
C167  H157  1.106228 S    
C106  H28   1.101304 S    
C107  H27   1.109499 S    
C108  H37   1.088956 S    
C13   C45   1.368741 A    
C1    C97   1.446074 S    
N15   N23   1.348563 A    
C134  H88   1.110951 S    
C184  H187  1.106488 S    
C63   C71   1.527289 S    
C132  H94   1.080754 S    
C11   C111  1.524034 S    
C8    C40   1.373447 A    
C144  C145  1.488344 S    
C26   N26   1.360981 A    
C118  H56   1.097954 S    
C1    N1    1.339486 A    
C170  H164  1.111408 S    
C50   H2    1.106128 S    
C90   C93   1.487279 S    
C100  N36   1.158593 T    
C30   N30   1.351928 A    
C146  H116  1.110994 S    
C21   C45   1.373770 A    
C54   H6    1.107231 S    
N8    Ni3   1.942975 S    
C114  C115  1.496967 S    
C23   C47   1.382851 A    
C143  H109  1.102724 S    
C24   C150  1.525865 S    
C154  N42   1.157549 T    
C31   C159  1.436421 S    
C86   C189  1.446883 S    
C114  H51   1.094296 S    
C168  H155  1.108802 S    
C139  H105  1.103061 S    
H24   C95   1.081299 S    
C145  H120  1.105886 S    
C18   C42   1.382263 A    
H18   C89   1.081656 S    
C180  C181  1.527643 S    
C177  H175  1.109995 S    
H22   C93   1.082468 S    
N14   Ni8   1.914484 S    
C119  H53   1.109804 S    
C28   C34   1.398414 A    
C127  C128  1.525040 S    
C182  H191  1.106493 S    
C172  H158  1.109771 S    
C6    C38   1.358691 A    
C49   C66   1.534714 S    
C115  H50   1.096199 S    
N15   Ni8   1.920451 S    
C86   C94   1.352048 D    
C75   H11   1.105036 S    
C5    C37   1.390265 A    
C129  H87   1.109415 S    
C73   H9    1.107373 S    
C84   C187  1.451905 S    
C2    C98   1.445898 S    
C175  H165  1.108412 S    
C118  H57   1.095894 S    
C55   C72   1.530795 S    
C12   N12   1.341148 A    
N30   Ni7   1.912303 S    
N5    Ni3   1.945797 S    
C4    C100  1.448265 S    
C60   C75   1.522586 S    
C17   N17   1.354306 A    
C178  H173  1.110888 S    
C46   C71   1.462053 S    
C150  C151  1.484117 S    
C122  H61   1.102946 S    
C39   C85   1.491035 S    
C64   C79   1.538354 S    
C49   C73   1.545688 S    
N2    Ni2   1.945797 S    
C123  H73   1.086395 S    
C110  H32   1.110420 S    
C23   C147  1.558509 S    
C52   C67   1.548009 S    
C53   C77   1.545758 S    
C164  H150  1.108350 S    
H20   C91   1.087290 S    
C149  H123  1.104532 S    
N11   N19   1.348563 A    
H21   C94   1.085895 S    
C133  C134  1.521776 S    
C105  C106  1.552314 S    
C134  H90   1.108916 S    
C112  H42   1.097369 S    
C113  H40   1.110750 S    
C5    C101  1.450388 S    
C55   H7    1.101831 S    
C84   C92   1.355408 D    
C20   C138  1.519287 S    
N3    N25   1.424320 A    
C26   C36   1.396816 A    
N32   Ni8   1.918292 S    
C64   C72   1.523648 S    
C126  H79   1.102138 S    
C156  N44   1.156828 T    
C88   C96   1.346575 D    
C88   C191  1.450544 S    
C99   N35   1.157906 T    
C62   C176  1.529965 S    
C152  H130  1.111360 S    
C176  C177  1.534938 S    
C188  N52   1.156594 T    
C131  H83   1.110726 S    
C171  C172  1.527645 S    
C81   C186  1.448562 S    
C118  C119  1.526801 S    
C155  N43   1.156662 T    
C165  C166  1.525611 S    
C56   H8    1.109275 S    
C19   C43   1.383389 A    
C151  H133  1.107600 S    
C173  H170  1.108404 S    
C166  H145  1.110488 S    
C7    C39   1.381037 A    
C15   C123  1.518337 S    
C127  H78   1.096713 S    
C50   C65   1.546486 S    
C65   C77   1.530171 S    
C162  H140  1.112218 S    
C124  H71   1.098335 S    
C67   C79   1.526031 S    
C138  H108  1.088301 S    
C12   C44   1.338192 A    
C137  H97   1.110323 S    
C165  H148  1.111132 S    
C120  C121  1.537699 S    
C69   C73   1.533106 S    
C20   C44   1.379345 A    
C140  H103  1.108062 S    
C16   C48   1.357276 A    
C163  H137  1.111210 S    
N5    N31   1.424452 A    
C133  H91   1.100219 S    
N4    Ni1   1.942975 S    
C24   C48   1.395480 A    
C112  C113  1.524630 S    
C11   N11   1.356497 A    
C121  H64   1.105263 S    
C62   C70   1.525969 S    
C172  H160  1.110774 S    
N4    N26   1.424317 A    
C149  H125  1.111174 S    
C109  H36   1.092211 S    
C10   C42   1.341657 A    
C136  H99   1.104777 S    
C50   C74   1.551558 S    
N8    N30   1.424317 A    
C6    C102  1.440535 S    
C169  H152  1.110471 S    
C128  H75   1.107235 S    
C22   N22   1.371258 A    
C37   C87   1.495137 S    
C38   C88   1.459333 S    
C179  H184  1.111791 S    
C182  C183  1.535861 S    
C14   C120  1.514126 S    
N16   Ni7   1.920451 S    
N24   Ni4   1.947319 S    
C109  C110  1.516853 S    
C110  H34   1.105613 S    
C35   C81   1.484044 S    
C148  C149  1.528096 S    
N29   Ni8   1.912303 S    
C171  H162  1.102572 S    
C119  H54   1.108530 S    
C57   C161  1.527427 S    
C181  H179  1.110848 S    
N10   Ni6   1.914484 S    
C32   N32   1.368733 A    
C61   C78   1.542394 S    
C181  H181  1.110693 S    
C43   C66   1.465697 S    
C142  H113  1.099937 S    
C63   C80   1.540807 S    
C143  H110  1.108363 S    
C180  H182  1.104162 S    
C161  H143  1.105198 S    
C32   C38   1.370685 A    
C138  C139  1.494114 S    
C152  H132  1.109525 S    
N21   Ni4   1.949787 S    
C27   N27   1.352713 A    
C53   C70   1.526630 S    
C57   C65   1.526279 S    
C131  H81   1.100860 S    
C2    N2    1.336362 A    
N26   Ni5   1.912303 S    
C141  H115  1.105209 S    
C145  C146  1.536856 S    
C140  H102  1.110235 S    
C146  H118  1.109566 S    
C77   H13   1.111168 S    
C25   C35   1.373263 A    
N31   Ni7   1.918292 S    
C91   C96   1.466856 S    
C92   C95   1.489410 S    
C3    C35   1.389853 A    
C126  C127  1.529659 S    
C144  H122  1.095972 S    
C120  H65   1.106478 S    
C135  H101  1.100022 S    
C139  C140  1.530980 S    
C11   C43   1.372262 A    
C81   C89   1.345070 D    
C190  N54   1.156069 T    
C174  H169  1.111872 S    
C167  C168  1.524139 S    
C175  H166  1.109889 S    
C189  N53   1.157129 T    
H19   C92   1.085491 S    
C7    C103  1.448707 S    
C116  H47   1.111519 S    
C125  H69   1.110512 S    
C147  C148  1.535527 S    
C20   N20   1.369293 A    
C186  N50   1.156078 T    
C163  H139  1.110373 S    
C30   C40   1.392655 A    
C185  N49   1.157448 T    
C68   C80   1.540353 S    
C117  H58   1.105460 S    
C51   C75   1.552452 S    
C22   C144  1.518333 S    
C15   C47   1.381323 A    
C157  N45   1.156119 T    
C135  C136  1.510348 S    
C167  H156  1.111814 S    
C74   H10   1.108913 S    
C106  H29   1.080072 S    
C72   C76   1.525604 S    
N1    Ni1   1.945797 S    
C107  H26   1.110150 S    
