data_mof_unit_27623.cif
_audit_creation_date              2012-12-10T18:09:52-0500
_audit_creation_method            fapswitch 2.2
_symmetry_space_group_name_H-M    P1
_symmetry_Int_Tables_number       1
_space_group_crystal_system       triclinic
_cell_length_a                    10.681553
_cell_length_b                    12.589861
_cell_length_c                    12.996934
_cell_angle_alpha                 82.541447
_cell_angle_beta                  90.571494
_cell_angle_gamma                 102.130368
_cell_volume                      1694.06488352

loop_
_atom_site_label
_atom_site_type_symbol
_atom_type_description
_atom_site_fract_x
_atom_site_fract_y
_atom_site_fract_z
_atom_type_partial_charge
C1    C     C_R   0.490757 0.438974 0.691715 0.879689
C2    C     C_R   0.533698 0.437342 0.977718 -0.008254
C3    C     C_R   0.564498 0.462507 0.871459 0.050166
C4    C     C_R   0.741928 0.501805 0.496881 0.898358
C5    C     C_R   0.571741 0.522285 0.039628 0.051733
C6    C     C_R   0.670859 0.614122 0.005292 0.165152
C7    C     C_R   0.724823 0.623574 0.905471 0.055861
C8    C     C_R   0.667298 0.550351 0.837829 -0.230101
C9    C     C_R   0.505714 0.521997 0.131176 -0.257636
C10   C     C_R   0.654952 0.683703 0.169586 -0.210643
C11   C     C_R   0.491753 0.398624 0.802077 -0.123259
C12   C     C_3   0.121833 0.500397 0.508284 0.050300
C13   C     C_R   0.309288 0.086492 0.354829 -0.286276
C14   C     C_R   0.649582 0.797663 0.632221 -0.016337
C15   C     C_R   0.665449 0.895492 0.673404 -0.229170
C16   C     C_R   0.516871 0.560835 0.308221 0.844610
C17   C     C_R   0.599202 0.975227 0.632299 0.111364
C18   C     C_R   0.524077 0.959217 0.541163 -0.040669
C19   C     C_R   0.504123 0.854017 0.507966 0.161000
C20   C     C_R   0.465289 0.039388 0.483263 -0.063612
C21   C     C_R   0.373928 0.008618 0.405613 0.174793
C22   C     C_R   0.351591 0.901972 0.378429 0.141925
C23   C     C_3   0.071678 0.487432 0.395861 -0.550947
C24   C     C_R   0.418962 0.827780 0.428300 -0.212426
C25   C     C_R   0.498959 0.151072 0.494299 -0.051244
C26   C     C_R   0.338483 0.192769 0.377974 -0.004782
C27   C     C_R   0.258178 0.498842 0.504379 0.870561
C28   C     C_3   0.901487 0.412454 0.587000 -0.160811
C29   C     C_3   0.044967 0.402996 0.585453 0.013045
C30   C     C_3   0.924692 0.469585 0.394768 -0.006262
C31   C     C_3   0.958516 0.619813 0.519039 0.041232
C32   C     C_3   0.878953 0.503597 0.497662 0.061983
C33   C     C_3   0.874853 0.518873 0.291405 -0.890104
C34   C     C_3   0.100475 0.614464 0.534409 0.035414
C35   C     C_3   0.261870 0.866955 0.292649 -0.959790
C36   C     C_3   0.104398 0.381901 0.693166 -0.916717
C37   C     C_3   0.948274 0.718205 0.436221 -0.937358
C38   C     C_3   0.149389 0.650411 0.640335 -0.902657
C39   C     C_R   0.711580 0.694674 0.071367 -0.187803
C40   C     C_R   0.552971 0.595572 0.199790 -0.049952
C41   C     C_R   0.411632 0.298088 0.839476 -0.297162
C42   C     C_R   0.402346 0.260922 0.945675 0.183676
C43   C     C_R   0.463974 0.329620 0.015909 0.083547
H1    H     H_    0.844720 0.331961 0.569320 0.137754
H2    H     H_    0.237027 0.066864 0.297453 0.155647
H3    H     H_    0.578831 0.184929 0.538879 0.132292
H4    H     H_    0.697817 0.734845 0.666201 0.141380
H5    H     H_    0.723982 0.906910 0.741271 0.170389
H6    H     H_    0.402983 0.748813 0.403462 0.218493
H7    H     H_    0.047332 0.327242 0.550120 0.152309
H8    H     H_    0.887148 0.379725 0.396510 0.162931
H9    H     H_    0.099840 0.416406 0.366370 0.177785
H10   H     H_    0.918966 0.639086 0.591661 0.170198
H11   H     H_    0.906442 0.480191 0.226913 0.240466
H12   H     H_    0.159639 0.677399 0.476249 0.188924
H13   H     H_    0.768753 0.500911 0.291741 0.245854
H14   H     H_    0.910406 0.607935 0.272687 0.253028
H15   H     H_    0.858081 0.706868 0.794640 0.164462
H16   H     H_    0.910745 0.695744 0.916091 0.179545
H17   H     H_    0.548020 0.323898 0.159907 0.206336
H18   H     H_    0.384509 0.280929 0.160268 0.169031
H19   H     H_    0.295795 0.110609 0.921703 0.174653
H20   H     H_    0.250304 0.162878 0.024051 0.169391
H21   H     H_    0.846466 0.356545 0.739996 0.205711
H22   H     H_    0.910693 0.492023 0.719390 0.194754
H23   H     H_    0.115843 0.561544 0.341625 0.190867
H24   H     H_    0.253951 0.779289 0.283407 0.230582
H25   H     H_    0.164653 0.878700 0.309936 0.239617
H26   H     H_    0.297389 0.916860 0.217822 0.263521
H27   H     H_    0.670523 0.126651 0.674935 0.172606
H28   H     H_    0.505564 0.081106 0.693032 0.195708
H29   H     H_    0.203803 0.370580 0.685007 0.240132
H30   H     H_    0.106101 0.448349 0.741071 0.255772
H31   H     H_    0.048958 0.304781 0.736444 0.234924
H32   H     H_    0.012047 0.723149 0.368539 0.236456
H33   H     H_    0.850554 0.716411 0.406580 0.272987
H34   H     H_    0.694147 0.740811 0.223093 0.157697
H35   H     H_    0.979525 0.795669 0.470544 0.240223
H36   H     H_    0.235931 0.620506 0.667237 0.278592
H37   H     H_    0.174075 0.741387 0.632677 0.239926
H38   H     H_    0.077059 0.623845 0.703596 0.213695
H39   H     H_    0.788726 0.764504 0.048676 0.156411
H40   H     H_    0.419378 0.461306 0.152702 0.143816
H41   H     H_    0.357382 0.247798 0.785857 0.160525
H42   H     H_    0.705362 0.560718 0.759609 0.160392
H43   H     H_    0.287921 0.253084 0.341118 0.121145
N1    N     N_R   0.433240 0.222190 0.444680 -0.097789
N2    N     N_R   0.566070 0.776970 0.554790 -0.122742
N3    N     N_3   0.832644 0.710250 0.871429 -0.480067
N4    N     N_3   0.470202 0.281603 0.121974 -0.440483
N5    N     N_3   0.330414 0.153283 0.983525 -0.435714
N6    N     N_3   0.851886 0.428065 0.687901 -0.480278
N7    N     N_3   0.595044 0.059738 0.695552 -0.463106
O1    O     O_R   0.468120 0.366740 0.627160 -0.613843
O2    O     O_R   0.510770 0.544830 0.662520 -0.611091
O3    O     O_R   0.663880 0.410950 0.482330 -0.633241
O4    O     O_R   0.706530 0.589040 0.517700 -0.635160
O5    O     O_R   0.489230 0.455170 0.337480 -0.616131
O6    O     O_R   0.531880 0.633260 0.372840 -0.635767
O7    O     O_R   0.293470 0.410960 0.482300 -0.626979
O8    O     O_R   0.336120 0.589050 0.517670 -0.640875
Zn1   Zn    Zn3+2 0.471520 0.381090 0.476390 0.921267
Zn2   Zn    Zn3+2 0.528480 0.618910 0.523610 0.914636

loop_
_geom_bond_atom_site_label_1
_geom_bond_atom_site_label_2
_ccdc_geom_bond_type
H22   N6    S    
O6    Zn2   S    
C30   H8    S    
O3    Zn1   S    
C12   C29   S    
C41   C42   A    
C1    C11   S    
C7    C8    A    
C22   C35   S    
C29   C36   S    
C23   H23   S    
C28   C29   S    
C42   N5    S    
C5    C6    A    
C20   C25   A    
C7    N3    S    
C25   N1    A    
C10   C40   A    
C8    H42   S    
H16   N3    S    
C4    O3    A    
C26   N1    A    
C11   C41   A    
C30   C32   S    
C1    O2    A    
C33   H11   S    
C33   H13   S    
C37   H32   S    
C34   H12   S    
O8    Zn2   S    
C4    O4    A    
C15   H5    S    
C10   H34   S    
O2    Zn2   S    
C6    C7    A    
C29   H7    S    
C27   O7    A    
C43   N4    S    
C12   C27   S    
C23   C30   S    
C28   C32   S    
H27   N7    S    
C19   N2    A    
C18   C19   A    
O5    Zn1   S    
C41   H41   S    
C28   H1    S    
C9    C40   A    
C31   C37   S    
C10   C39   A    
C5    C9    A    
N1    Zn1   S    
C31   C32   S    
C12   C23   S    
C35   H24   S    
C2    C43   A    
C26   H43   S    
C6    C39   A    
H19   N5    S    
O7    Zn1   S    
C17   C18   A    
C31   C34   S    
C13   C21   A    
C28   N6    S    
C4    C32   S    
C31   H10   S    
O1    Zn1   S    
O4    Zn2   S    
C36   H31   S    
C9    H40   S    
C37   H33   S    
C16   C40   S    
C3    C8    A    
C38   H38   S    
C22   C24   A    
C13   C26   A    
C2    C5    A    
C17   N7    S    
C42   C43   A    
H21   N6    S    
C12   C34   S    
N2    Zn2   S    
H18   N4    S    
C24   H6    S    
C15   C17   A    
C33   H14   S    
C30   C33   S    
C34   C38   S    
C39   H39   S    
C1    O1    A    
C16   O6    A    
C14   H4    S    
H28   N7    S    
H17   N4    S    
C37   H35   S    
C19   C24   A    
C14   N2    A    
C13   H2    S    
C16   O5    A    
C23   H9    S    
C38   H37   S    
C35   H25   S    
C27   O8    A    
C2    C3    A    
C18   C20   A    
H15   N3    S    
C3    C11   A    
C36   H30   S    
C20   C21   A    
C35   H26   S    
C38   H36   S    
H20   N5    S    
C14   C15   A    
C21   C22   A    
C25   H3    S    
C36   H29   S    
