data_mof_unit_32533.cif
_audit_creation_date              2012-12-11T15:37:23-0500
_audit_creation_method            fapswitch 2.2
_symmetry_space_group_name_H-M    P1
_symmetry_Int_Tables_number       1
_space_group_crystal_system       triclinic
_cell_length_a                    17.370648
_cell_length_b                    24.451873
_cell_length_c                    14.877845
_cell_angle_alpha                 89.999818
_cell_angle_beta                  126.059126
_cell_angle_gamma                 89.999404
_cell_volume                      5108.57600935

loop_
_atom_site_label
_atom_site_type_symbol
_atom_type_description
_atom_site_fract_x
_atom_site_fract_y
_atom_site_fract_z
_atom_type_partial_charge
C1    C     C_R   0.863207 0.654767 0.908959 0.506498
C2    C     C_R   0.187329 0.369669 0.090469 0.466424
C3    C     C_R   0.187326 0.630332 0.090468 0.466404
C4    C     C_R   0.863206 0.345234 0.908962 0.506456
C5    C     C_R   0.363208 0.154767 0.908958 0.506485
C6    C     C_R   0.687330 0.869669 0.090468 0.466418
C7    C     C_R   0.687329 0.130329 0.090466 0.466427
C8    C     C_R   0.363209 0.845233 0.908961 0.506478
C9    C     C_3   0.392577 0.500000 0.475642 -0.515475
C10   C     C_3   0.571106 0.500000 0.655678 -0.467230
C11   C     C_3   0.892578 0.999999 0.475642 -0.515464
C12   C     C_3   0.071107 1.000000 0.655680 -0.467232
C13   C     C_R   0.762677 0.248124 0.894681 -0.041943
C14   C     C_R   0.343907 0.680999 0.080635 -0.057911
C15   C     C_R   0.343911 0.319003 0.080629 -0.057910
C16   C     C_R   0.762714 0.751904 0.894659 -0.041948
C17   C     C_R   0.262725 0.748090 0.894656 -0.041915
C18   C     C_R   0.843900 0.180992 0.080601 -0.057890
C19   C     C_R   0.843909 0.819004 0.080625 -0.057913
C20   C     C_R   0.262722 0.251909 0.894657 -0.041923
C21   C     C_R   0.211474 0.704973 0.892634 -0.116060
C22   C     C_R   0.895313 0.225500 0.083629 -0.093030
C23   C     C_R   0.895322 0.774496 0.083648 -0.093076
C24   C     C_R   0.211471 0.295025 0.892637 -0.116035
C25   C     C_R   0.711427 0.205007 0.892656 -0.116040
C26   C     C_R   0.395320 0.725506 0.083659 -0.093059
C27   C     C_R   0.395325 0.274497 0.083650 -0.093082
C28   C     C_R   0.711465 0.795022 0.892637 -0.116032
C29   C     C_R   0.248682 0.673831 0.988486 0.119407
C30   C     C_R   0.852273 0.260797 0.992328 0.128719
C31   C     C_R   0.852291 0.739212 0.992326 0.128714
C32   C     C_R   0.248684 0.326169 0.988486 0.119407
C33   C     C_R   0.748664 0.173839 0.988478 0.119411
C34   C     C_R   0.352295 0.760786 0.992330 0.128720
C35   C     C_R   0.352297 0.239215 0.992325 0.128733
C36   C     C_R   0.748681 0.826169 0.988484 0.119408
C37   C     C_R   0.877243 0.450751 0.453629 -0.103536
C38   C     C_R   0.886582 0.549258 0.367430 -0.117120
C39   C     C_R   0.886447 0.450812 0.367352 -0.117121
C40   C     C_R   0.877486 0.549336 0.453781 -0.103606
C41   C     C_R   0.377307 0.950730 0.453675 -0.103566
C42   C     C_R   0.386606 0.049238 0.367481 -0.117197
C43   C     C_R   0.386497 0.950798 0.367391 -0.117149
C44   C     C_R   0.377429 0.049307 0.453769 -0.103716
C45   C     C_R   0.904819 0.500026 0.334852 0.176647
C46   C     C_R   0.885033 0.500036 0.506752 0.202082
C47   C     C_R   0.404854 0.000015 0.334893 0.176693
C48   C     C_R   0.385016 0.000015 0.506754 0.202110
C49   C     C_R   0.946968 0.347624 0.092212 -0.020403
C50   C     C_R   0.094925 0.623030 0.904744 -0.092785
C51   C     C_R   0.094928 0.376972 0.904747 -0.092804
C52   C     C_R   0.946966 0.652376 0.092209 -0.020789
C53   C     C_R   0.446968 0.847623 0.092211 -0.020454
C54   C     C_R   0.594924 0.123028 0.904743 -0.092831
C55   C     C_R   0.594928 0.876972 0.904746 -0.092796
C56   C     C_R   0.446971 0.152378 0.092207 -0.020445
C57   C     C_R   0.984490 0.545755 0.253851 0.711048
C58   C     C_R   0.942286 0.454543 0.691375 0.652065
C59   C     C_R   0.942269 0.545476 0.691388 0.651786
C60   C     C_R   0.984450 0.454257 0.253820 0.711138
C61   C     C_R   0.484491 0.045753 0.253854 0.711091
C62   C     C_R   0.442266 0.954537 0.691374 0.651986
C63   C     C_R   0.442259 0.045469 0.691379 0.651853
C64   C     C_R   0.484480 0.954255 0.253851 0.711126
C65   C     C_R   0.730798 0.454775 0.752818 0.456541
C66   C     C_R   0.251123 0.544978 0.309101 0.485063
C67   C     C_R   0.251124 0.455021 0.309102 0.485060
C68   C     C_R   0.730798 0.545225 0.752819 0.456605
C69   C     C_R   0.230799 0.954775 0.752820 0.456579
C70   C     C_R   0.751124 0.044978 0.309101 0.485057
C71   C     C_R   0.751124 0.955021 0.309102 0.485061
C72   C     C_R   0.230798 0.045225 0.752819 0.456605
C73   C     C_R   0.889586 0.684995 0.999806 -0.162903
C74   C     C_R   0.183159 0.359565 0.995653 -0.133997
C75   C     C_R   0.183155 0.640437 0.995650 -0.133979
C76   C     C_R   0.889587 0.315006 0.999810 -0.162996
C77   C     C_R   0.389590 0.184997 0.999804 -0.163014
C78   C     C_R   0.683159 0.859566 0.995651 -0.133995
C79   C     C_R   0.683154 0.140434 0.995647 -0.134005
C80   C     C_R   0.389588 0.815004 0.999808 -0.162982
C81   C     C_R   0.953157 0.500011 0.280216 -0.355756
C82   C     C_R   0.920775 0.500016 0.624360 -0.306266
C83   C     C_R   0.453186 0.000007 0.280251 -0.355782
C84   C     C_R   0.420750 0.000006 0.624354 -0.306241
C85   C     C_R   0.675129 0.500000 0.733303 -0.031857
C86   C     C_R   0.298104 0.500000 0.371224 0.011500
C87   C     C_R   0.175130 0.000000 0.733305 -0.031861
C88   C     C_R   0.798105 0.999999 0.371223 0.011490
C89   C     C_3   0.497384 0.455048 0.626282 0.314443
C90   C     C_3   0.466155 0.544919 0.505610 0.296918
C91   C     C_3   0.466159 0.455082 0.505610 0.296928
C92   C     C_3   0.497381 0.544952 0.626282 0.314425
C93   C     C_3   0.997384 0.955048 0.626284 0.314441
C94   C     C_3   0.966157 0.044918 0.505609 0.296922
C95   C     C_3   0.966159 0.955081 0.505613 0.296929
C96   C     C_3   0.997381 0.044952 0.626281 0.314431
C97   C     C_3   0.422926 0.499999 0.595417 0.719287
C98   C     C_3   0.538321 0.500001 0.534451 0.650567
C99   C     C_3   0.922926 0.000000 0.595416 0.719273
C100  C     C_3   0.038322 0.999999 0.534453 0.650552
H1    H     H_    0.992884 0.332949 0.176744 0.219261
H2    H     H_    0.067440 0.625550 0.818390 0.181302
H3    H     H_    0.067449 0.374452 0.818396 0.181452
H4    H     H_    0.992876 0.667048 0.176741 0.219308
H5    H     H_    0.492885 0.832948 0.176743 0.219258
H6    H     H_    0.567440 0.125551 0.818389 0.181345
H7    H     H_    0.567446 0.874453 0.818393 0.181390
H8    H     H_    0.492894 0.167055 0.176737 0.219270
H9    H     H_    0.726780 0.274794 0.822884 0.198570
H10   H     H_    0.376000 0.654817 0.152888 0.190580
H11   H     H_    0.376005 0.345185 0.152880 0.190572
H12   H     H_    0.726822 0.725246 0.822842 0.198584
H13   H     H_    0.226839 0.774744 0.822832 0.198591
H14   H     H_    0.876004 0.154796 0.152834 0.190544
H15   H     H_    0.876005 0.845188 0.152874 0.190573
H16   H     H_    0.226832 0.225253 0.822838 0.198590
H17   H     H_    0.139075 0.700339 0.819413 0.167557
H18   H     H_    0.965530 0.233932 0.158535 0.163845
H19   H     H_    0.965528 0.766051 0.158570 0.163856
H20   H     H_    0.139069 0.299658 0.819423 0.167597
H21   H     H_    0.639013 0.200388 0.819464 0.167594
H22   H     H_    0.465520 0.733953 0.158586 0.163849
H23   H     H_    0.465529 0.266051 0.158574 0.163842
H24   H     H_    0.639061 0.799653 0.819424 0.167586
H25   H     H_    0.873292 0.411513 0.483462 0.230043
H26   H     H_    0.886567 0.588285 0.333913 0.221600
H27   H     H_    0.886372 0.411785 0.333807 0.221587
H28   H     H_    0.873838 0.588593 0.483787 0.229908
H29   H     H_    0.373448 0.911490 0.483556 0.229991
H30   H     H_    0.386654 0.088268 0.334041 0.221689
H31   H     H_    0.386450 0.911774 0.333862 0.221601
H32   H     H_    0.373701 0.088551 0.483740 0.229979
N1    N     N_R   0.892620 0.603790 0.941800 -0.117258
N2    N     N_R   0.107380 0.396210 0.058200 -0.097143
N3    N     N_R   0.107380 0.603790 0.058200 -0.097128
N4    N     N_R   0.892620 0.396210 0.941800 -0.117268
N5    N     N_R   0.392620 0.103790 0.941800 -0.117259
N6    N     N_R   0.607380 0.896210 0.058200 -0.097141
N7    N     N_R   0.607380 0.103790 0.058200 -0.097144
N8    N     N_R   0.392620 0.896210 0.941800 -0.117257
N9    N     N_R   0.952210 0.397600 0.057910 -0.093993
N10   N     N_R   0.047790 0.602400 0.942090 -0.058188
N11   N     N_R   0.047790 0.397600 0.942090 -0.058205
N12   N     N_R   0.952210 0.602400 0.057910 -0.094005
N13   N     N_R   0.452210 0.897600 0.057910 -0.093982
N14   N     N_R   0.547790 0.102400 0.942090 -0.058191
N15   N     N_R   0.547790 0.897600 0.942090 -0.058198
N16   N     N_R   0.452210 0.102400 0.057910 -0.093980
N17   N     N_R   0.026300 0.529110 0.206760 -0.147761
N18   N     N_R   0.973700 0.470890 0.793240 -0.156514
N19   N     N_R   0.973700 0.529110 0.793240 -0.156509
N20   N     N_R   0.026300 0.470890 0.206760 -0.147781
N21   N     N_R   0.526300 0.029110 0.206760 -0.147778
N22   N     N_R   0.473700 0.970890 0.793240 -0.156519
N23   N     N_R   0.473700 0.029110 0.793240 -0.156505
N24   N     N_R   0.526300 0.970890 0.206760 -0.147788
N25   N     N_R   0.818530 0.472270 0.792960 -0.126032
N26   N     N_R   0.181470 0.527730 0.207040 -0.162921
N27   N     N_R   0.181470 0.472270 0.207040 -0.162925
N28   N     N_R   0.818530 0.527730 0.792960 -0.125987
N29   N     N_R   0.318530 0.972270 0.792960 -0.126018
N30   N     N_R   0.681470 0.027730 0.207040 -0.162922
N31   N     N_R   0.681470 0.972270 0.207040 -0.162922
N32   N     N_R   0.318530 0.027730 0.792960 -0.125999
Ni1   Ni    Ni4+2 0.934150 0.565840 0.869060 0.326941
Ni2   Ni    Ni4+2 0.065850 0.434160 0.130940 0.286213
Ni3   Ni    Ni4+2 0.065850 0.565840 0.130940 0.286247
Ni4   Ni    Ni4+2 0.934150 0.434160 0.869060 0.326887
Ni5   Ni    Ni4+2 0.434150 0.065840 0.869060 0.326932
Ni6   Ni    Ni4+2 0.565850 0.934160 0.130940 0.286223
Ni7   Ni    Ni4+2 0.565850 0.065840 0.130940 0.286228
Ni8   Ni    Ni4+2 0.434150 0.934160 0.869060 0.326915
Cl1   Cl    Cl    0.862159 0.684268 0.799833 -0.469390
Cl2   Cl    Cl    0.256935 0.332052 0.214006 -0.501818
Cl3   Cl    Cl    0.256926 0.667950 0.214001 -0.501807
Cl4   Cl    Cl    0.862152 0.315729 0.799835 -0.469432
Cl5   Cl    Cl    0.362161 0.184266 0.799831 -0.469433
Cl6   Cl    Cl    0.756939 0.832054 0.214007 -0.501835
Cl7   Cl    Cl    0.756942 0.167943 0.214002 -0.501797
Cl8   Cl    Cl    0.362168 0.815733 0.799839 -0.469467
F1    F     F_    0.982714 0.598375 0.280034 -0.689010
F2    F     F_    0.909048 0.403194 0.655110 -0.641433
F3    F     F_    0.908912 0.596812 0.655137 -0.641227
F4    F     F_    0.982504 0.401625 0.279847 -0.689052
F5    F     F_    0.482601 0.098388 0.279902 -0.689097
F6    F     F_    0.408985 0.903195 0.655113 -0.641350
F7    F     F_    0.408928 0.096806 0.655121 -0.641292
F8    F     F_    0.482558 0.901622 0.279890 -0.689051
Cl9   Cl    Cl    0.685766 0.391104 0.688475 -0.443469
Cl10  Cl    Cl    0.235067 0.600402 0.371935 -0.410774
Cl11  Cl    Cl    0.235071 0.399598 0.371937 -0.410897
Cl12  Cl    Cl    0.685764 0.608898 0.688483 -0.443387
Cl13  Cl    Cl    0.185767 0.891102 0.688484 -0.443438
Cl14  Cl    Cl    0.735070 0.100403 0.371934 -0.410874
Cl15  Cl    Cl    0.735071 0.899598 0.371937 -0.410892
Cl16  Cl    Cl    0.185764 0.108898 0.688484 -0.443393
F9    F     F_    0.360649 0.499998 0.624606 -0.556477
F10   F     F_    0.597550 0.500003 0.500703 -0.574779
F11   F     F_    0.860647 0.000000 0.624604 -0.556485
F12   F     F_    0.097552 0.999999 0.500706 -0.574773
Cl17  Cl    Cl    0.509611 0.397508 0.707434 -0.384488
Cl18  Cl    Cl    0.457009 0.603946 0.429590 -0.359000
Cl19  Cl    Cl    0.457015 0.396057 0.429590 -0.359023
Cl20  Cl    Cl    0.509603 0.602490 0.707432 -0.384468
Cl21  Cl    Cl    0.009609 0.897509 0.707437 -0.384454
Cl22  Cl    Cl    0.957014 0.103943 0.429589 -0.358966
Cl23  Cl    Cl    0.957017 0.896055 0.429595 -0.359005
Cl24  Cl    Cl    0.009602 0.102491 0.707428 -0.384437

loop_
_geom_bond_atom_site_label_1
_geom_bond_atom_site_label_2
_ccdc_geom_bond_type
C16   C28   A    
C89   Cl17  S    
N7    N14   A    
C6    N6    A    
N6    Ni6   S    
C11   C88   S    
C41   C43   A    
C62   N22   A    
N5    N16   A    
C94   C100  S    
N17   Ni3   S    
C59   C82   A    
C70   C88   A    
C18   H14   S    
C57   F1    S    
C17   H13   S    
C15   C32   A    
C10   C85   S    
C16   C31   A    
C40   C46   A    
C1    Cl1   S    
N9    Ni2   S    
C2    N2    A    
C71   N31   A    
C38   C40   A    
C69   N29   A    
N30   N31   A    
N1    Ni1   S    
C19   C36   A    
C58   C82   A    
C32   C74   S    
C67   Cl11  S    
C31   C73   S    
C68   Cl12  S    
C51   H3    S    
C40   H28   S    
C96   C99   S    
N16   Ni7   S    
C11   C99   S    
C60   N20   A    
C10   C98   S    
N31   Ni6   S    
N23   Ni5   S    
C56   H8    S    
C38   C45   A    
C13   H9    S    
C34   C80   S    
N2    N11   A    
C46   C82   S    
C20   C35   A    
C15   C27   A    
C26   C34   A    
N3    N10   A    
C69   Cl13  S    
N30   Ni7   S    
C20   C24   A    
C10   C89   S    
N1    N12   A    
C57   N17   A    
C92   C97   S    
C21   H17   S    
N2    Ni2   S    
N7    Ni7   S    
C47   C83   S    
C89   C91   S    
C96   Cl24  S    
C3    C75   A    
C93   C99   S    
N5    Ni5   S    
C92   Cl20  S    
C39   C45   A    
C10   C92   S    
C93   C95   S    
C55   H7    S    
C6    Cl6   S    
C68   C85   A    
N29   Ni8   S    
C9    C91   S    
N32   Ni5   S    
C42   C44   A    
C1    N1    A    
C70   N30   A    
N25   Ni4   S    
C53   N13   A    
C38   H26   S    
N26   Ni3   S    
C37   H25   S    
C95   Cl23  S    
C90   C92   S    
C24   H20   S    
C39   H27   S    
C98   F10   S    
N12   Ni3   S    
C7    Cl7   S    
C15   H11   S    
C13   C30   A    
C53   C80   A    
C89   C97   S    
C65   N25   A    
C52   C73   A    
C61   C83   A    
N17   N20   A    
C20   H16   S    
C55   C78   A    
C27   H23   S    
C95   C100  S    
C33   C79   S    
N4    Ni4   S    
C27   C35   A    
N19   Ni1   S    
C21   C29   A    
C35   C77   S    
C17   C21   A    
C56   C77   A    
C48   C84   S    
C51   C74   A    
C49   N9    A    
N21   N24   A    
C23   C31   A    
C56   N16   A    
C19   C23   A    
C24   C32   A    
C64   C83   A    
C72   Cl16  S    
N4    N9    A    
C97   F9    S    
C9    C86   S    
C41   H29   S    
C30   C76   S    
C60   C81   A    
C8    Cl8   S    
C93   Cl21  S    
C71   Cl15  S    
C19   H15   S    
N6    N15   A    
C70   Cl14  S    
N18   Ni4   S    
N21   Ni7   S    
C61   F5    S    
C58   F2    S    
C72   N32   A    
C49   C76   A    
N22   Ni8   S    
C42   H30   S    
C52   N12   A    
N28   Ni1   S    
C14   C26   A    
C54   H6    S    
C94   C96   S    
C72   C87   A    
C5    Cl5   S    
N22   N23   A    
C64   F8    S    
C55   N15   A    
C100  F12   S    
C11   C94   S    
C3    Cl3   S    
C65   Cl9   S    
C50   H2    S    
N25   N28   A    
C63   F7    S    
C4    Cl4   S    
N26   N27   A    
C4    C76   A    
C57   C81   A    
C12   C93   S    
N14   Ni5   S    
C17   C34   A    
C14   C29   A    
C5    C77   A    
C66   N26   A    
N29   N32   A    
N15   Ni8   S    
C16   H12   S    
C7    C79   A    
C54   C79   A    
C11   C95   S    
C14   H10   S    
C62   C84   A    
N13   Ni6   S    
C52   H4    S    
C67   C86   A    
C9    C97   S    
C22   C30   A    
C12   C87   S    
C18   C22   A    
C45   C81   S    
C53   H5    S    
C43   C47   A    
C13   C25   A    
C69   C87   A    
C9    C90   S    
C66   C86   A    
N20   Ni2   S    
C28   H24   S    
C65   C85   A    
C29   C75   S    
C59   N19   A    
C94   Cl22  S    
C44   H32   S    
C64   N24   A    
N8    N13   A    
N18   N19   A    
N27   Ni2   S    
C62   F6    S    
C54   N14   A    
C8    N8    A    
C1    C73   A    
C43   H31   S    
C63   N23   A    
C5    N5    A    
C37   C39   A    
C44   C48   A    
C36   C78   S    
C50   C75   A    
C2    Cl2   S    
N10   Ni1   S    
C7    N7    A    
C25   H21   S    
C66   Cl10  S    
N24   Ni6   S    
C41   C48   A    
C61   N21   A    
C3    N3    A    
C42   C47   A    
C51   N11   A    
C91   C98   S    
C18   C33   A    
N11   Ni4   S    
C12   C100  S    
C6    C78   A    
C71   C88   A    
C50   N10   A    
C4    N4    A    
C28   C36   A    
N8    Ni8   S    
C60   F4    S    
C22   H18   S    
C99   F11   S    
C8    C80   A    
N3    Ni3   S    
C59   F3    S    
C12   C96   S    
C23   H19   S    
C67   N27   A    
C26   H22   S    
C2    C74   A    
C37   C46   A    
C68   N28   A    
C63   C84   A    
C90   C98   S    
C91   Cl19  S    
C58   N18   A    
C49   H1    S    
C25   C33   A    
C90   Cl18  S    
