data_mof_unit_65783.cif
_audit_creation_date              2012-12-10T16:55:13-0500
_audit_creation_method            fapswitch 2.2
_symmetry_space_group_name_H-M    P1
_symmetry_Int_Tables_number       1
_space_group_crystal_system       triclinic
_cell_length_a                    18.5195
_cell_length_b                    18.51728
_cell_length_c                    51.351672
_cell_angle_alpha                 90.000957
_cell_angle_beta                  90.001183
_cell_angle_gamma                 89.998035
_cell_volume                      17610.0682471

loop_
_atom_site_label
_atom_site_type_symbol
_atom_type_description
_atom_site_fract_x
_atom_site_fract_y
_atom_site_fract_z
_atom_type_partial_charge
C1    C     C_R   0.000000 0.500001 0.070832 0.597072
C2    C     C_R   0.098244 0.586576 0.264218 -0.104161
C3    C     C_R   0.861313 0.638783 0.500192 0.547396
C4    C     C_2   0.696512 0.247819 0.982797 0.194615
C5    C     C_2   0.744590 0.689085 0.986454 0.198119
C6    C     C_2   0.310723 0.744738 0.986347 0.197983
C7    C     C_2   0.255167 0.310635 0.986293 0.197826
C8    C     C_2   0.302773 0.246998 0.982510 0.195901
C9    C     C_2   0.247112 0.697111 0.982552 0.197705
C10   C     C_2   0.696913 0.752650 0.982630 0.197200
C11   C     C_2   0.744305 0.311271 0.986662 0.197642
C12   C     C_2   0.196513 0.747817 0.482797 0.194631
C13   C     C_R   0.413161 0.098032 0.264216 -0.104195
C14   C     C_2   0.244669 0.189175 0.486402 0.197896
C15   C     C_2   0.803485 0.252181 0.482797 0.194629
C16   C     C_2   0.755330 0.810824 0.486402 0.197897
C17   C     C_2   0.802980 0.747234 0.482590 0.195377
C18   C     C_2   0.755692 0.188729 0.486662 0.197671
C19   C     C_2   0.197019 0.252765 0.482590 0.195377
C20   C     C_2   0.244306 0.811270 0.486661 0.197669
C21   C     C_2   0.690368 0.197910 0.001737 -0.043425
C22   C     C_2   0.809024 0.697304 0.998243 -0.042691
C23   C     C_2   0.302648 0.809075 0.998224 -0.042399
C24   C     C_R   0.901756 0.413425 0.264215 -0.104156
C25   C     C_2   0.190900 0.302620 0.998218 -0.042469
C26   C     C_2   0.309512 0.197775 0.001651 -0.044103
C27   C     C_2   0.197786 0.690477 0.001663 -0.042902
C28   C     C_2   0.690435 0.802169 0.001685 -0.042426
C29   C     C_2   0.808950 0.302785 0.998270 -0.044064
C30   C     C_2   0.190369 0.697910 0.501737 -0.043394
C31   C     C_2   0.309049 0.197328 0.498235 -0.042725
C32   C     C_2   0.809633 0.302089 0.501737 -0.043391
C33   C     C_2   0.690951 0.802672 0.498235 -0.042723
C34   C     C_2   0.809547 0.697812 0.501674 -0.043664
C35   C     C_R   0.043661 0.451125 0.777860 0.012905
C36   C     C_2   0.691049 0.197216 0.498271 -0.044073
C37   C     C_2   0.190453 0.302187 0.501674 -0.043666
C38   C     C_2   0.308951 0.802784 0.498270 -0.044070
C39   C     C_R   0.457695 0.048767 0.195230 0.421611
C40   C     C_R   0.951153 0.457808 0.195230 0.421669
C41   C     C_R   0.542335 0.951283 0.195230 0.421668
C42   C     C_R   0.048847 0.542197 0.195232 0.421596
C43   C     C_R   0.957799 0.548947 0.695228 0.421637
C44   C     C_R   0.451177 0.957805 0.695231 0.421629
C45   C     C_R   0.042334 0.451371 0.695232 0.421636
C46   C     C_R   0.549209 0.043458 0.777858 0.012760
C47   C     C_R   0.548866 0.042201 0.695231 0.421626
C48   C     C_R   0.543975 0.949951 0.222713 0.024924
C49   C     C_R   0.050187 0.543827 0.222714 0.024952
C50   C     C_R   0.456053 0.050097 0.222713 0.024967
C51   C     C_R   0.949813 0.456176 0.222713 0.024914
C52   C     C_R   0.043996 0.450068 0.722715 0.024951
C53   C     C_R   0.550209 0.043831 0.722713 0.024924
C54   C     C_R   0.956189 0.550313 0.722711 0.024948
C55   C     C_R   0.449842 0.956173 0.722714 0.024930
C56   C     C_R   0.500013 0.000023 0.236427 -0.061104
C57   C     C_R   0.956597 0.549352 0.777856 0.012896
C58   C     C_R   0.000000 0.500001 0.236428 -0.061081
C59   C     C_R   0.000104 0.500204 0.736427 -0.061107
C60   C     C_R   0.500028 0.000002 0.736428 -0.061091
C61   C     C_R   0.587574 0.900803 0.237072 0.049452
C62   C     C_R   0.099452 0.587289 0.237074 0.049465
C63   C     C_R   0.412453 0.099244 0.237071 0.049449
C64   C     C_R   0.900548 0.412713 0.237070 0.049464
C65   C     C_R   0.087553 0.400885 0.737075 0.049438
C66   C     C_R   0.599474 0.087297 0.737072 0.049464
C67   C     C_R   0.912664 0.599531 0.737067 0.049437
C68   C     C_R   0.450857 0.956544 0.777858 0.012936
C69   C     C_R   0.400582 0.912706 0.737072 0.049427
C70   C     C_R   0.543600 0.950959 0.277858 0.012923
C71   C     C_R   0.049179 0.543453 0.277859 0.012814
C72   C     C_R   0.456417 0.049079 0.277858 0.012922
C73   C     C_R   0.500001 0.000002 0.070831 0.595108
C74   C     C_R   0.950821 0.456547 0.277858 0.012817
C75   C     C_R   0.000122 0.500228 0.764024 -0.037190
C76   C     C_R   0.500031 0.000001 0.764024 -0.037185
C77   C     C_R   0.500010 0.000021 0.264024 -0.037179
C78   C     C_R   0.000000 0.500000 0.264024 -0.037175
C79   C     C_R   0.042980 0.452179 0.805216 0.401156
C80   C     C_R   0.548167 0.042776 0.805215 0.401271
C81   C     C_R   0.957282 0.548316 0.805213 0.401079
C82   C     C_R   0.451904 0.957228 0.805215 0.401027
C83   C     C_R   0.542914 0.952001 0.305215 0.401114
C84   C     C_R   0.500000 0.000001 0.570832 0.598085
C85   C     C_R   0.048135 0.542769 0.305215 0.401176
C86   C     C_R   0.457095 0.048031 0.305214 0.401107
C87   C     C_R   0.951865 0.457228 0.305214 0.401175
C88   C     C_R   0.046564 0.547410 0.860044 0.269910
C89   C     C_R   0.452913 0.046624 0.860022 0.270428
C90   C     C_R   0.953565 0.452953 0.860004 0.271559
C91   C     C_R   0.547148 0.953392 0.860025 0.270137
C92   C     C_R   0.546404 0.047332 0.360027 0.271414
C93   C     C_R   0.952889 0.546621 0.360023 0.270509
C94   C     C_R   0.453595 0.952689 0.360023 0.271415
C95   C     C_R   0.000001 0.500005 0.570831 0.594092
C96   C     C_R   0.047109 0.453375 0.360023 0.270509
C97   C     C_R   0.045909 0.547336 0.887320 0.061086
C98   C     C_R   0.452916 0.045998 0.887297 0.061198
C99   C     C_R   0.954165 0.452906 0.887279 0.060055
C100  C     C_R   0.547125 0.954014 0.887300 0.061981
C101  C     C_R   0.545772 0.047315 0.387302 0.060418
C102  C     C_R   0.952902 0.545998 0.387298 0.062463
C103  C     C_R   0.454225 0.952700 0.387299 0.060416
C104  C     C_R   0.047096 0.453998 0.387299 0.062463
C105  C     C_R   0.000020 0.500090 0.901119 -0.072870
C106  C     C_R   0.086858 0.402117 0.764219 -0.104223
C107  C     C_R   0.500013 0.000002 0.901118 -0.073598
C108  C     C_R   0.499999 0.000005 0.401119 -0.071299
C109  C     C_R   0.999999 0.499998 0.401118 -0.072741
C110  C     C_R   0.000080 0.500209 0.846243 0.181651
C111  C     C_R   0.500034 0.000008 0.846243 0.181749
C112  C     C_R   0.500000 0.000012 0.346243 0.181568
C113  C     C_R   1.000000 0.499998 0.346243 0.181762
C114  C     C_R   0.552252 0.040131 0.140805 0.055508
C115  C     C_R   0.959967 0.552311 0.140809 0.055427
C116  C     C_R   0.447765 0.959905 0.140808 0.055326
C117  C     C_R   0.598269 0.086584 0.764216 -0.104181
C118  C     C_R   0.040035 0.447694 0.140809 0.055480
C119  C     C_R   0.052285 0.540189 0.640798 0.055415
C120  C     C_R   0.459976 0.052310 0.640809 0.055501
C121  C     C_R   0.947765 0.460007 0.640816 0.055420
C122  C     C_R   0.540050 0.947697 0.640808 0.055501
C123  C     C_R   0.552624 0.040231 0.113264 0.178983
C124  C     C_R   0.959855 0.552683 0.113267 0.179475
C125  C     C_R   0.447385 0.959794 0.113266 0.179292
C126  C     C_R   0.040147 0.447321 0.113267 0.179141
C127  C     C_R   0.052646 0.540263 0.613256 0.179117
C128  C     C_R   0.913393 0.598346 0.764212 -0.104218
C129  C     C_R   0.459860 0.052681 0.613268 0.179444
C130  C     C_R   0.947379 0.459862 0.613274 0.179107
C131  C     C_R   0.540156 0.947323 0.613267 0.179443
C132  C     C_R   0.000003 0.500016 0.929851 0.502182
C133  C     C_R   0.500003 0.000000 0.929850 0.506190
C134  C     C_R   0.499999 0.000001 0.429851 0.500854
C135  C     C_R   1.000000 0.499999 0.429850 0.508827
C136  C     C_R   0.500004 0.000008 0.099642 0.083718
C137  C     C_R   0.000001 0.500002 0.099644 0.083467
C138  C     C_R   0.000008 0.500042 0.599642 0.083916
C139  C     C_R   0.401794 0.913418 0.764217 -0.104225
C140  C     C_R   0.500005 0.000002 0.599644 0.083465
C141  C     C_R   0.500011 0.000021 0.154345 0.175287
C142  C     C_R   0.000001 0.500003 0.154347 0.175322
C143  C     C_R   0.000032 0.500114 0.654345 0.175272
C144  C     C_R   0.500015 0.000004 0.654347 0.175328
C145  C     C_R   0.861128 0.638630 0.000230 0.553933
C146  C     C_R   0.361359 0.861136 0.000224 0.551460
C147  C     C_R   0.138857 0.361351 0.000223 0.550202
C148  C     C_R   0.638662 0.138819 0.000208 0.551171
C149  C     C_R   0.138776 0.638693 0.000191 0.548367
C150  C     C_R   0.586859 0.902010 0.264216 -0.104193
C151  C     C_R   0.638683 0.861211 0.000194 0.549636
C152  C     C_R   0.861126 0.361382 0.000234 0.548882
C153  C     C_R   0.361306 0.138772 0.000187 0.546217
C154  C     C_R   0.361133 0.138636 0.500228 0.552755
C155  C     C_R   0.861338 0.361181 0.500208 0.551208
C156  C     C_R   0.638867 0.861364 0.500228 0.552746
C157  C     C_R   0.138662 0.638819 0.500208 0.551213
C158  C     C_R   0.638873 0.138618 0.500234 0.548784
C159  C     C_R   0.138687 0.361217 0.500191 0.547402
C160  C     C_R   0.361126 0.861382 0.500234 0.548786
Cl1   Cl    Cl    0.645149 0.835841 0.222837 0.023117
Cl2   Cl    Cl    0.390403 0.102007 0.903742 0.066977
Cl3   Cl    Cl    0.898323 0.390217 0.903704 0.046590
Cl4   Cl    Cl    0.609633 0.898010 0.903751 0.068709
Cl5   Cl    Cl    0.601477 0.110066 0.403758 0.046650
Cl6   Cl    Cl    0.890400 0.602014 0.403746 0.069372
Cl7   Cl    Cl    0.398518 0.889945 0.403751 0.046651
Cl8   Cl    Cl    0.109598 0.397982 0.403747 0.069370
Cl9   Cl    Cl    0.615926 0.090286 0.159052 -0.017064
Cl10  Cl    Cl    0.909926 0.616075 0.159057 -0.016697
Cl11  Cl    Cl    0.384097 0.909756 0.159058 -0.016933
Cl12  Cl    Cl    0.164571 0.644682 0.222840 0.023066
Cl13  Cl    Cl    0.090077 0.383932 0.159058 -0.017016
Cl14  Cl    Cl    0.115992 0.590329 0.659035 -0.017123
Cl15  Cl    Cl    0.409935 0.116070 0.659059 -0.016810
Cl16  Cl    Cl    0.884075 0.409913 0.659075 -0.017091
Cl17  Cl    Cl    0.590098 0.883937 0.659056 -0.016806
Cl18  Cl    Cl    0.354882 0.164211 0.222836 0.022929
Cl19  Cl    Cl    0.835429 0.355321 0.222835 0.023153
Cl20  Cl    Cl    0.145045 0.335845 0.722843 0.022952
Cl21  Cl    Cl    0.664587 0.144694 0.722837 0.023115
Cl22  Cl    Cl    0.855164 0.664556 0.722830 0.022964
Cl23  Cl    Cl    0.335466 0.855309 0.722838 0.023005
Cl24  Cl    Cl    0.101751 0.609933 0.903798 0.066379
H1    H     H_    0.721540 0.202217 0.019582 0.063674
H2    H     H_    0.325981 0.249619 0.505611 0.056757
H3    H     H_    0.778465 0.297783 0.519582 0.063681
H4    H     H_    0.674019 0.750381 0.505611 0.056758
H5    H     H_    0.778731 0.702512 0.519585 0.061115
H6    H     H_    0.674011 0.249659 0.505473 0.056296
H7    H     H_    0.221271 0.297489 0.519585 0.061113
H8    H     H_    0.325990 0.750342 0.505472 0.056295
H9    H     H_    0.120602 0.364090 0.774671 0.178837
H10   H     H_    0.636355 0.120263 0.774667 0.178932
H11   H     H_    0.879663 0.636391 0.774661 0.178855
H12   H     H_    0.825979 0.749626 0.005583 0.056822
H13   H     H_    0.363711 0.879739 0.774667 0.178830
H14   H     H_    0.620642 0.864014 0.274666 0.178866
H15   H     H_    0.136331 0.620251 0.274669 0.178942
H16   H     H_    0.379377 0.136026 0.274666 0.178865
H17   H     H_    0.863669 0.379748 0.274665 0.178939
H18   H     H_    0.675478 0.276435 0.947205 0.345747
H19   H     H_    0.671683 0.624163 0.972609 0.346311
H20   H     H_    0.375466 0.671918 0.972334 0.345434
H21   H     H_    0.327907 0.375308 0.972188 0.344202
H22   H     H_    0.322697 0.274304 0.946701 0.345403
H23   H     H_    0.250398 0.825995 0.005636 0.057028
H24   H     H_    0.274609 0.676999 0.946776 0.345306
H25   H     H_    0.676511 0.724781 0.946912 0.345167
H26   H     H_    0.671210 0.376527 0.973151 0.345005
H27   H     H_    0.175482 0.776431 0.447204 0.345744
H28   H     H_    0.171816 0.124334 0.472471 0.345044
H29   H     H_    0.824511 0.223564 0.447203 0.345745
H30   H     H_    0.828182 0.875664 0.472472 0.345044
H31   H     H_    0.823215 0.774915 0.446842 0.345241
H32   H     H_    0.828784 0.123473 0.473149 0.344940
H33   H     H_    0.176780 0.225082 0.446841 0.345240
H34   H     H_    0.174018 0.250394 0.005669 0.056918
H35   H     H_    0.171212 0.876524 0.473149 0.344940
H36   H     H_    0.090208 0.588345 0.828554 0.351115
H37   H     H_    0.412155 0.090334 0.828511 0.351071
H38   H     H_    0.909965 0.412168 0.828479 0.350972
H39   H     H_    0.587934 0.909694 0.828518 0.351086
H40   H     H_    0.589967 0.088264 0.328521 0.351019
H41   H     H_    0.912122 0.590329 0.328514 0.351089
H42   H     H_    0.410033 0.911766 0.328515 0.351020
H43   H     H_    0.087877 0.409666 0.328515 0.351087
H44   H     H_    0.636336 0.104875 0.110559 0.344873
H45   H     H_    0.278832 0.202627 0.019587 0.060751
H46   H     H_    0.895306 0.636478 0.110566 0.345172
H47   H     H_    0.363666 0.895158 0.110566 0.345054
H48   H     H_    0.104694 0.363524 0.110567 0.345030
H49   H     H_    0.136366 0.604895 0.610540 0.344837
H50   H     H_    0.395309 0.136476 0.610568 0.345125
H51   H     H_    0.863647 0.395239 0.610587 0.344846
H52   H     H_    0.604706 0.863528 0.610565 0.345126
H53   H     H_    0.202555 0.721242 0.019585 0.060764
H54   H     H_    0.721323 0.797548 0.019584 0.061155
H55   H     H_    0.825990 0.250342 0.005472 0.056286
H56   H     H_    0.221540 0.702218 0.519582 0.063680
N1    N     N_R   0.500015 0.000025 0.182367 -0.389886
N2    N     N_R   0.000000 0.500003 0.182369 -0.389918
N3    N     N_R   0.000053 0.500143 0.682367 -0.389875
N4    N     N_R   0.500020 0.000004 0.682369 -0.389936
N5    N     N_R   0.000125 0.500246 0.818245 -0.424679
N6    N     N_R   0.500036 0.000003 0.818245 -0.424677
N7    N     N_R   0.500003 0.000015 0.318246 -0.424775
N8    N     N_R   1.000000 0.499998 0.318246 -0.424770
O1    O     O_3   1.000000 0.500000 0.000300 -0.492596
O2    O     O_R   0.060090 0.500000 0.558350 -0.495570
O3    O     O_3   0.579923 0.898010 0.598944 -0.666159
O4    O     O_R   0.500000 0.060090 0.558350 -0.492679
O5    O     O_R   0.939910 0.500000 0.558350 -0.495579
O6    O     O_R   0.939640 0.500000 0.942260 -0.528449
O7    O     O_R   0.500000 0.939640 0.942260 -0.523695
O8    O     O_R   0.060360 0.500000 0.942260 -0.522650
O9    O     O_R   0.500000 0.060360 0.942260 -0.515379
O10   O     O_R   0.439640 1.000000 0.442260 -0.528319
O11   O     O_R   1.000000 0.439640 0.442260 -0.516291
O12   O     O_R   0.560360 1.000000 0.442260 -0.528312
O13   O     O_3   0.500000 0.000000 0.000300 -0.492487
O14   O     O_R   1.000000 0.560360 0.442260 -0.516286
O15   O     O_R   0.915140 0.644610 0.015520 -0.543212
O16   O     O_R   0.355390 0.915140 0.015520 -0.542872
O17   O     O_R   0.084860 0.355390 0.015520 -0.544476
O18   O     O_R   0.644610 0.084860 0.015520 -0.543293
O19   O     O_R   0.084860 0.644610 0.015520 -0.555246
O20   O     O_R   0.644610 0.915140 0.015520 -0.553634
O21   O     O_R   0.915140 0.355390 0.015520 -0.554607
O22   O     O_R   0.355390 0.084860 0.015520 -0.554634
O23   O     O_R   0.415140 0.144610 0.515520 -0.544555
O24   O     O_3   0.500000 0.000000 0.500300 -0.492691
O25   O     O_R   0.855390 0.415140 0.515520 -0.543052
O26   O     O_R   0.584860 0.855390 0.515520 -0.544554
O27   O     O_R   0.144610 0.584860 0.515520 -0.543039
O28   O     O_R   0.584860 0.144610 0.515520 -0.554869
O29   O     O_R   0.144610 0.415140 0.515520 -0.553280
O30   O     O_R   0.415140 0.855390 0.515520 -0.554867
O31   O     O_R   0.855390 0.584860 0.515520 -0.553279
O32   O     O_R   0.144340 0.415480 0.985090 -0.467261
O33   O     O_R   0.584520 0.144340 0.985090 -0.467398
O34   O     O_R   0.855660 0.584520 0.985090 -0.461249
O35   O     O_3   0.000000 0.500000 0.500300 -0.492479
O36   O     O_R   0.415480 0.855660 0.985090 -0.467369
O37   O     O_R   0.855660 0.415480 0.985090 -0.461651
O38   O     O_R   0.415480 0.144340 0.985090 -0.468741
O39   O     O_R   0.144340 0.584520 0.985090 -0.461683
O40   O     O_R   0.584520 0.855660 0.985090 -0.461500
O41   O     O_R   0.644340 0.915480 0.485090 -0.461369
O42   O     O_R   0.084520 0.644340 0.485090 -0.467585
O43   O     O_R   0.355660 0.084520 0.485090 -0.461371
O44   O     O_R   0.915480 0.355660 0.485090 -0.467590
O45   O     O_R   0.355660 0.915480 0.485090 -0.461524
O46   O     O_R   0.000000 0.439910 0.058350 -0.492782
O47   O     O_R   0.915480 0.644340 0.485090 -0.468413
O48   O     O_R   0.644340 0.084520 0.485090 -0.461518
O49   O     O_R   0.084520 0.355660 0.485090 -0.468413
O50   O     O_2   0.417700 0.095421 0.181179 -0.459541
O51   O     O_2   0.904407 0.417929 0.181178 -0.459094
O52   O     O_2   0.582331 0.904630 0.181179 -0.459226
O53   O     O_2   0.095594 0.582077 0.181181 -0.459410
O54   O     O_2   0.917837 0.595624 0.681175 -0.459442
O55   O     O_2   0.404432 0.917922 0.681180 -0.459178
O56   O     O_2   0.082268 0.404662 0.681183 -0.459442
O57   O     O_R   0.560090 0.000000 0.058350 -0.495159
O58   O     O_2   0.595607 0.082085 0.681179 -0.459173
O59   O     O_2   0.084680 0.405608 0.818724 -0.458720
O60   O     O_2   0.594805 0.084402 0.818721 -0.457491
O61   O     O_2   0.915583 0.594895 0.818718 -0.458657
O62   O     O_2   0.405268 0.915604 0.818722 -0.458873
O63   O     O_2   0.584670 0.905478 0.318721 -0.458656
O64   O     O_2   0.094775 0.584389 0.318723 -0.457645
O65   O     O_2   0.415336 0.094552 0.318721 -0.458660
O66   O     O_2   0.905225 0.415607 0.318720 -0.457645
O67   O     O_3   0.657646 0.240344 0.959926 -0.647327
O68   O     O_R   1.000000 0.560090 0.058350 -0.493989
O69   O     O_3   0.723251 0.621672 0.977698 -0.637953
O70   O     O_3   0.378028 0.723446 0.977478 -0.645777
O71   O     O_3   0.276413 0.377902 0.977366 -0.646119
O72   O     O_3   0.340916 0.238668 0.959518 -0.650590
O73   O     O_3   0.238908 0.658847 0.959579 -0.648532
O74   O     O_3   0.658467 0.760620 0.959687 -0.648252
O75   O     O_3   0.722882 0.378860 0.978110 -0.638707
O76   O     O_3   0.157649 0.740341 0.459925 -0.647421
O77   O     O_3   0.223359 0.121809 0.477590 -0.638316
O78   O     O_3   0.842347 0.259655 0.459925 -0.647423
O79   O     O_R   0.439910 0.000000 0.058350 -0.494565
O80   O     O_3   0.776640 0.878190 0.477591 -0.638314
O81   O     O_3   0.841318 0.739141 0.459629 -0.650298
O82   O     O_3   0.777113 0.121140 0.478108 -0.638827
O83   O     O_3   0.158678 0.260857 0.459629 -0.650299
O84   O     O_3   0.222884 0.878858 0.478108 -0.638829
O85   O     O_3   0.093139 0.594641 0.847641 -0.644418
O86   O     O_3   0.405821 0.093300 0.847596 -0.644269
O87   O     O_3   0.907020 0.405769 0.847561 -0.643836
O88   O     O_3   0.594249 0.906720 0.847603 -0.644268
O89   O     O_3   0.592874 0.094631 0.347605 -0.643837
O90   O     O_R   0.500000 0.939910 0.558350 -0.492673
O91   O     O_3   0.905799 0.593302 0.347599 -0.644116
O92   O     O_3   0.407126 0.905394 0.347599 -0.643834
O93   O     O_3   0.094199 0.406694 0.347599 -0.644121
O94   O     O_3   0.601877 0.080061 0.098940 -0.668616
O95   O     O_3   0.920088 0.601997 0.098946 -0.665944
O96   O     O_3   0.398127 0.919960 0.098945 -0.666611
O97   O     O_3   0.079914 0.398006 0.098946 -0.666960
O98   O     O_3   0.101907 0.580064 0.598926 -0.668432
O99   O     O_3   0.420088 0.101994 0.598947 -0.666160
O100  O     O_3   0.898102 0.420030 0.598961 -0.668423
Zn1   Zn    Zn3+2 0.913860 0.500000 0.978560 1.019221
Zn2   Zn    Zn3+2 0.414170 0.000000 0.022050 0.979065
Zn3   Zn    Zn3+2 1.000000 0.414170 0.022050 0.981359
Zn4   Zn    Zn3+2 0.585830 0.000000 0.022050 0.981638
Zn5   Zn    Zn3+2 0.500000 0.085830 0.522050 0.983460
Zn6   Zn    Zn3+2 0.914170 0.500000 0.522050 0.979388
Zn7   Zn    Zn3+2 0.500000 0.914170 0.522050 0.983460
Zn8   Zn    Zn3+2 0.085830 0.500000 0.522050 0.979401
Zn9   Zn    Zn3+2 0.500000 0.913860 0.978560 1.020924
Zn10  Zn    Zn3+2 0.086140 0.500000 0.978560 1.016596
Zn11  Zn    Zn3+2 0.500000 0.086140 0.978560 1.018782
Zn12  Zn    Zn3+2 0.413860 0.000000 0.478560 1.017083
Zn13  Zn    Zn3+2 1.000000 0.413860 0.478560 1.020954
Zn14  Zn    Zn3+2 0.586140 0.000000 0.478560 1.017084
Zn15  Zn    Zn3+2 1.000000 0.586140 0.478560 1.020958
Zn16  Zn    Zn3+2 1.000000 0.585830 0.022050 0.983411

loop_
_geom_bond_atom_site_label_1
_geom_bond_atom_site_label_2
_ccdc_geom_bond_type
C69   C139  A    
C13   H16   S    
C30   C157  S    
C8    C26   D    
C70   C150  A    
C147  O17   A    
C57   C128  A    
C33   C156  S    
C5    O69   S    
C15   C32   D    
O79   Zn2   S    
H40   O89   S    
O47   Zn15  S    
C7    O71   S    
H26   O75   S    
C1    O46   A    
O21   Zn3   S    
O42   Zn15  S    
C119  C143  A    
H18   O67   S    
C45   O56   S    
C15   O78   S    
C131  C140  A    
C19   C37   D    
O36   Zn9   S    
C118  Cl13  S    
C120  C144  A    
C85   N8    A    
C91   C100  A    
C45   N3    A    
C156  O26   A    
C88   C97   A    
O68   Zn16  S    
C132  O6    A    
C47   C53   A    
C97   C105  A    
H50   O99   S    
C149  O39   A    
C25   H34   S    
C98   Cl2   S    
C84   O90   A    
O35   Zn8   S    
C124  C137  A    
C160  O30   A    
O29   Zn8   S    
C3    C34   S    
C42   N2    A    
C120  C129  A    
C116  Cl11  S    
C21   C148  S    
C67   Cl22  S    
C43   C54   A    
C3    O31   A    
C13   C63   A    
O35   Zn15  S    
C134  O10   A    
C12   C20   S    
O4    Zn5   S    
C129  O99   S    
C158  O28   A    
C13   C72   A    
C96   C104  A    
C17   C34   D    
C149  O19   A    
C2    C71   A    
C130  C138  A    
C49   C62   A    
C23   H23   S    
O44   Zn13  S    
C14   C19   S    
C51   C64   A    
C30   H56   S    
O27   Zn8   S    
C65   Cl20  S    
H35   O84   S    
C44   O55   S    
C18   O82   S    
C44   C55   A    
C111  N6    S    
C144  N4    S    
C11   O75   S    
C39   O50   S    
O32   Zn10  S    
O57   Zn4   S    
H48   O97   S    
C132  O8    A    
H21   O71   S    
C151  O20   A    
H22   O72   S    
C83   N7    A    
O15   Zn16  S    
C102  C109  A    
H32   O82   S    
C52   C65   A    
C15   C18   S    
C130  O100  S    
O35   Zn6   S    
C103  Cl7   S    
C86   N7    A    
C109  C135  S    
C121  C130  A    
C73   O57   A    
C133  O7    A    
C6    C9    S    
C7    C8    S    
H44   O94   S    
O49   Zn13  S    
C36   H6    S    
C119  Cl14  S    
C47   N4    A    
C41   O52   S    
O24   Zn5   S    
O35   Zn13  S    
C154  O43   A    
H38   O87   S    
C74   C87   A    
O24   Zn14  S    
C88   O85   S    
C6    O70   S    
C19   O83   S    
C102  Cl6   S    
C70   C77   A    
C50   C63   A    
O23   Zn5   S    
C115  Cl10  S    
C95   O2    A    
C53   C60   A    
C131  O3    S    
C85   O64   S    
C54   C59   A    
C43   O54   S    
O13   Zn9   S    
C24   H17   S    
C148  O33   A    
C82   N6    A    
C2    H15   S    
C114  C141  A    
C64   Cl19  S    
O33   Zn11  S    
C45   C52   A    
C142  N2    S    
C50   C56   A    
C41   N1    A    
C126  O97   S    
O18   Zn4   S    
C152  O21   A    
O1    Zn16  S    
O2    Zn8   S    
C92   O89   S    
C55   C69   A    
C69   Cl23  S    
C99   Cl3   S    
C114  C123  A    
C73   O79   A    
C110  N5    S    
C116  C125  A    
C23   C146  S    
C159  O29   A    
C143  N3    S    
O5    Zn6   S    
C122  C131  A    
C31   C154  S    
C146  O36   A    
C44   N4    A    
C86   O65   S    
C95   O5    A    
H41   O91   S    
C32   H3    S    
H33   O83   S    
C157  O42   A    
C96   O93   S    
C127  O98   S    
O45   Zn12  S    
O24   Zn7   S    
C94   O92   S    
H28   O77   S    
C68   C76   A    
C40   C51   A    
C135  O11   A    
C89   O86   S    
C89   C98   A    
C68   C82   A    
C37   C159  S    
C91   O88   S    
C3    O47   A    
C67   C128  A    
C46   C80   A    
C101  C108  A    
C94   C112  A    
C150  H14   S    
C33   H4    S    
C80   N6    A    
H20   O70   S    
C135  O14   A    
C1    O68   A    
C26   C153  S    
C159  O49   A    
H42   O92   S    
C90   O87   S    
C39   N1    A    
C42   O53   S    
C119  C127  A    
C114  Cl9   S    
O13   Zn11  S    
C126  C137  A    
C155  O44   A    
C122  Cl17  S    
C90   C99   A    
C153  O22   A    
C128  H11   S    
C147  O32   A    
C1    C137  S    
O11   Zn13  S    
H24   O73   S    
C20   O84   S    
C63   Cl18  S    
C79   N5    A    
C148  O18   A    
O8    Zn10  S    
H36   O85   S    
C28   H54   S    
O24   Zn12  S    
C16   C17   S    
C100  C107  A    
C66   C117  A    
O46   Zn3   S    
C145  O15   A    
C146  O16   A    
O30   Zn7   S    
C127  C138  A    
O25   Zn6   S    
O17   Zn3   S    
C81   O61   S    
C88   C110  A    
O34   Zn1   S    
C133  O9    A    
C115  C142  A    
C83   O63   S    
C24   C64   A    
C55   C60   A    
H37   O86   S    
C80   O60   S    
C4    O67   S    
C105  C132  S    
C26   H45   S    
C9    O73   S    
H51   O100  S    
H46   O95   S    
C112  N7    S    
O43   Zn12  S    
C152  O37   A    
C92   C112  A    
C43   N3    A    
O12   Zn14  S    
C141  N1    S    
C98   C107  A    
H30   O80   S    
C93   O91   S    
C108  C134  S    
C73   C136  S    
O10   Zn12  S    
O16   Zn2   S    
C100  Cl4   S    
C51   C58   A    
C93   C113  A    
C4    C11   S    
C101  Cl5   S    
C70   C83   A    
C92   C101  A    
C125  C136  A    
C66   Cl21  S    
C94   C103  A    
C96   C113  A    
C35   C79   A    
C154  O23   A    
O7    Zn9   S    
C9    C27   D    
C97   Cl24  S    
O48   Zn14  S    
C123  O94   S    
C10   C28   D    
H27   O76   S    
C115  C124  A    
C12   C30   D    
C40   O51   S    
O41   Zn14  S    
C93   C102  A    
C157  O27   A    
C72   C86   A    
C21   H1    S    
C7    C25   D    
C27   H53   S    
C158  O48   A    
C107  C133  S    
C17   O81   S    
C57   C75   A    
C60   C76   A    
C10   O74   S    
C125  O96   S    
C58   C78   A    
C38   C160  S    
C116  C141  A    
O31   Zn6   S    
C46   C117  A    
H49   O98   S    
C74   C78   A    
C153  O38   A    
O1    Zn1   S    
O40   Zn9   S    
C68   C139  A    
C160  O45   A    
C18   C36   D    
H31   O81   S    
C84   O4    A    
O90   Zn7   S    
C121  C143  A    
C122  C144  A    
C155  O25   A    
C151  O40   A    
C46   C76   A    
O13   Zn2   S    
O6    Zn1   S    
C87   N8    A    
C35   C75   A    
C8    O72   S    
C61   Cl1   S    
H19   O69   S    
C104  C109  A    
C14   O77   S    
C121  Cl16  S    
C91   C111  A    
H39   O88   S    
C117  H10   S    
C120  Cl15  S    
H25   O74   S    
C71   C85   A    
C5    C22   D    
O38   Zn11  S    
O14   Zn15  S    
C103  C108  A    
C56   C77   A    
C61   C150  A    
O9    Zn11  S    
C36   C158  S    
C27   C149  S    
C22   H12   S    
C145  O34   A    
C106  H9    S    
C99   C105  A    
C14   C31   D    
O28   Zn5   S    
O39   Zn10  S    
C81   N5    A    
H29   O78   S    
C25   C147  S    
C54   C67   A    
H47   O96   S    
C49   C58   A    
C72   C77   A    
C52   C59   A    
C16   C33   D    
C104  Cl8   S    
C32   C155  S    
C20   C38   D    
C82   O62   S    
C16   O80   S    
C22   C145  S    
O1    Zn3   S    
C53   C66   A    
C12   O76   S    
C11   C29   D    
C28   C151  S    
C37   H7    S    
C87   O66   S    
C38   H8    S    
C57   C81   A    
O26   Zn7   S    
C90   C110  A    
H52   O3    S    
C59   C75   A    
C65   C106  A    
O13   Zn4   S    
C48   C56   A    
C95   C138  S    
O1    Zn10  S    
C34   H5    S    
C118  C142  A    
C124  O95   S    
C139  H13   S    
H43   O93   S    
C113  N8    S    
C62   Cl12  S    
C89   C111  A    
C123  C136  A    
C5    C10   S    
C35   C106  A    
C29   C152  S    
O37   Zn1   S    
C4    C21   D    
C24   C74   A    
C48   C61   A    
C129  C140  A    
C6    C23   D    
C31   H2    S    
C41   C48   A    
C29   H55   S    
C156  O41   A    
C47   O58   S    
C79   O59   S    
C42   C49   A    
C39   C50   A    
C84   C140  S    
C134  O12   A    
O19   Zn16  S    
O20   Zn4   S    
C118  C126  A    
O22   Zn2   S    
C71   C78   A    
C40   N2    A    
C2    C62   A    
