data_mof_unit_9094.cif
_audit_creation_date              2012-12-10T17:09:52-0500
_audit_creation_method            fapswitch 2.2
_symmetry_space_group_name_H-M    P1
_symmetry_Int_Tables_number       1
_space_group_crystal_system       triclinic
_cell_length_a                    10.766926
_cell_length_b                    12.998408
_cell_length_c                    11.795129
_cell_angle_alpha                 99.622851
_cell_angle_beta                  93.499433
_cell_angle_gamma                 92.784228
_cell_volume                      1621.60036036

loop_
_atom_site_label
_atom_site_type_symbol
_atom_type_description
_atom_site_fract_x
_atom_site_fract_y
_atom_site_fract_z
_atom_type_partial_charge
C1    C     C_R   0.497791 0.299323 0.478734 0.819329
C2    C     C_R   0.075547 0.595618 0.564622 0.051767
C3    C     C_R   0.129551 0.508601 0.501841 -0.066783
C4    C     C_R   0.055432 0.426461 0.435811 -0.201524
C5    C     C_R   0.927225 0.426904 0.434879 -0.190507
C6    C     C_R   0.871560 0.509681 0.499648 -0.082832
C7    C     C_R   0.502727 0.814142 0.533355 -0.083700
C8    C     C_R   0.495750 0.185766 0.466478 -0.137788
C9    C     C_R   0.482305 0.015144 0.345345 0.589647
C10   C     C_R   0.484007 0.123357 0.356695 -0.270703
C11   C     C_R   0.505579 0.139249 0.565203 -0.269698
C12   C     C_R   0.262917 0.502230 0.500638 0.761908
C13   C     C_R   0.504192 0.031146 0.554859 0.098177
C14   C     C_R   0.492571 0.968434 0.444134 0.041400
C15   C     C_R   0.491782 0.860275 0.434377 -0.197803
C16   C     C_R   0.514306 0.876826 0.642964 -0.188107
C17   C     C_R   0.514733 0.984904 0.653662 -0.174476
C18   C     C_R   0.382961 0.400449 0.023571 -0.284046
C19   C     C_R   0.392262 0.408849 0.143133 0.397570
C20   C     C_R   0.551774 0.544237 0.156662 0.045643
C21   C     C_R   0.543685 0.537183 0.034201 -0.058177
C22   C     C_R   0.457790 0.464026 0.966818 0.023559
C23   C     C_R   0.502003 0.700662 0.521262 0.780845
C24   C     C_R   0.447610 0.455670 0.844282 0.246191
C25   C     C_R   0.606886 0.591087 0.855929 0.772613
C26   C     C_R   0.618488 0.601052 0.977370 -0.365841
C27   C     C_R   0.737370 0.502989 0.499873 0.784057
C28   C     C_R   0.148765 0.683124 0.625409 -0.167584
C29   C     C_R   0.092878 0.769682 0.684056 0.211625
C30   C     C_R   0.963048 0.770057 0.681197 -0.111160
C31   C     C_R   0.889374 0.684948 0.620827 -0.164424
C32   C     C_R   0.944258 0.596356 0.562886 0.072883
Cu1   Cu    Cu3+1 0.509250 0.507730 0.615930 0.981200
Cu2   Cu    Cu3+1 0.490750 0.492270 0.384070 0.945817
H1    H     H_    0.097238 0.360660 0.386539 0.140022
H2    H     H_    0.523587 0.032228 0.738931 0.144224
H3    H     H_    0.476256 0.158119 0.279474 0.187335
H4    H     H_    0.514842 0.186932 0.650314 0.172188
H5    H     H_    0.315032 0.342506 0.976408 0.156949
H6    H     H_    0.685767 0.658702 0.026536 0.181863
H7    H     H_    0.617959 0.600564 0.209221 0.132441
H8    H     H_    0.249302 0.685891 0.626195 0.149914
H9    H     H_    0.918607 0.837052 0.724922 0.157528
H10   H     H_    0.789382 0.690335 0.618131 0.185853
H11   H     H_    0.871030 0.361288 0.385297 0.151270
H12   H     H_    0.482829 0.812016 0.349625 0.208089
H13   H     H_    0.522942 0.842477 0.720436 0.186890
N1    N     N_R   0.523180 0.519350 0.790130 -0.228868
N2    N     N_R   0.476820 0.480650 0.209890 -0.182217
O1    O     O_R   0.506570 0.354460 0.582000 -0.593980
O2    O     O_R   0.490940 0.341410 0.386200 -0.595022
O3    O     O_R   0.327470 0.506530 0.597920 -0.596151
O4    O     O_R   0.311840 0.493480 0.402120 -0.578427
O5    O     O_R   0.509060 0.658590 0.613800 -0.551665
O6    O     O_R   0.493430 0.645540 0.418000 -0.590096
O7    O     O_R   0.688160 0.506520 0.597880 -0.533172
O8    O     O_R   0.672530 0.493470 0.402080 -0.585681
C33   C     C_3   0.350690 0.375396 0.778138 -0.764154
H14   H     H_    0.256907 0.393926 0.807251 0.202606
H15   H     H_    0.340523 0.368491 0.685386 0.273158
H16   H     H_    0.372660 0.296204 0.794051 0.186068
F1    F     F_    0.680199 0.654404 0.804369 -0.675130
C34   C     C_3   0.303604 0.334705 0.189098 -0.806592
H17   H     H_    0.206286 0.349656 0.162457 0.203503
H18   H     H_    0.321144 0.253018 0.151161 0.201405
H19   H     H_    0.307654 0.338249 0.281989 0.266676
C35   C     C_3   0.170707 0.862577 0.748377 -0.852587
H20   H     H_    0.271882 0.850819 0.744249 0.235510
H21   H     H_    0.149686 0.933019 0.710560 0.232294
H22   H     H_    0.149144 0.876020 0.840358 0.244783
F2    F     F_    0.470992 0.956477 0.238138 -0.675905

loop_
_geom_bond_atom_site_label_1
_geom_bond_atom_site_label_2
_ccdc_geom_bond_type
C11   H4    S    
C6    C32   A    
C9    C14   A    
C34   H18   S    
C23   O6    A    
C29   C30   A    
C17   H2    S    
Cu2   O8    S    
C1    C8    S    
C11   C13   A    
C1    O1    A    
C19   N2    A    
C6    C27   S    
C14   C15   A    
C13   C17   A    
C30   C31   A    
C18   H5    S    
C35   H22   S    
C33   H16   S    
C7    C15   A    
C20   H7    S    
C33   H14   S    
C4    H1    S    
Cu2   O6    S    
C18   C22   A    
C13   C14   A    
Cu1   O3    S    
C1    O2    A    
C25   N1    A    
C26   H6    S    
Cu2   O2    S    
C20   N2    A    
C12   O4    A    
C19   C34   S    
Cu1   O7    S    
C8    C11   A    
C7    C23   S    
Cu2   O4    S    
C16   H13   S    
C21   C22   A    
C28   C29   A    
C12   O3    A    
C21   C26   A    
Cu1   Cu2   S    
C2    C3    A    
C25   F1    S    
C10   H3    S    
C5    C6    A    
C22   C24   A    
C30   H9    S    
C34   H19   S    
C16   C17   A    
C31   H10   S    
C33   H15   S    
C35   H20   S    
C24   N1    A    
C24   C33   S    
C9    F2    S    
C20   C21   A    
C23   O5    A    
C2    C32   A    
C18   C19   A    
C27   O8    A    
C28   H8    S    
Cu1   O5    S    
Cu1   N1    S    
C27   O7    A    
C4    C5    A    
Cu2   N2    S    
C2    C28   A    
C3    C12   S    
Cu1   O1    S    
C15   H12   S    
C25   C26   A    
C29   C35   S    
C5    H11   S    
C8    C10   A    
C7    C16   A    
C3    C4    A    
C31   C32   A    
C9    C10   A    
C34   H17   S    
C35   H21   S    
