data_mof_unit_58862.cif
_audit_creation_date              2012-12-10T17:14:06-0500
_audit_creation_method            fapswitch 2.2
_symmetry_space_group_name_H-M    P1
_symmetry_Int_Tables_number       1
_space_group_crystal_system       triclinic
_cell_length_a                    15.94695
_cell_length_b                    12.981537
_cell_length_c                    11.829835
_cell_angle_alpha                 100.210986
_cell_angle_beta                  94.422111
_cell_angle_gamma                 92.271178
_cell_volume                      2399.45422611

loop_
_atom_site_label
_atom_site_type_symbol
_atom_type_description
_atom_site_fract_x
_atom_site_fract_y
_atom_site_fract_z
_atom_type_partial_charge
C1    C     C_R   0.505532 0.299983 0.478581 0.877524
C2    C     C_3   0.956993 0.504603 0.625276 -0.298779
C3    C     C_3   0.916838 0.511276 0.501000 0.129141
C4    C     C_3   0.958099 0.606919 0.458631 -0.376392
C5    C     C_3   0.054416 0.598480 0.457110 -0.454563
C6    C     C_1   0.824687 0.515825 0.502063 -0.047691
C7    C     C_1   0.174597 0.493792 0.490904 0.048528
C8    C     C_1   0.250379 0.495572 0.494157 -0.044189
C9    C     C_R   0.499857 0.815771 0.535501 -0.088926
C10   C     C_R   0.515542 0.186902 0.466027 -0.157566
C11   C     C_R   0.491979 0.014341 0.346848 -0.197896
C12   C     C_R   0.340285 0.498593 0.498826 0.821616
C13   C     C_R   0.492555 0.122702 0.358467 -0.258550
C14   C     C_R   0.543676 0.140948 0.561192 0.388152
C15   C     C_R   0.527327 0.032927 0.553573 0.034522
C16   C     C_R   0.505891 0.969032 0.444796 0.111041
C17   C     C_R   0.497088 0.860816 0.435971 -0.243225
C18   C     C_R   0.506520 0.881884 0.645195 -0.011164
C19   C     C_R   0.525192 0.988754 0.653008 -0.145605
C20   C     C_R   0.389605 0.490951 0.044404 0.360363
C21   C     C_R   0.405317 0.472263 0.156709 0.004662
C22   C     C_R   0.550946 0.502857 0.149836 0.050001
C23   C     C_R   0.498607 0.700980 0.521934 0.803069
C24   C     C_R   0.538363 0.510926 0.031467 -0.099420
C25   C     C_R   0.457743 0.496698 0.974048 -0.125868
C26   C     C_R   0.450123 0.482218 0.849684 0.509498
C27   C     C_R   0.589614 0.557385 0.857858 0.535063
C28   C     C_R   0.603855 0.540569 0.972073 -0.344459
C29   C     C_R   0.659625 0.503859 0.500696 0.869866
C30   C     C_3   0.056850 0.495397 0.623793 0.647420
C31   C     C_3   0.033575 0.405240 0.400582 -0.210651
C32   C     C_3   0.937029 0.406662 0.418612 -0.188314
C33   C     C_1   0.749250 0.511791 0.501985 -0.082509
C34   C     C_3   0.082278 0.494966 0.494667 0.059755
Cu1   Cu    Cu3+1 0.506190 0.507730 0.615930 1.128402
Cu2   Cu    Cu3+1 0.493810 0.492270 0.384070 0.950443
H1    H     H_    0.928882 0.429357 0.640466 0.167445
H2    H     H_    0.929712 0.612772 0.371787 0.169696
H3    H     H_    0.486355 0.811996 0.351199 0.167808
H4    H     H_    0.474965 0.966226 0.262882 0.147689
H5    H     H_    0.529659 0.038671 0.737216 0.198891
H6    H     H_    0.474045 0.156119 0.283269 0.185976
H7    H     H_    0.665537 0.559156 0.018315 0.193856
H8    H     H_    0.352073 0.461951 0.204872 0.148587
H9    H     H_    0.613365 0.517395 0.194085 0.141321
H10   H     H_    0.039793 0.430379 0.316545 0.145949
H11   H     H_    0.922092 0.344575 0.467460 0.154087
H12   H     H_    0.088209 0.668435 0.511143 0.252025
H13   H     H_    0.072273 0.601764 0.368570 0.165224
H14   H     H_    0.947226 0.682864 0.511779 0.193698
N1    N     N_R   0.515490 0.519350 0.790130 -0.285506
N2    N     N_R   0.484510 0.480650 0.209890 -0.207941
O1    O     O_R   0.504390 0.354460 0.582000 -0.477039
O2    O     O_R   0.493940 0.341410 0.386200 -0.604437
O3    O     O_R   0.384660 0.506540 0.597940 -0.510723
O4    O     O_R   0.374210 0.493480 0.402140 -0.629759
O5    O     O_R   0.506060 0.658590 0.613800 -0.545317
O6    O     O_R   0.495610 0.645540 0.418000 -0.590452
O7    O     O_R   0.625790 0.506520 0.597860 -0.485134
O8    O     O_R   0.615340 0.493460 0.402060 -0.616183
S1    S     S_3+6 0.114470 0.606508 0.724824 0.035266
O9    O     O_2   0.112049 0.592358 0.847771 -0.181584
O10   O     O_2   0.205287 0.618324 0.702298 -0.273716
O11   O     O_3   0.071220 0.720634 0.712970 -0.614618
H15   H     H_    0.100700 0.773019 0.776054 0.371231
C35   C     C_R   0.927834 0.578743 0.730421 0.162211
C36   C     C_R   0.893210 0.676760 0.726295 0.028451
C37   C     C_R   0.882461 0.746748 0.827836 -0.012777
C38   C     C_R   0.901240 0.718241 0.934796 -0.031102
C39   C     C_R   0.926853 0.617827 0.940342 -0.090293
C40   C     C_R   0.938428 0.548011 0.839141 -0.033009
H16   H     H_    0.872990 0.700963 0.647064 0.106321
H17   H     H_    0.858191 0.822771 0.823468 0.139448
H18   H     H_    0.892944 0.772655 0.013225 0.131084
H19   H     H_    0.939133 0.594586 0.023219 0.116068
H20   H     H_    0.959599 0.471158 0.846166 0.175656
C41   C     C_R   0.479969 0.847607 0.750277 0.133980
C42   C     C_R   0.534663 0.861498 0.851344 -0.078617
C43   C     C_R   0.505141 0.841678 0.954200 -0.206985
C44   C     C_R   0.420536 0.811024 0.957468 -0.105910
C45   C     C_R   0.365438 0.799760 0.857769 -0.037361
C46   C     C_R   0.395180 0.816120 0.754153 -0.141164
H21   H     H_    0.599583 0.889065 0.850662 0.164695
H22   H     H_    0.547284 0.852464 0.032062 0.131172
H23   H     H_    0.397395 0.797739 0.037619 0.167942
H24   H     H_    0.299186 0.780485 0.860954 0.203882
H25   H     H_    0.351378 0.808754 0.678095 0.136248
S2    S     S_3+6 0.610046 0.212265 0.680563 -0.006526
O12   O     O_2   0.556884 0.261331 0.772990 -0.276346
O13   O     O_2   0.668554 0.139971 0.729293 -0.313134
O14   O     O_3   0.668920 0.306008 0.637551 -0.548926
H26   H     H_    0.704019 0.340638 0.707750 0.388284
S3    S     S_3+6 0.364458 0.391138 0.783030 0.113770
O15   O     O_2   0.289858 0.450470 0.753005 -0.143760
O16   O     O_2   0.383005 0.317258 0.677295 -0.270459
O17   O     O_3   0.337013 0.314724 0.876705 -0.536603
H27   H     H_    0.284658 0.275023 0.840008 0.387955
S4    S     S_3+6 0.085150 0.372197 0.670379 0.018295
O18   O     O_2   0.016179 0.288144 0.632997 -0.383289
O19   O     O_2   0.164090 0.332513 0.620644 -0.248029
O20   O     O_3   0.100261 0.387746 0.814396 -0.443254
H28   H     H_    0.110552 0.316774 0.830471 0.377058
S5    S     S_3+6 0.673998 0.631310 0.816725 -0.015250
O21   O     O_2   0.739903 0.556983 0.777025 -0.313752
O22   O     O_2   0.650019 0.693555 0.725134 -0.301625
O23   O     O_3   0.716319 0.715560 0.933757 -0.575798
H29   H     H_    0.669056 0.756146 0.963649 0.326884
S6    S     S_3+6 0.290497 0.541927 0.017173 0.049003
O24   O     O_2   0.292884 0.606592 0.924467 -0.214880
O25   O     O_2   0.224605 0.453843 0.982976 -0.227483
O26   O     O_3   0.264789 0.619461 0.137991 -0.555501
H30   H     H_    0.230424 0.573769 0.177426 0.337998
C47   C     C_R   0.072454 0.297101 0.377588 0.171482
C48   C     C_R   0.032072 0.202428 0.394391 -0.015224
C49   C     C_R   0.070799 0.107168 0.369621 -0.121921
C50   C     C_R   0.148781 0.103144 0.323862 -0.099629
C51   C     C_R   0.187411 0.194039 0.300038 -0.101230
C52   C     C_R   0.149006 0.289353 0.324446 -0.137568
H31   H     H_    0.970785 0.198727 0.426004 0.132633
H32   H     H_    0.039715 0.035925 0.385067 0.134581
H33   H     H_    0.178401 0.029197 0.304590 0.138689
H34   H     H_    0.246759 0.190567 0.261188 0.136368
H35   H     H_    0.178833 0.357178 0.299421 0.112980
C53   C     C_R   0.879681 0.380120 0.305608 0.129492
C54   C     C_R   0.887108 0.434304 0.213034 -0.134573
C55   C     C_R   0.829914 0.411852 0.114972 -0.142475
C56   C     C_R   0.764825 0.335272 0.107345 -0.093795
C57   C     C_R   0.757121 0.280083 0.197335 -0.110055
C58   C     C_R   0.814098 0.301903 0.295449 -0.162020
H36   H     H_    0.936759 0.493751 0.215074 0.113515
H37   H     H_    0.835790 0.454089 0.044701 0.146549
H38   H     H_    0.720416 0.318651 0.031608 0.169135
H39   H     H_    0.706568 0.220715 0.191483 0.143259
H40   H     H_    0.805732 0.258934 0.364698 0.135590

loop_
_geom_bond_atom_site_label_1
_geom_bond_atom_site_label_2
_ccdc_geom_bond_type
C23   O6    A    
S3    O15   D    
Cu1   O1    S    
C32   C53   S    
Cu1   Cu2   S    
C1    O2    A    
C3    C6    S    
C57   C58   A    
C48   C49   A    
C7    C8    T    
C41   C42   A    
C50   C51   A    
C15   C19   A    
C55   C56   A    
C41   C46   A    
C36   H16   S    
Cu2   O6    S    
C43   H22   S    
C20   C25   A    
C46   H25   S    
C29   C33   S    
S6    O24   D    
Cu1   O7    S    
C18   C19   A    
C17   H3    S    
S1    O10   D    
C1    O1    A    
C56   H38   S    
C54   H36   S    
C29   O7    A    
C16   C17   A    
C31   H10   S    
C3    C32   S    
C29   O8    A    
C39   C40   A    
C45   H24   S    
Cu2   N2    S    
C47   C52   A    
C26   S3    S    
C35   C36   A    
S3    O16   D    
C5    C34   S    
C5    H13   S    
C38   C39   A    
C57   H39   S    
C42   H21   S    
C13   H6    S    
C27   N1    A    
C45   C46   A    
C5    H12   S    
C50   H33   S    
C30   C34   S    
Cu1   O3    S    
C36   C37   A    
O20   H28   S    
C24   C25   A    
C10   C14   A    
O14   H26   S    
C42   C43   A    
C37   C38   A    
Cu2   O8    S    
C25   C26   A    
C58   H40   S    
C4    H14   S    
S1    O11   S    
C51   H34   S    
C44   H23   S    
Cu2   O4    S    
C21   H8    S    
C11   C16   A    
C35   C40   A    
S2    O14   S    
C8    C12   S    
O17   H27   S    
C31   C34   S    
C38   H18   S    
S5    O22   D    
C20   C21   A    
C12   O4    A    
C9    C17   A    
S2    O13   D    
S4    O18   D    
S3    O17   S    
S4    O19   D    
Cu1   N1    S    
C54   C55   A    
C7    C34   S    
C22   C24   A    
C3    C4    S    
S5    O21   D    
C22   N2    A    
C47   C48   A    
C23   O5    A    
O26   H30   S    
C31   C32   S    
C9    C23   S    
C1    C10   S    
C24   C28   A    
C4    H2    S    
C44   C45   A    
C2    C35   S    
C10   C13   A    
S6    O26   S    
C56   C57   A    
S4    O20   S    
C30   S4    S    
C28   H7    S    
C6    C33   T    
C2    C30   S    
Cu1   O5    S    
O11   H15   S    
C2    C3    S    
C37   H17   S    
C14   S2    S    
C51   C52   A    
C11   C13   A    
C2    H1    S    
C11   H4    S    
C40   H20   S    
C48   H31   S    
C55   H37   S    
C18   C41   S    
C15   C16   A    
C27   S5    S    
C32   H11   S    
S6    O25   D    
C53   C58   A    
S5    O23   S    
C52   H35   S    
S1    O9    D    
C12   O3    A    
Cu2   O2    S    
C43   C44   A    
C19   H5    S    
C9    C18   A    
C4    C5    S    
C22   H9    S    
S2    O12   D    
C39   H19   S    
C49   H32   S    
O23   H29   S    
C30   S1    S    
C27   C28   A    
C14   C15   A    
C26   N1    A    
C31   C47   S    
C21   N2    A    
C49   C50   A    
C53   C54   A    
C20   S6    S    
