data_mof_unit_64002.cif
_audit_creation_date              2012-12-10T18:50:20-0500
_audit_creation_method            fapswitch 2.2
_symmetry_space_group_name_H-M    P1
_symmetry_Int_Tables_number       1
_space_group_crystal_system       triclinic
_cell_length_a                    15.865386
_cell_length_b                    19.386485
_cell_length_c                    18.143696
_cell_angle_alpha                 89.868228
_cell_angle_beta                  90.004025
_cell_angle_gamma                 90.207709
_cell_volume                      5580.47894279

loop_
_atom_site_label
_atom_site_type_symbol
_atom_type_description
_atom_site_fract_x
_atom_site_fract_y
_atom_site_fract_z
_atom_type_partial_charge
C1    C     C_R   0.500742 0.367713 0.500111 0.834945
C2    C     C_R   0.500715 0.632238 0.499883 0.840923
C3    C     C_R   0.429081 0.812706 0.463325 -0.131823
C4    C     C_R   0.433744 0.186699 0.542906 -0.130967
C5    C     C_R   0.492576 0.851555 0.497526 0.138618
C6    C     C_R   0.492824 0.148183 0.503197 0.140661
C7    C     C_R   0.559396 0.817895 0.533023 -0.083724
C8    C     C_R   0.555139 0.182179 0.461889 -0.091607
C9    C     C_R   0.562779 0.746001 0.534753 0.210615
C10   C     C_R   0.558410 0.254088 0.459809 0.216836
C11   C     C_R   0.499378 0.707371 0.499474 -0.082494
C12   C     C_R   0.499489 0.292472 0.500569 -0.089870
C13   C     C_R   0.487335 0.962289 0.567122 0.378302
C14   C     C_R   0.479398 0.037388 0.434472 0.379094
C15   C     C_R   0.492947 0.034343 0.568581 0.181279
C16   C     C_R   0.484928 0.965377 0.432508 0.181200
C17   C     C_R   0.487565 0.072278 0.502428 -0.214715
C18   C     C_R   0.487461 0.927429 0.498789 -0.214667
C19   C     C_R   0.445614 0.457939 0.720931 0.096930
C20   C     C_R   0.554308 0.542110 0.279049 0.109379
C21   C     C_R   0.443905 0.457314 0.798366 -0.200458
C22   C     C_R   0.556056 0.542671 0.201615 -0.200684
C23   C     C_R   0.339591 0.499957 0.499979 0.811712
C24   C     C_R   0.660400 0.500059 0.500020 0.874683
C25   C     C_R   0.498116 0.500731 0.838523 0.146081
C26   C     C_R   0.501973 0.499130 0.161484 0.148595
C27   C     C_R   0.554401 0.542839 0.798756 -0.256708
C28   C     C_R   0.445823 0.456918 0.201268 -0.256718
C29   C     C_R   0.554105 0.541911 0.721276 0.106084
C30   C     C_R   0.446093 0.457897 0.278750 0.110209
C31   C     C_R   0.573445 0.488201 0.959670 -0.236908
C32   C     C_R   0.426641 0.511629 0.040346 -0.239415
C33   C     C_R   0.575997 0.486909 0.037195 0.288339
C34   C     C_R   0.424089 0.512930 0.962822 0.286381
C35   C     C_R   0.502116 0.499072 0.078736 -0.008025
C36   C     C_R   0.497970 0.500762 0.921277 -0.006217
C37   C     C_3   0.971662 0.442674 0.533568 -0.147113
C38   C     C_3   0.028282 0.557487 0.466427 -0.155264
C39   C     C_3   0.027719 0.444270 0.463711 -0.150147
C40   C     C_3   0.972222 0.555890 0.536285 -0.144077
C41   C     C_1   0.249836 0.499974 0.499961 -0.167779
C42   C     C_1   0.750135 0.500101 0.500037 -0.115098
C43   C     C_3   0.028028 0.498453 0.569837 -0.152383
C44   C     C_3   0.971916 0.501707 0.430159 -0.138666
C45   C     C_3   0.082555 0.500049 0.499979 0.169579
C46   C     C_3   0.917394 0.500109 0.500016 0.168150
C47   C     C_1   0.174253 0.500004 0.499963 -0.058090
C48   C     C_1   0.825708 0.500119 0.500034 -0.028968
C49   C     C_R   0.433215 0.741020 0.463306 -0.227449
C50   C     C_R   0.437918 0.258405 0.542521 -0.234503
Cu1   Cu    Cu3+1 0.499980 0.500000 0.573360 0.978863
Cu2   Cu    Cu3+1 0.500020 0.500000 0.426640 0.983222
H1    H     H_    0.051852 0.398453 0.433922 0.145390
H2    H     H_    0.948064 0.601702 0.566068 0.159298
H3    H     H_    0.403428 0.424471 0.690606 0.124037
H4    H     H_    0.596417 0.575651 0.309356 0.133744
H5    H     H_    0.400918 0.422793 0.826695 0.165877
H6    H     H_    0.598972 0.577236 0.173265 0.167717
H7    H     H_    0.597737 0.576699 0.827440 0.158547
H8    H     H_    0.402624 0.422933 0.172595 0.148513
H9    H     H_    0.597190 0.574931 0.691230 0.165413
H10   H     H_    0.403171 0.424740 0.308828 0.122784
H11   H     H_    0.630683 0.478031 0.929073 0.186139
H12   H     H_    0.369406 0.521801 0.070947 0.184088
H13   H     H_    0.947057 0.395548 0.561124 0.152583
H14   H     H_    0.052880 0.604613 0.438867 0.146403
H15   H     H_    0.947516 0.503042 0.372829 0.156119
H16   H     H_    0.052417 0.497116 0.627170 0.153189
H17   H     H_    0.383838 0.711656 0.436386 0.154405
H18   H     H_    0.391944 0.287455 0.573734 0.150157
H19   H     H_    0.376207 0.837981 0.437019 0.159367
H20   H     H_    0.384230 0.161148 0.573840 0.158467
H21   H     H_    0.608781 0.847623 0.559435 0.193053
H22   H     H_    0.601152 0.152682 0.431242 0.192778
N1    N     N_R   0.499990 0.500020 0.683620 -0.182570
N2    N     N_R   0.500010 0.499980 0.316380 -0.177231
O1    O     O_R   0.499960 0.400180 0.561980 -0.586923
O2    O     O_R   0.500040 0.599820 0.438020 -0.589146
O3    O     O_R   0.500000 0.400190 0.438070 -0.556268
O4    O     O_R   0.500000 0.599810 0.561930 -0.559815
O5    O     O_R   0.379060 0.499990 0.561940 -0.581952
O6    O     O_R   0.620940 0.500010 0.438060 -0.565366
O7    O     O_R   0.379100 0.500000 0.438040 -0.590498
O8    O     O_R   0.620900 0.500000 0.561960 -0.575505
Br1   Br    Br    0.681140 0.463734 0.083149 -0.472352
Br2   Br    Br    0.318947 0.536157 0.916894 -0.502313
Br3   Br    Br    0.656619 0.702981 0.583018 -0.534320
Br4   Br    Br    0.646559 0.297249 0.403528 -0.467780
O9    O     O_3   0.490110 0.926069 0.633034 -0.560704
C51   C     C_3   0.409480 0.898385 0.649655 0.078163
H23   H     H_    0.419282 0.849386 0.680302 0.183064
H24   H     H_    0.371325 0.884985 0.600011 0.114373
C52   C     C_3   0.359872 0.947999 0.698655 -0.325204
H25   H     H_    0.397907 0.961037 0.748186 0.266215
H26   H     H_    0.346785 0.996289 0.667676 0.224405
C53   C     C_3   0.276286 0.916232 0.723133 -0.883767
H27   H     H_    0.236692 0.903720 0.674428 0.255424
H28   H     H_    0.241753 0.953500 0.758237 0.270254
H29   H     H_    0.287522 0.868479 0.755579 0.267225
O10   O     O_3   0.474295 0.073599 0.368665 -0.559446
C54   C     C_3   0.392092 0.100713 0.359440 0.075579
H30   H     H_    0.398129 0.149711 0.327970 0.178736
H31   H     H_    0.360077 0.113970 0.412273 0.113156
C55   C     C_3   0.336940 0.050668 0.315336 -0.320586
H32   H     H_    0.368840 0.037796 0.262616 0.265577
H33   H     H_    0.327698 0.002348 0.347421 0.224576
C56   C     C_3   0.250840 0.081823 0.298599 -0.894411
H34   H     H_    0.217290 0.094154 0.350643 0.255471
H35   H     H_    0.212333 0.044255 0.266911 0.271870
H36   H     H_    0.258066 0.129592 0.265229 0.262110
Br5   Br    Br    0.514417 0.078944 0.661627 -0.456583
Br6   Br    Br    0.495354 0.920899 0.338013 -0.457668

loop_
_geom_bond_atom_site_label_1
_geom_bond_atom_site_label_2
_ccdc_geom_bond_type
C52   H25   S    
C27   C29   A    
C24   C42   S    
C20   H4    S    
C55   H33   S    
C3    C49   A    
C19   N1    A    
C7    H21   S    
C39   H1    S    
C21   H5    S    
C10   Br4   S    
C54   H30   S    
C23   O7    A    
C13   C18   A    
C11   C49   A    
C19   C21   A    
Cu1   N1    S    
C1    O1    A    
C53   H29   S    
C30   N2    A    
C20   N2    A    
C15   C17   A    
C34   Br2   S    
C33   Br1   S    
Cu1   O4    S    
C38   C45   S    
C24   O6    A    
C40   C43   S    
C38   H14   S    
C53   H28   S    
C43   H16   S    
C37   H13   S    
C56   H34   S    
C31   C33   A    
Cu2   O3    S    
Cu1   O5    S    
C39   C45   S    
C45   C47   S    
C54   H31   S    
C49   H17   S    
C56   H35   S    
C14   C17   A    
C1    C12   S    
Cu2   O2    S    
C2    C11   S    
C55   H32   S    
C44   C46   S    
C46   C48   S    
C28   H8    S    
C29   H9    S    
Cu1   Cu2   S    
C32   C35   A    
C31   H11   S    
C32   H12   S    
C4    C6    A    
C5    C7    A    
C6    C8    A    
C5    C18   S    
C3    C5    A    
C4    C50   A    
C32   C34   A    
C37   C43   S    
Cu2   O7    S    
C3    H19   S    
Cu1   O1    S    
C38   C44   S    
C2    O2    A    
C15   Br5   S    
C9    C11   A    
C51   H24   S    
C53   H27   S    
C8    H22   S    
C41   C47   T    
C42   C48   T    
Cu2   O6    S    
C43   C45   S    
C10   C12   A    
C16   C18   A    
C20   C22   A    
C52   C53   S    
C40   H2    S    
C30   H10   S    
C1    O3    A    
C56   H36   S    
C14   C16   A    
C40   C46   S    
O9    C51   S    
C4    H20   S    
C16   Br6   S    
C51   C52   S    
C19   H3    S    
C7    C9    A    
C6    C17   S    
C21   C25   A    
C23   O5    A    
C13   O9    S    
Cu2   N2    S    
C22   H6    S    
C12   C50   A    
C14   O10   S    
C39   C44   S    
C29   N1    A    
C25   C27   A    
C26   C28   A    
C23   C41   S    
C13   C15   A    
C24   O8    A    
C37   C39   S    
C27   H7    S    
C9    Br3   S    
C38   C40   S    
C51   H23   S    
C52   H26   S    
C28   C30   A    
O10   C54   S    
C33   C35   A    
C34   C36   A    
C50   H18   S    
C2    O4    A    
C25   C36   S    
C26   C35   S    
C8    C10   A    
C22   C26   A    
C31   C36   A    
C44   H15   S    
C54   C55   S    
C37   C46   S    
Cu1   O8    S    
C55   C56   S    
