data_mof_unit_27008.cif
_audit_creation_date              2012-12-10T18:37:14-0500
_audit_creation_method            fapswitch 2.2
_symmetry_space_group_name_H-M    P1
_symmetry_Int_Tables_number       1
_space_group_crystal_system       triclinic
_cell_length_a                    15.110275
_cell_length_b                    13.812073
_cell_length_c                    10.866238
_cell_angle_alpha                 88.945892
_cell_angle_beta                  90.958984
_cell_angle_gamma                 89.926016
_cell_volume                      2267.12545511

loop_
_atom_site_label
_atom_site_type_symbol
_atom_type_description
_atom_site_fract_x
_atom_site_fract_y
_atom_site_fract_z
_atom_type_partial_charge
C1    C     C_R   0.329071 0.499907 0.501598 0.886515
C2    C     C_3   0.587027 0.468117 0.936411 0.780176
C3    C     C_R   0.093611 0.579340 0.429106 0.383569
C4    C     C_R   0.091108 0.411382 0.499522 0.388465
C5    C     C_R   0.184001 0.584645 0.459655 0.250649
C6    C     C_R   0.184062 0.410743 0.505236 0.245630
C7    C     C_R   0.231133 0.498949 0.491670 -0.370389
C8    C     C_R   0.046220 0.495489 0.459217 -0.176497
C9    C     C_R   0.897930 0.435177 0.392312 0.472270
C10   C     C_R   0.907878 0.566433 0.539873 0.450664
C11   C     C_R   0.806174 0.432945 0.407565 -0.320215
C12   C     C_R   0.816033 0.569275 0.544471 -0.306955
C13   C     C_R   0.765441 0.500210 0.483035 -0.144943
C14   C     C_R   0.949257 0.499530 0.462507 0.016094
C15   C     C_R   0.466689 0.104605 0.596241 -0.398317
C16   C     C_R   0.538666 0.892209 0.594787 -0.368815
C17   C     C_R   0.493762 0.500933 0.259644 0.893421
C18   C     C_R   0.466286 0.206344 0.596003 0.090879
C19   C     C_R   0.539079 0.790460 0.594032 0.023962
C20   C     C_R   0.537109 0.211765 0.403987 -0.030442
C21   C     C_R   0.461266 0.791122 0.404248 -0.005792
C22   C     C_R   0.540363 0.109616 0.401123 0.369138
C23   C     C_R   0.460320 0.893248 0.398835 0.387997
C24   C     C_R   0.502503 0.054547 0.497296 0.027867
C25   C     C_R   0.500301 0.945657 0.496219 0.056748
C26   C     C_R   0.669788 0.500042 0.494635 0.829468
C27   C     C_R   0.497356 0.499710 0.740506 0.911350
C28   C     C_3   0.483276 0.611694 0.068499 0.826465
C29   C     C_3   0.407355 0.440523 0.069423 0.787493
C30   C     C_3   0.471050 0.606032 0.923744 0.209501
C31   C     C_3   0.420108 0.429665 0.925999 0.235291
C32   C     C_3   0.574236 0.453854 0.077023 -0.578682
C33   C     C_3   0.487816 0.503138 0.120711 -0.257393
C34   C     C_3   0.494317 0.500767 0.878969 -0.291084
Cu1   Cu    Cu3+1 0.499990 0.596430 0.500000 0.958942
Cu2   Cu    Cu3+1 0.499990 0.403570 0.500000 0.954124
H1    H     H_    0.766608 0.380479 0.358252 0.153183
H2    H     H_    0.784655 0.623458 0.599808 0.167929
H3    H     H_    0.438054 0.065119 0.672818 0.161295
H4    H     H_    0.569963 0.929117 0.671031 0.163957
H5    H     H_    0.439168 0.242865 0.673569 0.128632
H6    H     H_    0.570695 0.751004 0.669459 0.128920
H7    H     H_    0.565336 0.253227 0.329064 0.152068
H8    H     H_    0.429819 0.750933 0.332247 0.191299
H9    H     H_    0.520052 0.656216 0.882050 0.102489
H10   H     H_    0.443827 0.354703 0.907706 0.101589
H11   H     H_    0.633097 0.482104 0.128090 0.219144
H12   H     H_    0.571825 0.375370 0.101467 0.208839
N1    N     N_R   0.500020 0.258690 0.500000 -0.194717
N2    N     N_R   0.500020 0.741310 0.500000 -0.203246
O1    O     O_R   0.371450 0.581430 0.500010 -0.554926
O2    O     O_R   0.371450 0.418570 0.500010 -0.575350
O3    O     O_R   0.499980 0.581440 0.317690 -0.538148
O4    O     O_R   0.499980 0.418560 0.317690 -0.580950
O5    O     O_R   0.628540 0.581440 0.499990 -0.581451
O6    O     O_R   0.628540 0.418560 0.499990 -0.583811
O7    O     O_R   0.500010 0.581440 0.682310 -0.625112
O8    O     O_R   0.500010 0.418560 0.682310 -0.581356
O9    O     O_3   0.567755 0.652204 0.100844 -0.586336
C35   C     C_3   0.574847 0.753660 0.089258 -0.235911
H13   H     H_    0.644769 0.773351 0.108420 0.181515
H14   H     H_    0.535143 0.790525 0.159301 0.198654
H15   H     H_    0.559704 0.780642 0.994564 0.111287
O10   O     O_3   0.410723 0.347063 0.129073 -0.619720
C36   C     C_3   0.341210 0.283964 0.095155 -0.353675
H16   H     H_    0.364646 0.233681 0.024242 0.167837
H17   H     H_    0.279544 0.321350 0.063664 0.199148
H18   H     H_    0.324118 0.238870 0.176784 0.169256
O11   O     O_3   0.576444 0.063990 0.301592 -0.553894
C37   C     C_3   0.669483 0.065144 0.314624 0.067114
H19   H     H_    0.691250 0.032757 0.404969 0.147329
H20   H     H_    0.695249 0.140446 0.306100 0.127988
C38   C     C_3   0.709325 0.005429 0.213210 -0.764157
H21   H     H_    0.689437 0.036046 0.121615 0.243287
H22   H     H_    0.782654 0.006209 0.221773 0.201419
H23   H     H_    0.685880 0.929424 0.220838 0.243155
O12   O     O_3   0.426021 0.938210 0.293287 -0.576084
C39   C     C_3   0.351719 0.996395 0.319472 0.094832
H24   H     H_    0.369960 0.073736 0.306721 0.174485
H25   H     H_    0.326507 0.986722 0.414710 0.123469
C40   C     C_3   0.277108 0.974176 0.228499 -0.872743
H26   H     H_    0.252555 0.899373 0.244658 0.249013
H27   H     H_    0.221476 0.025561 0.239897 0.208140
H28   H     H_    0.301128 0.981292 0.132703 0.254413
O13   O     O_3   0.412594 0.657626 0.133057 -0.585921
C41   C     C_3   0.374078 0.743127 0.082104 -0.239896
H29   H     H_    0.307587 0.726241 0.043448 0.213286
H30   H     H_    0.414365 0.781391 0.013197 0.136643
H31   H     H_    0.362586 0.794655 0.156481 0.183566
O14   O     O_3   0.324550 0.488829 0.086579 -0.517124
C42   C     C_3   0.293459 0.486712 0.208385 -0.263955
H32   H     H_    0.313831 0.553437 0.255818 0.205613
H33   H     H_    0.314063 0.422283 0.263892 0.169369
H34   H     H_    0.220053 0.486514 0.204486 0.147431
O15   O     O_3   0.382201 0.628691 0.886898 -0.505938
C43   C     C_3   0.375060 0.705774 0.799360 -0.271581
H35   H     H_    0.369612 0.677008 0.705429 0.230764
H36   H     H_    0.429100 0.760095 0.804771 0.108914
H37   H     H_    0.312572 0.745309 0.815698 0.151165
O16   O     O_3   0.338448 0.451562 0.863727 -0.505601
C44   C     C_3   0.303966 0.372733 0.798424 -0.249345
H38   H     H_    0.300724 0.305217 0.854256 0.111443
H39   H     H_    0.343014 0.360485 0.715612 0.208470
H40   H     H_    0.235449 0.391178 0.768748 0.198944
O17   O     O_3   0.652094 0.542619 0.922466 -0.582306
C45   C     C_3   0.688703 0.551189 0.804123 -0.304427
H41   H     H_    0.679529 0.487248 0.745256 0.186999
H42   H     H_    0.760960 0.562619 0.815319 0.166398
H43   H     H_    0.661007 0.616269 0.756446 0.164585
O18   O     O_3   0.613881 0.378676 0.883665 -0.596497
C46   C     C_3   0.695416 0.342701 0.932573 -0.326287
H44   H     H_    0.682501 0.285874 0.003535 0.165881
H45   H     H_    0.739254 0.398845 0.972956 0.180632
H46   H     H_    0.732177 0.308377 0.857343 0.182366
O19   O     O_3   0.049584 0.659563 0.380493 -0.533404
C47   C     C_3   0.065840 0.665129 0.253170 -0.283376
H47   H     H_    0.043952 0.598140 0.206002 0.138589
H48   H     H_    0.136966 0.679399 0.235071 0.185880
H49   H     H_    0.027157 0.726468 0.212598 0.183265
O20   O     O_3   0.044798 0.327305 0.525903 -0.519716
C48   C     C_3   0.027370 0.323119 0.652901 -0.301695
H50   H     H_    0.977250 0.378136 0.677185 0.126266
H51   H     H_    0.088535 0.331458 0.710147 0.157895
H52   H     H_    0.999212 0.250968 0.675481 0.184295
O21   O     O_3   0.226071 0.673557 0.454654 -0.544544
C49   C     C_3   0.199745 0.727233 0.557600 0.144715
H53   H     H_    0.216713 0.687743 0.645045 0.124824
H54   H     H_    0.127342 0.741955 0.555211 0.207403
C50   C     C_3   0.246230 0.824539 0.556993 -0.859998
H55   H     H_    0.226414 0.866367 0.638388 0.197243
H56   H     H_    0.318949 0.814226 0.560467 0.245615
H57   H     H_    0.226883 0.865870 0.472339 0.259594
O22   O     O_3   0.227740 0.326474 0.541397 -0.574664
C51   C     C_3   0.224123 0.257427 0.446862 0.150703
H58   H     H_    0.288336 0.257657 0.398582 0.145193
H59   H     H_    0.170694 0.270341 0.376209 0.150977
C52   C     C_3   0.210219 0.157707 0.504978 -0.798803
H60   H     H_    0.149341 0.157440 0.560779 0.274915
H61   H     H_    0.202579 0.103116 0.432222 0.191396
H62   H     H_    0.267722 0.137852 0.565260 0.230378
O23   O     O_3   0.938781 0.371894 0.313754 -0.542917
C53   C     C_3   0.915019 0.396412 0.190741 0.061911
H63   H     H_    0.917701 0.476176 0.172707 0.133931
H64   H     H_    0.847258 0.369665 0.168863 0.133725
C54   C     C_3   0.979585 0.348589 0.104733 -0.810351
H65   H     H_    0.977647 0.268701 0.117996 0.253142
H66   H     H_    0.961352 0.366931 0.007614 0.189210
H67   H     H_    0.047859 0.374703 0.124028 0.242361
O24   O     O_3   0.956250 0.632627 0.607312 -0.549852
C55   C     C_3   0.980469 0.589987 0.722206 0.032173
H68   H     H_    0.036442 0.538813 0.710835 0.136364
H69   H     H_    0.924146 0.551012 0.765941 0.122064
C56   C     C_3   0.010888 0.668664 0.809316 -0.775992
H70   H     H_    0.956270 0.721022 0.823199 0.248011
H71   H     H_    0.030487 0.635704 0.899741 0.200258
H72   H     H_    0.068617 0.707696 0.770793 0.232180

loop_
_geom_bond_atom_site_label_1
_geom_bond_atom_site_label_2
_ccdc_geom_bond_type
C15   C18   A    
C44   H38   S    
Cu1   O3    S    
C38   H22   S    
C38   H21   S    
C30   H9    S    
O15   C43   S    
C19   N2    A    
C4    C8    A    
C26   O5    A    
C40   H28   S    
C51   C52   S    
C40   H26   S    
O12   C39   S    
C52   H61   S    
C49   H53   S    
C35   H15   S    
C22   C24   A    
C2    C32   S    
C6    O22   S    
Cu2   O8    S    
C10   O24   S    
C39   H25   S    
C45   H41   S    
O19   C47   S    
C43   H37   S    
C29   C33   S    
C47   H47   S    
C30   O15   S    
C35   H14   S    
C11   H1    S    
O18   C46   S    
C29   O14   S    
C48   H52   S    
C54   H66   S    
Cu1   Cu2   S    
C36   H17   S    
C55   C56   S    
C43   H36   S    
C49   H54   S    
C37   H19   S    
C56   H71   S    
C22   O11   S    
Cu2   O2    S    
C19   H6    S    
C50   H57   S    
C2    C34   S    
C29   O10   S    
O9    C35   S    
C44   H39   S    
C1    C7    S    
C32   H12   S    
C53   C54   S    
C17   C33   S    
C37   C38   S    
C21   N2    A    
C40   H27   S    
C54   H65   S    
C27   C34   S    
C52   H62   S    
C30   C34   S    
Cu1   O5    S    
C24   C25   S    
C4    C6    A    
C3    C8    A    
C27   O7    A    
C18   H5    S    
C42   H32   S    
C5    C7    A    
C9    O23   S    
C41   H29   S    
C51   H59   S    
C49   C50   S    
O13   C41   S    
C31   H10   S    
C35   H13   S    
C9    C14   A    
C20   N1    A    
Cu2   O6    S    
C42   H33   S    
C21   H8    S    
C9    C11   A    
C36   H18   S    
C43   H35   S    
Cu1   N2    S    
C31   C34   S    
C46   H45   S    
C31   O16   S    
C23   O12   S    
C56   H72   S    
C1    O1    A    
C15   H3    S    
C48   H50   S    
C6    C7    A    
C10   C12   A    
C16   H4    S    
C15   C24   A    
C20   C22   A    
C28   C33   S    
C44   H40   S    
C21   C23   A    
Cu1   O1    S    
O21   C49   S    
C38   H23   S    
C55   H69   S    
C13   C26   S    
C17   O3    A    
C54   H67   S    
O20   C48   S    
C50   H55   S    
C52   H60   S    
C28   O9    S    
C16   C25   A    
C2    O18   S    
C8    C14   S    
C46   H44   S    
C39   H24   S    
C3    C5    A    
C41   H31   S    
C26   O6    A    
C51   H58   S    
O17   C45   S    
C2    O17   S    
C47   H49   S    
Cu1   O7    S    
O10   C36   S    
C28   C30   S    
C29   C31   S    
C3    O19   S    
O23   C53   S    
C32   C33   S    
C42   H34   S    
C11   C13   A    
C39   C40   S    
O14   C42   S    
O22   C51   S    
C45   H42   S    
C27   O8    A    
C16   C19   A    
O16   C44   S    
C32   H11   S    
C47   H48   S    
C46   H46   S    
C41   H30   S    
C23   C25   A    
C12   H2    S    
O11   C37   S    
C1    O2    A    
C20   H7    S    
C48   H51   S    
Cu2   O4    S    
C12   C13   A    
C36   H16   S    
C5    O21   S    
C28   O13   S    
C53   H63   S    
C55   H68   S    
C4    O20   S    
C37   H20   S    
C56   H70   S    
O24   C55   S    
C17   O4    A    
C53   H64   S    
Cu2   N1    S    
C18   N1    A    
C10   C14   A    
C50   H56   S    
C45   H43   S    
