data_mof_unit_60881.cif
_audit_creation_date              2012-12-11T16:01:34-0500
_audit_creation_method            fapswitch 2.2
_symmetry_space_group_name_H-M    P1
_symmetry_Int_Tables_number       1
_space_group_crystal_system       triclinic
_cell_length_a                    23.680351
_cell_length_b                    25.122961
_cell_length_c                    8.434236
_cell_angle_alpha                 90.103341
_cell_angle_beta                  98.759949
_cell_angle_gamma                 89.938704
_cell_volume                      4959.15944999

loop_
_atom_site_label
_atom_site_type_symbol
_atom_type_description
_atom_site_fract_x
_atom_site_fract_y
_atom_site_fract_z
_atom_type_partial_charge
Ba1   Ba    Ba6+2 0.999910 0.463090 0.844860 1.646222
Ba2   Ba    Ba6+2 0.999910 0.536910 0.344860 1.642882
Ba3   Ba    Ba6+2 0.499910 0.963090 0.844860 1.646222
Ba4   Ba    Ba6+2 0.499910 0.036910 0.344860 1.642873
C1    C     C_3   0.044656 0.215163 0.632185 -0.373380
C2    C     C_R   0.828680 0.655008 0.578350 -0.127000
C3    C     C_3   0.847941 0.913616 0.828572 -0.540346
C4    C     C_3   0.255730 0.365308 0.152363 0.254106
C5    C     C_3   0.307672 0.350755 0.277304 -0.223391
C6    C     C_3   0.326176 0.293331 0.255671 -0.451798
C7    C     C_3   0.291573 0.612807 0.720408 0.199219
C8    C     C_3   0.262278 0.659084 0.623220 -0.192431
C9    C     C_3   0.293746 0.711334 0.666310 -0.471611
C10   C     C_3   0.755737 0.865316 0.152371 0.254124
C11   C     C_3   0.807685 0.850768 0.277294 -0.223388
C12   C     C_3   0.826194 0.793346 0.255651 -0.451809
C13   C     C_R   0.329125 0.844799 0.077460 -0.127062
C14   C     C_3   0.791539 0.112837 0.720359 0.199173
C15   C     C_3   0.762234 0.159077 0.623017 -0.192422
C16   C     C_3   0.793627 0.211361 0.666123 -0.471725
C17   C     C_R   0.328679 0.155008 0.578351 -0.127000
C18   C     C_R   0.817230 0.301189 0.172482 -0.001565
C19   C     C_R   0.816233 0.698348 0.674130 -0.002338
C20   C     C_R   0.317227 0.801192 0.172484 -0.001576
C21   C     C_R   0.316232 0.198347 0.674132 -0.002340
C22   C     C_R   0.849346 0.294854 0.326334 -0.130427
C23   C     C_R   0.848027 0.704597 0.828633 -0.127521
C24   C     C_R   0.349340 0.794859 0.326339 -0.130417
C25   C     C_3   0.045270 0.784011 0.139210 -0.370124
C26   C     C_R   0.348026 0.204597 0.828635 -0.127522
C27   C     C_R   0.892767 0.331307 0.383820 0.004903
C28   C     C_R   0.891999 0.668504 0.885377 0.004398
C29   C     C_R   0.392764 0.831309 0.383822 0.004905
C30   C     C_R   0.391999 0.168504 0.885378 0.004398
C31   C     C_R   0.171058 0.655226 0.110954 -0.110269
C32   C     C_R   0.169383 0.343654 0.612403 -0.107858
C33   C     C_R   0.671059 0.155225 0.110951 -0.110248
C34   C     C_R   0.669385 0.843656 0.612402 -0.107853
C35   C     C_R   0.126808 0.619291 0.054187 0.052870
C36   C     C_3   0.544653 0.715163 0.632171 -0.373386
C37   C     C_R   0.125247 0.379755 0.555816 0.055421
C38   C     C_R   0.626808 0.119291 0.054185 0.052882
C39   C     C_R   0.625248 0.879755 0.555815 0.055407
C40   C     C_R   0.108844 0.667519 0.802447 0.000388
C41   C     C_R   0.106177 0.330503 0.305025 -0.001104
C42   C     C_R   0.608849 0.167516 0.802437 0.000375
C43   C     C_R   0.606178 0.830504 0.305023 -0.001096
C44   C     C_R   0.152309 0.703995 0.859652 -0.142969
C45   C     C_R   0.149701 0.294007 0.362215 -0.139688
C46   C     C_R   0.652318 0.203989 0.859636 -0.142960
C47   C     C_3   0.545272 0.284009 0.139219 -0.370124
C48   C     C_R   0.649703 0.794009 0.362212 -0.139690
C49   C     C_R   0.183803 0.698156 0.014576 0.005410
C50   C     C_R   0.181626 0.300257 0.516604 0.002185
C51   C     C_R   0.683808 0.198152 0.014568 0.005417
C52   C     C_R   0.681628 0.800259 0.516601 0.002184
C53   C     C_3   0.979404 0.271183 0.074649 0.358594
C54   C     C_3   0.982858 0.729994 0.596066 0.355961
C55   C     C_3   0.479403 0.771184 0.074640 0.358592
C56   C     C_3   0.482857 0.229993 0.596083 0.355964
C57   C     C_1   0.230849 0.734487 0.070762 -0.013540
C58   C     C_R   0.873409 0.380735 0.134085 0.061385
C59   C     C_1   0.229099 0.264289 0.572265 -0.014487
C60   C     C_1   0.730853 0.234484 0.070758 -0.013593
C61   C     C_1   0.729101 0.764290 0.572262 -0.014485
C62   C     C_1   0.770188 0.264797 0.116667 -0.011674
C63   C     C_1   0.768808 0.734367 0.618285 -0.009020
C64   C     C_1   0.270183 0.764801 0.116669 -0.011679
C65   C     C_1   0.268807 0.234366 0.618288 -0.009021
C66   C     C_R   0.095135 0.626782 0.902224 -0.292297
C67   C     C_R   0.092821 0.371661 0.404827 -0.294580
C68   C     C_R   0.595136 0.126782 0.902220 -0.292295
C69   C     C_R   0.873146 0.619234 0.634682 0.064187
C70   C     C_R   0.592823 0.871662 0.404826 -0.294583
C71   C     C_3   0.951262 0.216940 0.045645 -0.378153
C72   C     C_3   0.960705 0.786623 0.603244 -0.391343
C73   C     C_3   0.451260 0.716942 0.045632 -0.378153
C74   C     C_3   0.460696 0.286619 0.603232 -0.391338
C75   C     C_3   0.163807 0.467557 0.257762 0.368540
C76   C     C_3   0.168536 0.531141 0.758522 0.428948
C77   C     C_3   0.663810 0.967560 0.257783 0.368530
C78   C     C_3   0.668531 0.031144 0.758507 0.428950
C79   C     C_3   0.218238 0.433428 0.297743 0.738777
C80   C     C_R   0.373409 0.880735 0.134085 0.061388
C81   C     C_3   0.226452 0.556787 0.822341 0.755308
C82   C     C_3   0.718244 0.933434 0.297759 0.738777
C83   C     C_3   0.726443 0.056796 0.822330 0.755303
C84   C     C_3   0.836830 0.534619 0.947266 0.314181
C85   C     C_3   0.837170 0.465187 0.447960 0.313392
C86   C     C_3   0.336830 0.034619 0.947267 0.314181
C87   C     C_3   0.337169 0.965187 0.447958 0.313392
C88   C     C_3   0.782979 0.568571 0.925435 -0.390593
C89   C     C_3   0.783477 0.431096 0.426339 -0.389896
C90   C     C_3   0.282979 0.068571 0.925436 -0.390593
C91   C     C_R   0.373146 0.119234 0.634682 0.064187
C92   C     C_3   0.283475 0.931098 0.426335 -0.389898
C93   C     C_3   0.017922 0.270103 0.606974 0.351092
C94   C     C_3   0.018539 0.729059 0.115548 0.352543
C95   C     C_3   0.517919 0.770103 0.606965 0.351087
C96   C     C_3   0.518541 0.229057 0.115561 0.352540
C97   C     C_R   0.905997 0.372476 0.284655 -0.287380
C98   C     C_R   0.905594 0.627529 0.785473 -0.286801
C99   C     C_R   0.405996 0.872476 0.284654 -0.287382
C100  C     C_R   0.405594 0.127530 0.785473 -0.286807
C101  C     C_3   0.284417 0.504002 0.364037 0.290700
C102  C     C_R   0.829126 0.344798 0.077461 -0.127059
C103  C     C_3   0.347123 0.507698 0.439885 -0.215328
C104  C     C_3   0.375769 0.556569 0.379802 -0.515115
C105  C     C_3   0.307341 0.500106 0.917918 0.321691
C106  C     C_3   0.295212 0.449101 0.819765 -0.166900
C107  C     C_3   0.347916 0.413582 0.828531 -0.540350
C108  C     C_3   0.784413 0.004015 0.364048 0.290687
C109  C     C_3   0.847118 0.007724 0.439900 -0.215316
C110  C     C_3   0.875752 0.056602 0.379821 -0.515089
C111  C     C_3   0.807342 0.000133 0.917932 0.321697
C112  C     C_3   0.795227 0.949123 0.819790 -0.166898
H1    H     H_    0.045300 0.298696 0.684758 0.084249
H2    H     H_    0.852576 0.468926 0.331164 0.011008
H3    H     H_    0.370117 0.471350 0.409721 0.122111
H4    H     H_    0.376576 0.553323 0.248847 0.131439
H5    H     H_    0.420418 0.559527 0.442466 0.144241
H6    H     H_    0.352479 0.593399 0.403726 0.135728
H7    H     H_    0.332167 0.488950 0.035339 0.052158
H8    H     H_    0.336124 0.527087 0.864012 0.023624
H9    H     H_    0.260039 0.426669 0.861189 0.163043
H10   H     H_    0.281188 0.460028 0.694274 0.200470
H11   H     H_    0.383327 0.435439 0.785171 0.136032
H12   H     H_    0.337412 0.377909 0.751715 0.149696
H13   H     H_    0.352091 0.030517 0.830293 0.011223
H14   H     H_    0.361987 0.400237 0.953819 0.143501
H15   H     H_    0.760930 0.038877 0.402195 0.110273
H16   H     H_    0.782519 0.005989 0.233106 0.140128
H17   H     H_    0.850284 0.010226 0.572271 0.133998
H18   H     H_    0.870122 0.971381 0.409739 0.122105
H19   H     H_    0.876562 0.053359 0.248865 0.131433
H20   H     H_    0.920401 0.059570 0.442490 0.144238
H21   H     H_    0.852451 0.093427 0.403745 0.135729
H22   H     H_    0.832169 0.988984 0.035359 0.052133
H23   H     H_    0.836118 0.027120 0.864025 0.023658
H24   H     H_    0.352575 0.968927 0.331162 0.011010
H25   H     H_    0.760060 0.926683 0.861215 0.163050
H26   H     H_    0.781201 0.960044 0.694293 0.200459
H27   H     H_    0.883347 0.935479 0.785203 0.136030
H28   H     H_    0.837446 0.877938 0.751771 0.149697
H29   H     H_    0.862015 0.900278 0.953866 0.143501
H30   H     H_    0.266291 0.356211 0.031572 0.061476
H31   H     H_    0.218483 0.339761 0.165418 0.043690
H32   H     H_    0.343768 0.377863 0.264660 0.125800
H33   H     H_    0.296995 0.355178 0.400413 0.137566
H34   H     H_    0.289767 0.265672 0.258488 0.132452
H35   H     H_    0.869783 0.554493 0.035460 0.062586
H36   H     H_    0.360772 0.282326 0.353916 0.153124
H37   H     H_    0.342505 0.288973 0.139882 0.143838
H38   H     H_    0.333037 0.604991 0.678651 0.064815
H39   H     H_    0.302396 0.623784 0.849876 0.044983
H40   H     H_    0.260996 0.650883 0.493217 0.111842
H41   H     H_    0.217750 0.662889 0.647112 0.133374
H42   H     H_    0.294107 0.720908 0.795004 0.140689
H43   H     H_    0.271703 0.744092 0.593219 0.142300
H44   H     H_    0.338514 0.708448 0.642514 0.145367
H45   H     H_    0.766292 0.856220 0.031573 0.061472
H46   H     H_    0.870106 0.445624 0.536831 0.064150
H47   H     H_    0.718493 0.839767 0.165442 0.043674
H48   H     H_    0.843776 0.877880 0.264638 0.125806
H49   H     H_    0.797013 0.855188 0.400409 0.137565
H50   H     H_    0.789791 0.765683 0.258493 0.132460
H51   H     H_    0.860798 0.782346 0.353875 0.153132
H52   H     H_    0.842514 0.788990 0.139848 0.143831
H53   H     H_    0.833021 0.105028 0.678697 0.064815
H54   H     H_    0.802330 0.123849 0.849807 0.045010
H55   H     H_    0.761020 0.150858 0.493051 0.111778
H56   H     H_    0.717684 0.162845 0.646742 0.133497
H57   H     H_    0.369783 0.054493 0.035461 0.062586
H58   H     H_    0.793859 0.220978 0.794726 0.140703
H59   H     H_    0.771611 0.244079 0.592796 0.142294
H60   H     H_    0.838435 0.208501 0.642675 0.145405
H61   H     H_    0.370104 0.945624 0.536828 0.064144
H62   H     H_    0.749486 0.549627 0.836774 0.123590
H63   H     H_    0.750063 0.449592 0.336537 0.123380
H64   H     H_    0.249486 0.049627 0.836774 0.123590
H65   H     H_    0.044644 0.701082 0.198570 0.090334
H66   H     H_    0.250061 0.949595 0.336535 0.123383
H67   H     H_    0.791945 0.608656 0.881577 0.066525
H68   H     H_    0.792753 0.390797 0.384092 0.066674
H69   H     H_    0.291945 0.108656 0.881579 0.066526
H70   H     H_    0.292749 0.890799 0.384083 0.066675
H71   H     H_    0.766864 0.572837 0.041799 0.125412
H72   H     H_    0.767105 0.427377 0.542440 0.125546
H73   H     H_    0.266864 0.072836 0.041800 0.125411
H74   H     H_    0.267104 0.927377 0.542436 0.125544
H75   H     H_    0.016798 0.281040 0.478862 -0.056546
H76   H     H_    0.545298 0.798695 0.684750 0.084247
H77   H     H_    0.019549 0.716660 0.989482 -0.057579
H78   H     H_    0.516795 0.781041 0.478854 -0.056544
H79   H     H_    0.519555 0.216655 0.989499 -0.057577
H80   H     H_    0.088490 0.215782 0.600506 0.075965
H81   H     H_    0.089936 0.782596 0.113977 0.075094
H82   H     H_    0.588487 0.715782 0.600490 0.075967
H83   H     H_    0.589940 0.282593 0.114000 0.075095
H84   H     H_    0.047102 0.203159 0.759718 0.145960
H85   H     H_    0.045525 0.797497 0.264804 0.146286
H86   H     H_    0.547100 0.703158 0.759704 0.145957
H87   H     H_    0.544643 0.201082 0.198592 0.090357
H88   H     H_    0.545523 0.297498 0.264809 0.146286
H89   H     H_    0.906790 0.218760 0.072311 0.070661
H90   H     H_    0.917244 0.786177 0.637554 0.071239
H91   H     H_    0.406786 0.718764 0.072287 0.070642
H92   H     H_    0.417239 0.286172 0.637566 0.071237
H93   H     H_    0.196488 0.648770 0.227286 0.069474
H94   H     H_    0.195322 0.350437 0.727936 0.069483
H95   H     H_    0.696487 0.148771 0.227287 0.069463
H96   H     H_    0.695325 0.850438 0.727934 0.069488
H97   H     H_    0.839606 0.262677 0.402535 0.072550
H98   H     H_    0.203545 0.397552 0.355470 -0.134457
H99   H     H_    0.837496 0.736324 0.905857 0.065476
H100  H     H_    0.339595 0.762684 0.402545 0.072537
H101  H     H_    0.337495 0.236323 0.905859 0.065476
H102  H     H_    0.162570 0.735780 0.782250 0.078971
H103  H     H_    0.160048 0.262203 0.284626 0.071965
H104  H     H_    0.662582 0.235771 0.782230 0.078975
H105  H     H_    0.660050 0.762205 0.284622 0.071968
H106  H     H_    0.803192 0.351575 0.961959 0.084602
H107  H     H_    0.802916 0.648223 0.462547 0.083504
H108  H     H_    0.303191 0.851576 0.961957 0.084604
H109  H     H_    0.215237 0.594884 0.877217 -0.149931
H110  H     H_    0.302915 0.148222 0.462549 0.083504
H111  H     H_    0.939116 0.400639 0.330026 0.065736
H112  H     H_    0.938976 0.599546 0.830332 0.065859
H113  H     H_    0.439117 0.900638 0.330024 0.065736
H114  H     H_    0.438976 0.099546 0.830332 0.065860
H115  H     H_    0.061976 0.598626 0.857076 0.068653
H116  H     H_    0.059895 0.400029 0.359559 0.067753
H117  H     H_    0.561974 0.098628 0.857075 0.068652
H118  H     H_    0.559896 0.900029 0.359559 0.067756
H119  H     H_    0.018593 0.185642 0.554779 0.108230
H120  H     H_    0.703553 0.897556 0.355489 -0.134453
H121  H     H_    0.020550 0.812829 0.056132 0.107953
H122  H     H_    0.518589 0.685642 0.554765 0.108231
H123  H     H_    0.520556 0.312826 0.056130 0.107953
H124  H     H_    0.953611 0.300411 0.995346 0.087166
H125  H     H_    0.952670 0.706970 0.507856 0.078437
H126  H     H_    0.453613 0.800413 0.995332 0.087175
H127  H     H_    0.452670 0.206960 0.507892 0.078424
H128  H     H_    0.979293 0.282149 0.202333 -0.059532
H129  H     H_    0.984252 0.712265 0.717252 -0.058708
H130  H     H_    0.479289 0.782151 0.202322 -0.059529
H131  H     H_    0.715221 0.094892 0.877198 -0.149952
H132  H     H_    0.484256 0.212271 0.717279 -0.058705
H133  H     H_    0.950148 0.204865 0.918476 0.144205
H134  H     H_    0.958810 0.806039 0.484343 0.132017
H135  H     H_    0.450148 0.704867 0.918464 0.144213
H136  H     H_    0.458791 0.306026 0.484315 0.132021
H137  H     H_    0.975491 0.186780 0.124819 0.110022
H138  H     H_    0.989492 0.809896 0.694082 0.115610
H139  H     H_    0.475485 0.686782 0.124811 0.110023
H140  H     H_    0.489486 0.309902 0.694039 0.115617
H141  H     H_    0.146959 0.475922 0.370465 -0.049628
H142  H     H_    0.852091 0.530516 0.830293 0.011222
H143  H     H_    0.144769 0.525240 0.860465 -0.053306
H144  H     H_    0.646967 0.975930 0.370490 -0.049618
H145  H     H_    0.644761 0.025246 0.860446 -0.053303
H146  H     H_    0.131641 0.444491 0.175493 -0.016732
H147  H     H_    0.143757 0.558121 0.669442 -0.049075
H148  H     H_    0.631642 0.944491 0.175530 -0.016758
H149  H     H_    0.643752 0.058119 0.669411 -0.049075
H150  H     H_    0.260943 0.538870 0.402189 0.110279
H151  H     H_    0.282522 0.505977 0.233095 0.140135
H152  H     H_    0.350291 0.510200 0.572256 0.133985
O1    O     O_2   0.888900 0.426190 0.854560 -0.458638
O2    O     O_3   0.037079 0.731055 0.547439 -0.596824
O3    O     O_3   0.535427 0.768772 0.038695 -0.598471
O4    O     O_3   0.537076 0.231055 0.547446 -0.596818
O5    O     O_3   0.064650 0.525760 0.074400 -0.484142
O6    O     O_3   0.064650 0.474240 0.574400 -0.488861
O7    O     O_3   0.564650 0.025760 0.074400 -0.484131
O8    O     O_3   0.564650 0.974240 0.574400 -0.488870
O9    O     O_3   0.935290 0.474120 0.115310 -0.491881
O10   O     O_3   0.935290 0.525880 0.615310 -0.492889
O11   O     O_3   0.435290 0.974120 0.115310 -0.491881
O12   O     O_2   0.888900 0.573810 0.354560 -0.457077
O13   O     O_3   0.435290 0.025880 0.615310 -0.492888
O14   O     O_3   0.980700 0.380570 0.633410 -0.488243
O15   O     O_3   0.980700 0.619430 0.133410 -0.489611
O16   O     O_3   0.480700 0.880570 0.633410 -0.488242
O17   O     O_3   0.480700 0.119430 0.133410 -0.489612
O18   O     O_2   0.885996 0.337146 0.711267 -0.486557
O19   O     O_2   0.886172 0.662869 0.213494 -0.484913
O20   O     O_2   0.385996 0.837146 0.711272 -0.486561
O21   O     O_2   0.386173 0.162869 0.213496 -0.484911
O22   O     O_3   0.823078 0.484602 0.002373 -0.635272
O23   O     O_2   0.388900 0.926190 0.854560 -0.458638
O24   O     O_3   0.823139 0.515396 0.501740 -0.635933
O25   O     O_3   0.323078 0.984602 0.002372 -0.635272
O26   O     O_3   0.323139 0.015396 0.501740 -0.635933
O27   O     O_3   0.962677 0.269058 0.648686 -0.602545
O28   O     O_3   0.962276 0.731060 0.149639 -0.599234
O29   O     O_3   0.462675 0.769058 0.648680 -0.602549
O30   O     O_3   0.462276 0.231060 0.149637 -0.599234
O31   O     O_2   0.110790 0.425640 0.834940 -0.447093
O32   O     O_2   0.110790 0.574360 0.334940 -0.455879
O33   O     O_2   0.610790 0.925640 0.834940 -0.447077
O34   O     O_2   0.388900 0.073810 0.354560 -0.457078
O35   O     O_2   0.610790 0.074360 0.334940 -0.455902
O36   O     O_3   0.018840 0.380480 0.055970 -0.485230
O37   O     O_3   0.018840 0.619520 0.555970 -0.480730
O38   O     O_3   0.518840 0.880480 0.055970 -0.485231
O39   O     O_3   0.518840 0.119520 0.555970 -0.480726
O40   O     O_2   0.112748 0.336180 0.976783 -0.489028
O41   O     O_2   0.112403 0.663845 0.471828 -0.492210
O42   O     O_2   0.612748 0.836180 0.976781 -0.489021
O43   O     O_2   0.612395 0.163848 0.471804 -0.492246
O44   O     O_3   0.260168 0.456812 0.415470 -0.689720
O45   O     O_3   0.177691 0.482749 0.684840 -0.646919
O46   O     O_3   0.256046 0.524873 0.948467 -0.668371
O47   O     O_3   0.760175 0.956819 0.415480 -0.689719
O48   O     O_3   0.756038 0.024887 0.948465 -0.668354
O49   O     O_3   0.241585 0.420159 0.157036 -0.663323
O50   O     O_3   0.257626 0.566185 0.693637 -0.693571
O51   O     O_3   0.741589 0.920166 0.157048 -0.663314
O52   O     O_3   0.757620 0.066196 0.693632 -0.693593
O53   O     O_3   0.175948 0.515113 0.184351 -0.644237
O54   O     O_3   0.677691 0.982749 0.684849 -0.646919
O55   O     O_3   0.675947 0.015112 0.184346 -0.644225
O56   O     O_3   0.035426 0.268773 0.038692 -0.598468
P1    P     P_3+3 0.883430 0.443490 0.026090 0.986137
P2    P     P_3+3 0.070534 0.669778 0.594758 0.948104
P3    P     P_3+3 0.569370 0.829267 0.095084 0.942567
P4    P     P_3+3 0.570533 0.169778 0.594753 0.948079
P5    P     P_3+3 0.929304 0.670061 0.094642 0.936978
P6    P     P_3+3 0.929528 0.329926 0.593448 0.934638
P7    P     P_3+3 0.429304 0.170061 0.094642 0.936980
P8    P     P_3+3 0.429527 0.829927 0.593448 0.934633
P9    P     P_3+3 0.883430 0.556510 0.526090 0.987077
P10   P     P_3+3 0.383430 0.943490 0.026090 0.986135
P11   P     P_3+3 0.383430 0.056510 0.526090 0.987078
P12   P     P_3+3 0.116320 0.442910 0.663460 0.999142
P13   P     P_3+3 0.116320 0.557090 0.163460 0.997698
P14   P     P_3+3 0.616320 0.942910 0.663460 0.999142
P15   P     P_3+3 0.616320 0.057090 0.163460 0.997700
P16   P     P_3+3 0.069370 0.329267 0.095085 0.942558

loop_
_geom_bond_atom_site_label_1
_geom_bond_atom_site_label_2
_ccdc_geom_bond_type
C24   H100  S    
C31   C49   A    
C74   H136  S    
C104  H4    S    
C15   C16   S    
O4    P4    S    
C90   H69   S    
C72   H134  S    
Ba2   O9    S    
C88   H71   S    
Ba3   O8    S    
C5    H33   S    
C84   O22   S    
C27   C97   A    
C109  C110  S    
O24   P9    S    
C101  O44   S    
O19   P5    D    
C16   H59   S    
C50   C59   S    
C53   O56   S    
C78   C83   S    
C110  H21   S    
C10   H47   S    
C106  C107  S    
C33   H95   S    
C7    H38   S    
C87   C92   S    
C83   O52   S    
C40   C66   A    
C8    H41   S    
C70   H118  S    
C45   C50   A    
C9    H44   S    
C42   C68   A    
C77   C82   S    
C58   C97   A    
Ba2   P9    S    
C93   O27   S    
C76   H147  S    
O41   P2    D    
C72   H90   S    
C1    H84   S    
C14   H54   S    
O56   P16   S    
Ba2   O32   S    
C81   O46   S    
Ba1   P12   S    
Ba3   P10   S    
C79   O49   S    
O36   P16   S    
C94   H77   S    
C20   C24   A    
Ba4   O35   S    
C60   C62   T    
O38   P3    S    
Ba2   O6    S    
C85   O24   S    
C37   P12   S    
C38   C68   A    
C112  H26   S    
C111  H23   S    
C79   O44   S    
C78   O54   S    
C4    H31   S    
C21   C65   S    
O39   P4    S    
O16   P8    S    
C85   H46   S    
C47   H88   S    
C2    C69   A    
C106  H9    S    
C56   H127  S    
C54   H129  S    
C43   C70   A    
C83   H131  S    
C43   C48   A    
O17   P7    S    
C77   O55   S    
C54   O2    S    
Ba4   O17   S    
C4    O49   S    
C97   H111  S    
C94   H65   S    
C101  H150  S    
C34   C39   A    
C71   H89   S    
C10   H45   S    
C78   H149  S    
O5    P13   S    
C108  H15   S    
C93   H1    S    
C87   H24   S    
C75   H146  S    
C110  H20   S    
C34   H96   S    
C40   C44   A    
C58   P1    S    
Ba2   O37   S    
C105  O46   S    
C41   C67   A    
C29   P8    S    
O33   P14   D    
C75   O53   S    
C107  H12   S    
Ba3   P14   S    
C3    H27   S    
C54   C72   S    
C82   O47   S    
C101  C103  S    
C56   C74   S    
C45   H103  S    
C22   H97   S    
C53   H128  S    
C73   H91   S    
Ba2   O12   S    
C95   H76   S    
C96   H87   S    
C41   P16   S    
Ba1   O1    S    
C111  C112  S    
C33   C38   A    
O27   P6    S    
C19   C63   S    
C66   H115  S    
C36   H122  S    
C86   H13   S    
C49   C57   S    
C16   H58   S    
C59   C65   T    
C103  C104  S    
O35   P15   D    
C55   H130  S    
C72   H138  S    
C5    C6    S    
C7    H39   S    
C37   C67   A    
C108  O47   S    
Ba4   P15   S    
C8    H40   S    
C10   O51   S    
C44   C49   A    
C26   C30   A    
C75   H141  S    
C15   H56   S    
C39   P14   S    
C105  H7    S    
C17   C91   A    
C82   H120  S    
C3    C112  S    
C95   O29   S    
O54   P14   S    
C7    O50   S    
C98   H112  S    
C76   H143  S    
Ba4   O34   S    
C111  O48   S    
Ba1   O6    S    
C88   H62   S    
C106  H10   S    
C1    H80   S    
Ba3   O16   S    
C1    C93   S    
C84   H35   S    
C81   H109  S    
Ba3   Ba4   S    
C79   H98   S    
C47   C96   S    
C17   C21   A    
O13   P11   S    
Ba4   O7    S    
C4    H30   S    
O43   P4    D    
C71   H137  S    
C40   P2    S    
C101  H151  S    
O25   P10   S    
C87   O26   S    
C30   P7    S    
C13   C80   A    
C53   C71   S    
C71   H133  S    
O29   P8    S    
C16   H60   S    
C36   H82   S    
O14   P6    S    
C85   C89   S    
C74   H92   S    
C32   C50   A    
C33   C51   A    
C89   H72   S    
C93   H75   S    
C34   C52   A    
C8    C9    S    
C35   P13   S    
Ba4   P11   S    
O6    P12   S    
C28   P5    S    
C10   C11   S    
C11   H49   S    
C109  H17   S    
C9    H43   S    
C3    H29   S    
C99   H113  S    
O8    P14   S    
C73   H139  S    
C104  H5    S    
C89   H63   S    
C44   H102  S    
C17   H110  S    
O30   P7    S    
C25   C94   S    
C55   H126  S    
O18   P6    D    
C12   H51   S    
C68   H117  S    
C14   C15   S    
O40   P16   D    
C6    H36   S    
C38   P15   S    
C61   C63   T    
Ba1   O36   S    
C84   H142  S    
C48   H105  S    
C23   H99   S    
O45   P12   S    
C14   O52   S    
C32   C37   A    
C6    H37   S    
C103  H3    S    
C86   C90   S    
C86   O25   S    
C25   H85   S    
C92   H70   S    
C11   H48   S    
O32   P13   D    
C104  H6    S    
Ba2   P13   S    
O9    P1    S    
C31   C35   A    
C76   O45   S    
C76   C81   S    
C100  H114  S    
C86   H57   S    
C41   C45   A    
C108  H16   S    
Ba3   O7    S    
O22   P1    S    
C69   C98   A    
C109  H18   S    
C96   O30   S    
C2    H107  S    
C14   H53   S    
C21   C26   A    
C77   H144  S    
C5    H32   S    
C23   C28   A    
C29   C99   A    
Ba1   O31   S    
C94   O28   S    
C92   H66   S    
O20   P8    D    
O23   P10   D    
C42   P4    S    
C74   H140  S    
C90   H73   S    
Ba1   O10   S    
C105  C106  S    
C6    H34   S    
Ba2   O5    S    
C75   C79   S    
O34   P11   D    
O1    P1    D    
C46   H104  S    
Ba3   O38   S    
C20   C64   S    
C112  H25   S    
O12   P9    D    
C58   C102  A    
C18   C22   A    
Ba4   O11   S    
C47   H123  S    
O15   P5    S    
C52   C61   S    
C3    H28   S    
O55   P15   S    
C83   O48   S    
Ba3   O23   S    
C55   C73   S    
C36   C95   S    
C95   H78   S    
C43   P3    S    
C15   H55   S    
C91   P11   S    
Ba1   O14   S    
C89   H68   S    
O26   P11   S    
C92   H74   S    
C11   C12   S    
C80   P10   S    
O28   P5    S    
Ba1   Ba2   S    
C18   C62   S    
C107  H14   S    
C81   O50   S    
O21   P7    D    
O42   P3    D    
C84   C88   S    
C12   H50   S    
C4    C5    S    
C67   H116  S    
C73   H135  S    
C19   C23   A    
Ba1   O5    S    
C39   C70   A    
C22   C27   A    
O2    P2    S    
C78   H145  S    
O7    P15   S    
C25   H121  S    
C108  C109  S    
C13   C20   A    
Ba4   O8    S    
C69   P9    S    
C96   H79   S    
O31   P12   D    
C18   C102  A    
C30   C100  A    
C54   H125  S    
O53   P13   S    
C111  H22   S    
C110  H19   S    
C51   C60   S    
C55   O3    S    
C90   H64   S    
C56   O4    S    
C47   H83   S    
C26   H101  S    
C56   H132  S    
C25   H81   S    
O37   P2    S    
C107  H11   S    
C28   C98   A    
C9    H42   S    
C103  H152  S    
C91   C100  A    
O10   P9    S    
C36   H86   S    
C88   H67   S    
C24   C29   A    
C7    C8    S    
C105  H8    S    
Ba2   O15   S    
O3    P3    S    
C42   C46   A    
C46   C51   A    
C31   H93   S    
C13   H108  S    
C57   C64   T    
C82   O51   S    
C102  H106  S    
C12   H52   S    
C2    C19   A    
C87   H61   S    
C35   C66   A    
O11   P10   S    
C53   H124  S    
Ba4   O39   S    
Ba3   O13   S    
C85   H2    S    
C77   H148  S    
C1    H119  S    
C80   C99   A    
C27   P6    S    
Ba3   O33   S    
Ba1   P1    S    
C48   C52   A    
C32   H94   S    
