data_mof_unit_44928.cif
_audit_creation_date              2012-10-26T18:50:01-0400
_audit_creation_method            fapswitch 2.2
_symmetry_space_group_name_H-M    P1
_symmetry_Int_Tables_number       1
_space_group_crystal_system       triclinic
_cell_length_a                    10.767555
_cell_length_b                    13.031553
_cell_length_c                    11.738457
_cell_angle_alpha                 98.69595
_cell_angle_beta                  92.84062
_cell_angle_gamma                 91.267478
_cell_volume                      1625.44981721

loop_
_atom_site_label
_atom_site_type_symbol
_atom_type_description
_atom_site_fract_x
_atom_site_fract_y
_atom_site_fract_z
_atom_type_partial_charge
Br1   Br    Br    0.302449 0.795645 0.360124 -0.465384
Br2   Br    Br    0.527033 0.204778 0.724851 -0.358270
Br3   Br    Br    0.413713 0.950284 0.196350 -0.468528
Br4   Br    Br    0.737144 0.033685 0.731669 -0.461147
C1    C     C_R   0.497124 0.299312 0.480355 0.535643
C2    C     C_R   0.447296 0.863180 0.447017 0.145704
C3    C     C_R   0.537405 0.026575 0.547594 0.010307
C4    C     C_R   0.475628 0.969014 0.447263 0.007001
C5    C     C_R   0.370242 0.414149 0.028712 -0.155255
C6    C     C_R   0.642950 0.570300 0.968992 -0.171719
C7    C     C_R   0.385310 0.419375 0.148586 0.011938
C8    C     C_R   0.626600 0.565904 0.849126 0.008663
C9    C     C_R   0.559456 0.535950 0.154231 0.427469
C10   C     C_R   0.432974 0.474838 0.848594 0.451869
C11   C     C_R   0.552062 0.526822 0.031339 -0.021242
C12   C     C_R   0.499842 0.699946 0.520231 0.540531
C13   C     C_R   0.450772 0.471620 0.969233 -0.010820
C14   C     C_R   0.263135 0.499863 0.500895 0.531887
C15   C     C_R   0.736907 0.499969 0.499013 0.521602
C16   C     C_R   0.138654 0.685438 0.586436 -0.079419
C17   C     C_R   0.861581 0.313646 0.415785 -0.076680
C18   C     C_R   0.078348 0.776481 0.625727 -0.084564
C19   C     C_R   0.921995 0.222336 0.377588 -0.093874
C20   C     C_R   0.949270 0.776811 0.623375 -0.113218
C21   C     C_R   0.051126 0.222072 0.379476 -0.102475
C22   C     C_R   0.880077 0.686136 0.581790 -0.112380
C23   C     C_R   0.508180 0.811953 0.529633 -0.039837
C24   C     C_R   0.120314 0.313090 0.419667 -0.098131
C25   C     C_R   0.939369 0.592602 0.541418 0.010336
C26   C     C_R   0.060852 0.407016 0.458491 -0.003211
C27   C     C_R   0.070153 0.592242 0.543841 0.003670
C28   C     C_R   0.930020 0.407295 0.456473 0.008636
C29   C     C_R   0.870736 0.500240 0.497464 -0.002616
C30   C     C_R   0.129390 0.499539 0.502118 -0.016196
C31   C     C_3   0.222382 0.488285 0.817809 -0.019367
C32   C     C_3   0.104580 0.422466 0.781263 -0.345457
C33   C     C_3   0.629361 0.703044 0.219945 0.005126
C34   C     C_R   0.494545 0.185901 0.471470 -0.045289
C35   C     C_3   0.722646 0.767929 0.304320 -0.338426
C36   C     C_R   0.445839 0.020008 0.351997 0.179718
C37   C     C_R   0.603033 0.972973 0.626532 0.187126
C38   C     C_R   0.459533 0.127188 0.364325 -0.149570
C39   C     C_R   0.588409 0.866273 0.615867 -0.148025
C40   C     C_R   0.528597 0.135019 0.566274 0.181383
Cu1   Cu    Cu3+1 0.509250 0.507730 0.615930 1.021769
Cu2   Cu    Cu3+1 0.490750 0.492270 0.384070 1.019248
H1    H     H_    0.097996 0.150949 0.350386 0.147844
H2    H     H_    0.220522 0.308527 0.421109 0.127282
H3    H     H_    0.641628 0.825241 0.674555 0.149867
H4    H     H_    0.438624 0.164860 0.289711 0.174890
H5    H     H_    0.697569 0.600050 0.803344 0.138599
H6    H     H_    0.322259 0.375373 0.193040 0.138750
H7    H     H_    0.221280 0.557588 0.773256 0.159254
H8    H     H_    0.218973 0.517502 0.911645 0.109666
H9    H     H_    0.096497 0.360410 0.835948 0.166855
H10   H     H_    0.021775 0.471746 0.791036 0.114214
H11   H     H_    0.107278 0.385589 0.689994 0.182853
H12   H     H_    0.902514 0.847626 0.653517 0.163945
H13   H     H_    0.533760 0.721859 0.245854 0.207808
H14   H     H_    0.639357 0.727442 0.134359 0.132552
H15   H     H_    0.818340 0.755804 0.274738 0.172985
H16   H     H_    0.701610 0.851543 0.309896 0.129842
H17   H     H_    0.718065 0.745164 0.391250 0.157790
H18   H     H_    0.295498 0.365204 0.983216 0.156065
H19   H     H_    0.727895 0.606143 0.011678 0.141507
H20   H     H_    0.239144 0.689312 0.589366 0.146273
H21   H     H_    0.761094 0.309603 0.413782 0.133049
H22   H     H_    0.132044 0.847084 0.657711 0.151254
H23   H     H_    0.868342 0.151418 0.346986 0.135863
H24   H     H_    0.779972 0.690454 0.580917 0.110772
N1    N     N_R   0.523180 0.519350 0.790130 -0.214988
N2    N     N_R   0.476820 0.480650 0.209870 -0.215487
O1    O     O_R   0.506570 0.354460 0.582000 -0.418046
O2    O     O_3   0.653233 0.596326 0.218631 -0.534807
O3    O     O_R   0.493430 0.645540 0.418000 -0.461304
O4    O     O_R   0.490940 0.341410 0.386200 -0.538441
O5    O     O_R   0.509060 0.658590 0.613800 -0.529010
O6    O     O_R   0.327470 0.506520 0.597900 -0.483017
O7    O     O_R   0.672530 0.493480 0.402100 -0.451730
O8    O     O_R   0.311840 0.493460 0.402100 -0.498817
O9    O     O_R   0.688160 0.506540 0.597900 -0.524853
O10   O     O_3   0.327760 0.427873 0.788574 -0.507808

loop_
_geom_bond_atom_site_label_1
_geom_bond_atom_site_label_2
_ccdc_geom_bond_type
Cu2   O8    S    
C33   O2    S    
C31   H7    S    
C5    H18   S    
C10   N1    A    
C19   H23   S    
C31   C32   S    
Cu2   O4    S    
C3    C4    A    
Cu1   Cu2   S    
C21   C24   A    
C16   H20   S    
C20   C22   A    
C34   C38   A    
C6    C11   A    
Cu2   O7    S    
Cu1   N1    S    
Br4   C37   S    
C12   O3    A    
C25   C29   A    
Cu1   O1    S    
C12   O5    A    
C7    H6    S    
Br2   C40   S    
Cu1   O6    S    
C21   H1    S    
Cu2   N2    S    
C12   C23   S    
C36   C38   A    
C1    C34   S    
C17   H21   S    
C31   H8    S    
C25   C27   A    
C37   C39   A    
C10   C13   A    
Cu2   O3    S    
C31   O10   S    
C17   C19   A    
C35   H15   S    
C17   C28   A    
C26   C30   A    
Br1   C2    S    
C32   H11   S    
C15   C29   S    
C7    N2    A    
C39   H3    S    
C2    C4    A    
C34   C40   A    
C32   H10   S    
C5    C7    A    
C2    C23   A    
C14   O6    A    
C27   C30   A    
C3    C40   A    
C15   O7    A    
C14   C30   S    
C18   H22   S    
C33   H13   S    
C6    C8    A    
C38   H4    S    
C20   H12   S    
C8    N1    A    
C16   C18   A    
Br3   C36   S    
C9    C11   A    
C22   H24   S    
C18   C20   A    
C10   O10   S    
C8    H5    S    
C6    H19   S    
C5    C13   A    
C11   C13   A    
C35   H16   S    
C24   H2    S    
Cu1   O9    S    
C9    N2    A    
C35   H17   S    
C28   C29   A    
C1    O4    A    
C24   C26   A    
C33   C35   S    
C32   H9    S    
C26   C28   A    
C3    C37   A    
C1    O1    A    
C33   H14   S    
C23   C39   A    
C19   C21   A    
C9    O2    S    
C22   C25   A    
C14   O8    A    
Cu1   O5    S    
C4    C36   A    
C15   O9    A    
C16   C27   A    
