data_mof_unit_41138.cif
_audit_creation_date              2012-12-10T18:04:02-0500
_audit_creation_method            fapswitch 2.2
_symmetry_space_group_name_H-M    P1
_symmetry_Int_Tables_number       1
_space_group_crystal_system       triclinic
_cell_length_a                    10.831781
_cell_length_b                    9.585385
_cell_length_c                    10.884421
_cell_angle_alpha                 90.000146
_cell_angle_beta                  91.954301
_cell_angle_gamma                 89.9992
_cell_volume                      1129.43718029

loop_
_atom_site_label
_atom_site_type_symbol
_atom_type_description
_atom_site_fract_x
_atom_site_fract_y
_atom_site_fract_z
_atom_type_partial_charge
C1    C     C_R   0.262268 0.500032 0.500074 0.792742
C2    C     C_R   0.737732 0.500031 0.499928 0.792733
C3    C     C_R   0.408368 0.072420 0.437753 0.095029
C4    C     C_R   0.591628 0.072418 0.562256 0.095049
C5    C     C_R   0.408431 0.924298 0.440413 -0.009343
C6    C     C_R   0.591566 0.924295 0.559592 -0.009359
C7    C     C_R   0.497589 0.499779 0.262721 0.796186
C8    C     C_R   0.502408 0.499779 0.737279 0.796176
C9    C     C_R   0.494723 0.619749 0.061582 0.032913
C10   C     C_R   0.505307 0.619747 0.938420 0.032982
C11   C     C_R   0.495468 0.497672 0.129912 -0.097387
C12   C     C_R   0.504507 0.497672 0.870088 -0.097362
C13   C     C_R   0.498431 0.370451 0.064471 -0.193338
C14   C     C_R   0.501469 0.370451 0.935525 -0.193316
C15   C     C_3   0.507576 0.775004 0.929577 0.050409
C16   C     C_3   0.492616 0.775005 0.070445 0.050525
C17   C     C_R   0.063832 0.373729 0.500693 -0.147822
C18   C     C_R   0.936172 0.373727 0.499348 -0.147857
C19   C     C_R   0.871679 0.500325 0.499698 -0.048765
C20   C     C_R   0.128321 0.500327 0.500307 -0.048774
C21   C     C_R   0.936100 0.627150 0.500036 -0.159784
C22   C     C_R   0.063898 0.627151 0.499938 -0.159790
Cu1   Cu    Cu3+1 0.500000 0.640660 0.500000 0.936859
Cu2   Cu    Cu3+1 0.500000 0.359340 0.500000 0.927746
H1    H     H_    0.498520 0.271336 0.112118 0.152384
H2    H     H_    0.501337 0.271334 0.887879 0.152357
H3    H     H_    0.429309 0.817691 0.872239 0.163663
H4    H     H_    0.570925 0.817574 0.127795 0.163648
H5    H     H_    0.111623 0.274639 0.502127 0.197138
H6    H     H_    0.888383 0.274635 0.497945 0.197109
H7    H     H_    0.888079 0.726285 0.500208 0.170987
H8    H     H_    0.111917 0.726285 0.499741 0.170993
H9    H     H_    0.335946 0.866361 0.392488 0.161220
H10   H     H_    0.664050 0.866356 0.607518 0.161236
N1    N     N_R   0.500000 0.852070 0.500000 -0.206202
N2    N     N_R   0.500000 0.147940 0.500000 -0.245956
O1    O     O_R   0.319640 0.618740 0.499990 -0.589106
O2    O     O_R   0.680360 0.618740 0.500010 -0.589115
O3    O     O_R   0.319620 0.381170 0.499990 -0.601595
O4    O     O_R   0.680380 0.381170 0.500010 -0.601611
O5    O     O_R   0.499990 0.618810 0.319660 -0.586984
O6    O     O_R   0.500010 0.618810 0.680340 -0.586980
O7    O     O_R   0.499960 0.381240 0.319650 -0.609566
O8    O     O_R   0.500040 0.381240 0.680350 -0.609577
N3    N     N_2   0.627807 0.826122 0.896304 -0.421600
H11   H     H_    0.657495 0.786220 0.814511 0.269706
C23   C     C_3   0.642348 0.975744 0.905418 -0.673427
H12   H     H_    0.737952 0.004817 0.882345 0.266455
H13   H     H_    0.626630 0.011970 0.000482 0.229526
H14   H     H_    0.575829 0.028633 0.841061 0.200686
N4    N     N_2   0.372435 0.826284 0.103713 -0.421525
H15   H     H_    0.342651 0.786349 0.185459 0.269712
C24   C     C_3   0.358091 0.975936 0.094704 -0.673682
H16   H     H_    0.262481 0.005118 0.117676 0.266380
H17   H     H_    0.373987 0.012253 0.999694 0.229509
H18   H     H_    0.424596 0.028656 0.159196 0.200686
C25   C     C_2   0.308476 0.140477 0.363782 0.309988
H19   H     H_    0.322413 0.239069 0.318938 0.134097
O9    O     O_2   0.207921 0.084068 0.349166 -0.590508
C26   C     C_2   0.691510 0.140472 0.636245 0.309898
H20   H     H_    0.677570 0.239093 0.681052 0.134135
O10   O     O_2   0.792054 0.084024 0.650928 -0.590530

loop_
_geom_bond_atom_site_label_1
_geom_bond_atom_site_label_2
_ccdc_geom_bond_type
C16   H4    S    
C8    O8    A    
Cu1   Cu2   S    
C4    N2    A    
C18   H6    S    
C7    O7    A    
Cu1   O2    S    
C17   H5    S    
C9    C10   A    
C2    O2    A    
C15   H3    S    
C23   H12   S    
Cu1   O5    S    
C16   N4    S    
C1    O1    A    
C8    C12   S    
C6    H10   S    
C4    C26   S    
C7    O5    A    
C17   C18   A    
C20   C22   A    
C23   H13   S    
Cu1   O1    S    
N3    H11   S    
C14   H2    S    
C24   H18   S    
C7    C11   S    
C21   H7    S    
C13   H1    S    
C25   H19   S    
Cu2   N2    S    
Cu1   O6    S    
C22   H8    S    
C3    N2    A    
C10   C12   A    
C21   C22   A    
C19   C21   A    
C9    C16   S    
C12   C14   A    
C3    C25   S    
C23   H14   S    
Cu1   N1    S    
C10   C15   S    
C24   H17   S    
Cu2   O8    S    
C25   O9    D    
C4    C6    A    
C1    O3    A    
N4    C24   S    
N4    H15   S    
C2    O4    A    
C11   C13   A    
C17   C20   A    
C6    N1    A    
C26   O10   D    
C18   C19   A    
C5    N1    A    
N3    C23   S    
Cu2   O7    S    
C9    C11   A    
C1    C20   S    
C13   C14   A    
Cu2   O4    S    
C2    C19   S    
C24   H16   S    
Cu2   O3    S    
C15   C16   S    
C8    O6    A    
C26   H20   S    
C3    C5    A    
C15   N3    S    
C5    H9    S    
