data_mof_unit_15719.cif
_audit_creation_date              2013-03-05T15:58:17-0500
_audit_creation_method            fapswitch 2.2
_symmetry_space_group_name_H-M    P1
_symmetry_Int_Tables_number       1
_space_group_crystal_system       triclinic
_cell_length_a                    14.949807
_cell_length_b                    15.073871
_cell_length_c                    15.174837
_cell_angle_alpha                 111.258831
_cell_angle_beta                  108.300419
_cell_angle_gamma                 108.779506
_cell_volume                      2633.36657466

loop_
_atom_site_label
_atom_site_type_symbol
_atom_site_description
_atom_site_fract_x
_atom_site_fract_y
_atom_site_fract_z
_atom_type_partial_charge
C1    C     C_R   0.972185 0.248278 0.059945 -0.081768
C2    C     C_R   0.084849 0.801141 0.000160 -0.012043
H1    H     H_    0.935334 0.235746 0.107931 0.114869
H2    H     H_    0.140355 0.827766 0.971973 0.140958
N1    N     N_R   0.947560 0.293820 0.002910 -0.039940
N2    N     N_R   0.052440 0.706180 0.997090 -0.051391
C3    C     C_R   0.313414 0.751279 0.223190 -0.040504
C4    C     C_R   0.692573 0.208356 0.781888 -0.079132
H3    H     H_    0.379928 0.772697 0.206665 0.150998
H4    H     H_    0.635184 0.175441 0.805382 0.183262
N3    N     N_R   0.208960 0.706170 0.152110 -0.033295
N4    N     N_R   0.791040 0.293830 0.847890 -0.046371
C5    C     C_R   0.208915 0.410718 0.899015 -0.200276
C6    C     C_R   0.774124 0.591796 0.045941 -0.178529
H5    H     H_    0.183880 0.326516 0.844860 0.153046
H6    H     H_    0.792928 0.676210 0.081446 0.133458
N5    N     N_R   0.154330 0.443160 0.946140 -0.059265
N6    N     N_R   0.845670 0.556840 0.053860 -0.052147
C7    C     C_R   0.998913 0.592827 0.300741 -0.152095
C8    C     C_R   0.986886 0.406300 0.692745 -0.120559
H7    H     H_    0.029672 0.677312 0.358236 0.154299
H8    H     H_    0.950961 0.321334 0.631923 0.154468
N7    N     N_R   0.002190 0.556820 0.208880 -0.052082
N8    N     N_R   0.997810 0.443180 0.791120 -0.050122
C9    C     C_R   0.294749 0.592273 0.988262 0.267257
C10   C     C_R   0.686000 0.407979 0.967245 0.292694
N9    N     N_R   0.210550 0.556810 0.002910 -0.071524
N10   N     N_R   0.789450 0.443190 0.997090 -0.060424
C11   C     C_R   0.911268 0.410983 0.211657 -0.079767
C12   C     C_R   0.076883 0.590038 0.784015 -0.039147
H9    H     H_    0.860851 0.327251 0.186753 0.146464
H10   H     H_    0.121874 0.674253 0.807101 0.172104
N11   N     N_R   0.945970 0.443180 0.152110 -0.048931
N12   N     N_R   0.054030 0.556820 0.847890 -0.049446
C13   C     C_R   0.217317 0.736465 0.308854 -0.126416
C14   C     C_R   0.783483 0.212362 0.689126 -0.122980
N13   N     N_R   0.151530 0.706170 0.208880 -0.045684
N14   N     N_R   0.848470 0.293830 0.791120 -0.049405
C15   C     C_R   0.067122 0.250406 0.971020 -0.144053
C16   C     C_R   0.995228 0.800302 0.093152 -0.150603
N15   N     N_R   0.004980 0.293810 0.946140 -0.044186
N16   N     N_R   0.995020 0.706190 0.053860 -0.046633
C17   C     C_R   0.049390 0.221260 0.043803 0.048989
C18   C     C_R   0.050366 0.862692 0.061021 0.064942
C19   C     C_R   0.320129 0.773937 0.323017 0.014285
C20   C     C_R   0.686021 0.157640 0.682747 0.041077
C21   C     C_R   0.295297 0.502692 0.922690 -0.002983
C22   C     C_R   0.673555 0.499218 0.989058 -0.038136
C23   C     C_R   0.945521 0.503717 0.305725 0.060522
C24   C     C_R   0.034649 0.496798 0.686570 0.032596
H11   H     H_    0.361101 0.143308 0.832966 0.168681
H12   H     H_    0.675680 0.841970 0.169506 0.141998
C25   C     C_R   0.157777 0.033929 0.076744 -0.107220
C26   C     C_R   0.047725 0.129991 0.147670 -0.129514
C27   C     C_R   0.213799 0.051335 0.825037 -0.069466
C28   C     C_R   0.840482 0.970604 0.256107 -0.072488
Ni1   Ni    Ni4+2 0.869690 0.369690 0.000000 0.269749
Ni2   Ni    Ni4+2 0.130310 0.630310 0.000000 0.272973
Ni3   Ni    Ni4+2 0.001390 0.369680 0.869810 0.223841
Ni4   Ni    Ni4+2 0.998610 0.630320 0.130190 0.218672
C29   C     C_R   0.156454 0.042042 0.880889 0.298284
C30   C     C_R   0.932757 0.021921 0.249815 0.351712
H13   H     H_    0.455128 0.193756 0.139325 0.152856
H14   H     H_    0.524281 0.712344 0.809202 0.136199
C31   C     C_R   0.590838 0.358167 0.240311 -0.091872
C32   C     C_R   0.367526 0.569250 0.694758 -0.110106
H15   H     H_    0.541971 0.396749 0.228455 0.111862
H16   H     H_    0.399282 0.513455 0.681108 0.132229
C33   C     C_R   0.702792 0.422609 0.308883 -0.132110
C34   C     C_R   0.256172 0.529092 0.638881 -0.151895
C35   C     C_R   0.765935 0.373060 0.327474 -0.012579
C36   C     C_R   0.214587 0.601355 0.651123 -0.016595
C37   C     C_R   0.716257 0.257969 0.273061 0.311150
C38   C     C_R   0.286168 0.714562 0.722049 0.332435
C39   C     C_R   0.604522 0.194242 0.204117 -0.080464
C40   C     C_R   0.397367 0.753827 0.780205 -0.052244
C41   C     C_R   0.541805 0.244183 0.189505 -0.082417
C42   C     C_R   0.438022 0.681380 0.766025 -0.105605
C43   C     C_R   0.907228 0.437649 0.507479 -0.141656
C44   C     C_R   0.071521 0.566035 0.486879 -0.137690
H17   H     H_    0.843411 0.390412 0.517800 0.142072
H18   H     H_    0.135909 0.611537 0.476099 0.134031
C45   C     C_R   0.015261 0.494534 0.588040 0.072066
C46   C     C_R   0.963232 0.507912 0.405153 0.069821
C47   C     C_R   0.098896 0.557508 0.577833 0.082788
C48   C     C_R   0.880313 0.441182 0.413724 0.068602
H19   H     H_    0.407233 0.438287 0.042205 0.123806
H20   H     H_    0.564701 0.573423 0.848941 0.119813
H21   H     H_    0.331263 0.289383 0.115762 0.142824
H22   H     H_    0.833542 0.855409 0.979043 0.159815
C49   C     C_R   0.197095 0.130046 0.985817 -0.008181
C50   C     C_R   0.933001 0.976562 0.150418 -0.060608
C51   C     C_R   0.356289 0.227503 0.979406 -0.133288
C52   C     C_R   0.744765 0.839213 0.064050 -0.113167
H23   H     H_    0.019204 0.938902 0.373637 0.183661
H24   H     H_    0.014864 0.070264 0.750557 0.160140
C53   C     C_R   0.163377 0.985796 0.359174 -0.209224
C54   C     C_R   0.859538 0.003322 0.741413 -0.163768
H25   H     H_    0.134665 0.009975 0.302508 0.181719
H26   H     H_    0.891820 0.009549 0.819298 0.189745
C55   C     C_R   0.263522 0.990426 0.387893 0.370339
C56   C     C_R   0.749672 0.967878 0.683121 0.351307
C57   C     C_R   0.301307 0.958777 0.461975 -0.037661
C58   C     C_R   0.709045 0.965626 0.584447 -0.022583
C59   C     C_R   0.239770 0.927265 0.509739 -0.327608
C60   C     C_R   0.778005 0.991523 0.541944 -0.319354
H27   H     H_    0.268419 0.902820 0.566970 0.199793
H28   H     H_    0.748413 0.993320 0.467988 0.172297
C61   C     C_R   0.136964 0.917983 0.476055 0.407457
C62   C     C_R   0.888509 0.029800 0.602713 0.426244
C63   C     C_R   0.099030 0.947179 0.400699 -0.151977
C64   C     C_R   0.928977 0.036513 0.702374 -0.150045
C65   C     C_R   0.495479 0.049643 0.569722 -0.173761
C66   C     C_R   0.512309 0.868348 0.453473 -0.208483
C67   C     C_R   0.595119 0.055415 0.594268 0.072673
C68   C     C_R   0.412056 0.864576 0.424752 0.081147
C69   C     C_R   0.604731 0.963504 0.541315 0.110702
C70   C     C_R   0.403159 0.954703 0.487052 0.116724
C71   C     C_R   0.314575 0.142059 0.874859 -0.089632
C72   C     C_R   0.746973 0.879384 0.163746 -0.143761
C73   C     C_R   0.026662 0.029589 0.138104 0.052914
C74   C     C_R   0.150963 0.113694 0.054482 0.064173
H29   H     H_    0.209583 0.003302 0.057690 0.149070
H30   H     H_    0.010967 0.171053 0.184531 0.162451
C75   C     C_R   0.296367 0.223640 0.033508 -0.248346
C76   C     C_R   0.836982 0.887346 0.057250 -0.138022
C77   C     C_R   0.080081 0.977395 0.096636 0.053435
C78   C     C_R   0.090498 0.160858 0.087065 0.025034
C79   C     C_3   0.461555 0.399737 0.906256 -0.125001
C80   C     C_3   0.504746 0.607415 0.979845 -0.149559
C81   C     C_3   0.412672 0.441734 0.836215 -0.146924
C82   C     C_3   0.553401 0.565462 0.050147 -0.160653
H31   H     H_    0.441121 0.313561 0.867533 0.154584
H32   H     H_    0.521878 0.692499 0.007971 0.166202
C83   C     C_3   0.393854 0.506440 0.925519 0.216895
C84   C     C_3   0.572412 0.500127 0.961383 0.214921
C85   C     C_3   0.442296 0.465043 0.995951 -0.169128
C86   C     C_3   0.526038 0.542371 0.890872 -0.189723
H33   H     H_    0.183422 0.985351 0.745171 0.229517
H34   H     H_    0.839573 0.003720 0.331819 0.196109
H35   H     H_    0.437326 0.294749 0.020984 0.173686
H36   H     H_    0.671886 0.771169 0.991424 0.119991
H37   H     H_    0.739580 0.510920 0.350764 0.149765
H38   H     H_    0.202714 0.442020 0.582561 0.179527
Br1   Br    Br    0.797975 0.185010 0.291756 -0.578677
Br2   Br    Br    0.235780 0.817759 0.739927 -0.562762
H39   H     H_    0.565887 0.105890 0.163355 0.173153
H40   H     H_    0.452597 0.840752 0.834939 0.178354
Br3   Br    Br    0.029110 0.903552 0.813783 -0.551675
Br4   Br    Br    0.053023 0.156804 0.376692 -0.528285
Br5   Br    Br    0.344329 0.036984 0.321772 -0.575582
Br6   Br    Br    0.659673 0.931679 0.745112 -0.576768
Br7   Br    Br    0.043701 0.857293 0.524920 -0.536933
Br8   Br    Br    0.987743 0.088075 0.558889 -0.561075
H41   H     H_    0.489847 0.120842 0.614062 0.143097
H42   H     H_    0.518069 0.797940 0.407913 0.136175
H43   H     H_    0.352281 0.390548 0.748620 0.145891
H44   H     H_    0.612576 0.615523 0.138156 0.131368
Br9   Br    Br    0.354747 0.731856 0.000086 -0.636402
Br10  Br    Br    0.602409 0.280847 0.966053 -0.670077
H45   H     H_    0.194817 0.739004 0.369908 0.118687
H46   H     H_    0.807713 0.189944 0.628263 0.125798
H47   H     H_    0.120643 0.242575 0.938996 0.122307
H48   H     H_    0.973478 0.826878 0.155408 0.110835

loop_
_geom_bond_atom_site_label_1
_geom_bond_atom_site_label_2
_geom_bond_distance
_ccdc_geom_bond_type
C32   H16   1.080808 S    
C18   C77   1.468338 S    
C67   C69   1.406857 A    
C37   C39   1.395770 A    
C6    N6    1.328231 A    
C7    N7    1.323451 A    
C80   C83   1.533579 S    
C30   Br4   1.925400 S    
C44   C46   1.401604 A    
C58   C60   1.404368 A    
C36   C47   1.479216 S    
C15   N15   1.335609 A    
H21   C75   1.083246 S    
N10   Ni1   1.877858 S    
C3    N3    1.338284 A    
H24   C64   1.078037 S    
C13   H45   1.072976 S    
C38   C40   1.399680 A    
C20   C67   1.424609 S    
C1    N1    1.322644 A    
C3    C19   1.388797 A    
C23   C46   1.421171 S    
C7    H7    1.076928 S    
C40   C42   1.395483 A    
C73   C77   1.419107 A    
C81   C83   1.524654 S    
C25   C74   1.386363 A    
C61   C63   1.393308 A    
C60   C62   1.398643 A    
C53   C63   1.395509 A    
C35   C48   1.476736 S    
C11   N11   1.330989 A    
C35   C37   1.410549 A    
C27   H33   1.074125 S    
N3    N13   1.394189 A    
C33   C35   1.402879 A    
N2    Ni2   1.877944 S    
C8    C24   1.373721 A    
C34   H38   1.083547 S    
C25   C77   1.391362 A    
C52   C72   1.395701 A    
C1    C17   1.402113 A    
C8    N8    1.323213 A    
C2    C18   1.401824 A    
N7    N11   1.389635 A    
C49   C74   1.466357 S    
C81   H43   1.109686 S    
C9    Br9   1.916716 S    
H11   C71   1.079927 S    
C10   Br10  1.911344 S    
C4    N4    1.321849 A    
N3    Ni2   1.879880 S    
C61   Br7   1.910677 S    
C9    C21   1.360682 A    
C10   C22   1.381651 A    
C21   C83   1.442530 S    
N14   Ni3   1.890015 S    
C60   H28   1.083463 S    
C16   N16   1.323115 A    
C12   C24   1.376895 A    
C55   C57   1.405034 A    
C14   H46   1.077502 S    
C28   C72   1.394182 A    
C80   H32   1.102535 S    
C65   H41   1.087093 S    
C66   H42   1.084408 S    
C10   N10   1.317561 A    
C53   H25   1.073633 S    
C38   Br2   1.907261 S    
C24   C45   1.416051 S    
C26   H30   1.076547 S    
C52   C76   1.391861 A    
N7    Ni4   1.900970 S    
C32   C42   1.396038 A    
C54   C64   1.394870 A    
C12   N12   1.325421 A    
N5    N9    1.389759 A    
N6    N10   1.389758 A    
N15   Ni3   1.900941 S    
C36   C38   1.408770 A    
C25   H29   1.081947 S    
N16   Ni4   1.900941 S    
C43   H17   1.085852 S    
C15   C17   1.394238 A    
C31   H15   1.082222 S    
C82   C85   1.532039 S    
C54   C56   1.394808 A    
C26   C78   1.399742 A    
C55   Br5   1.919545 S    
N8    N12   1.389634 A    
C2    N2    1.332973 A    
C30   C50   1.414141 A    
C1    H1    1.074290 S    
C52   H36   1.077214 S    
C80   C82   1.537919 S    
C44   C47   1.377229 A    
C62   Br8   1.902339 S    
C79   C84   1.527408 S    
C59   H27   1.083299 S    
C7    C23   1.366889 A    
C28   H34   1.080574 S    
C16   C18   1.373852 A    
C82   C84   1.524368 S    
H22   C76   1.083632 S    
C57   C59   1.408687 A    
C11   C23   1.373670 A    
C56   C58   1.410986 A    
C39   C41   1.392822 A    
H20   C86   1.109411 S    
N5    Ni3   1.890011 S    
C79   H31   1.097402 S    
N4    Ni1   1.879881 S    
H12   C72   1.081164 S    
C44   H18   1.085794 S    
C45   C47   1.397301 A    
C26   C73   1.384149 A    
C8    H8    1.081330 S    
C54   H26   1.082018 S    
C5    H5    1.082132 S    
C28   C30   1.399887 A    
C57   C70   1.476596 S    
C33   H37   1.083544 S    
C15   H47   1.074105 S    
C80   C86   1.548038 S    
N4    N14   1.394191 A    
C51   H35   1.076472 S    
C84   C86   1.530854 S    
C5    C21   1.383324 A    
C58   C69   1.474130 S    
H13   C41   1.078499 S    
N6    Ni4   1.890008 S    
C83   C85   1.531232 S    
N1    N15   1.394065 A    
N11   Ni1   1.880141 S    
C49   C75   1.397751 A    
C13   N13   1.322416 A    
H14   C42   1.081764 S    
C22   C84   1.442796 S    
C46   C48   1.399524 A    
N9    Ni2   1.877860 S    
C50   C76   1.404202 A    
C17   C78   1.475806 S    
C66   C68   1.398719 A    
C16   H48   1.077514 S    
N1    Ni1   1.877945 S    
C9    N9    1.322226 A    
C51   C71   1.394445 A    
C31   C41   1.399091 A    
C5    N5    1.336501 A    
C39   H39   1.083012 S    
C14   N14   1.325395 A    
C11   H9    1.080144 S    
C81   C86   1.552735 S    
H23   C63   1.080547 S    
C50   C73   1.478661 S    
C12   H10   1.080012 S    
C14   C20   1.375659 A    
C19   C68   1.438009 S    
C32   C34   1.396137 A    
C59   C61   1.399761 A    
N8    Ni3   1.900971 S    
C31   C33   1.397897 A    
C2    H2    1.079625 S    
C27   C29   1.392125 A    
C68   C70   1.421640 A    
C51   C75   1.393872 A    
C6    H6    1.079750 S    
C74   C78   1.416534 A    
C62   C64   1.392285 A    
N13   Ni4   1.890017 S    
C65   C70   1.365935 A    
C43   C45   1.395153 A    
C3    H3    1.079121 S    
C27   C71   1.385623 A    
C79   C85   1.536724 S    
C40   H40   1.082604 S    
C4    H4    1.075008 S    
N2    N16   1.394066 A    
C37   Br1   1.912102 S    
N12   Ni2   1.880143 S    
C6    C22   1.383320 A    
C34   C36   1.403333 A    
C66   C69   1.387146 A    
C4    C20   1.372085 A    
C79   C81   1.537048 S    
H19   C85   1.109211 S    
C29   Br3   1.923909 S    
C43   C48   1.377710 A    
C53   C55   1.391827 A    
C29   C49   1.416345 A    
C56   Br6   1.920260 S    
C82   H44   1.110442 S    
C65   C67   1.381962 A    
C13   C19   1.368654 A    
