data_mof_unit_28078.cif
_audit_creation_date              2013-03-05T15:47:15-0500
_audit_creation_method            fapswitch 2.2
_symmetry_space_group_name_H-M    P1
_symmetry_Int_Tables_number       1
_space_group_crystal_system       triclinic
_cell_length_a                    27.692503
_cell_length_b                    11.038556
_cell_length_c                    9.87829
_cell_angle_alpha                 111.234429
_cell_angle_beta                  98.63848
_cell_angle_gamma                 91.05706
_cell_volume                      2773.99434122

loop_
_atom_site_label
_atom_site_type_symbol
_atom_site_description
_atom_site_fract_x
_atom_site_fract_y
_atom_site_fract_z
_atom_type_partial_charge
O1    O     O_R   0.504520 0.332330 0.577400 -0.579673
O2    O     O_R   0.495480 0.667670 0.422600 -0.587413
O3    O     O_R   0.490210 0.295500 0.332650 -0.554205
O4    O     O_R   0.509790 0.704500 0.667350 -0.548834
C1    C     C_R   0.496516 0.254120 0.440558 0.895361
C2    C     C_R   0.503837 0.745889 0.559443 0.922054
O5    O     O_R   0.437420 0.518430 0.622370 -0.562466
O6    O     O_R   0.562580 0.481570 0.377630 -0.576912
O7    O     O_R   0.423110 0.481600 0.377610 -0.537736
O8    O     O_R   0.576890 0.518400 0.622390 -0.517397
C3    C     C_R   0.407599 0.495809 0.499702 0.916065
C4    C     C_R   0.592367 0.501277 0.499580 0.903791
Cu1   Cu    Cu3+1 0.508480 0.521810 0.644910 1.131581
Cu2   Cu    Cu3+1 0.491520 0.478190 0.355090 1.116145
C5    C     C_R   0.170016 0.371003 0.397001 0.593700
C6    C     C_R   0.828838 0.622981 0.580232 0.592613
O9    O     O_2   0.188092 0.280704 0.287187 -0.478272
O10   O     O_2   0.811388 0.710180 0.693994 -0.481420
N1    N     N_R   0.201129 0.470946 0.498447 -0.451208
N2    N     N_R   0.797464 0.524441 0.477201 -0.449695
C7    C     C_R   0.184678 0.567635 0.609301 0.597764
C8    C     C_R   0.813677 0.430300 0.363219 0.595955
C9    C     C_R   0.275659 0.578017 0.470205 -0.120950
C10   C     C_R   0.723214 0.410142 0.497837 -0.118251
C11   C     C_R   0.326491 0.588234 0.476222 0.269552
C12   C     C_R   0.672980 0.402153 0.502811 0.258579
C13   C     C_R   0.330958 0.380658 0.514248 0.259173
C14   C     C_R   0.668670 0.620470 0.491935 0.264815
C15   C     C_R   0.280219 0.374969 0.510512 -0.103461
C16   C     C_R   0.718809 0.624725 0.486331 -0.100388
C17   C     C_R   0.252626 0.473689 0.490742 0.204105
C18   C     C_R   0.746159 0.520045 0.488104 0.200315
C19   C     C_R   0.101256 0.472257 0.507648 -0.046899
C20   C     C_R   0.897211 0.524748 0.465432 -0.047983
C21   C     C_R   0.119317 0.365274 0.403748 -0.090241
C22   C     C_R   0.879267 0.630301 0.571308 -0.092252
C23   C     C_R   0.086407 0.255730 0.314024 -0.102520
C24   C     C_R   0.912038 0.739996 0.661285 -0.098121
C25   C     C_R   0.134352 0.569427 0.618897 -0.082559
C26   C     C_R   0.864040 0.428460 0.353392 -0.082190
C27   C     C_R   0.354631 0.489621 0.500084 -0.249746
C28   C     C_R   0.645264 0.508008 0.498921 -0.247123
H1    H     H_    0.262044 0.294165 0.525632 0.207239
H2    H     H_    0.736605 0.709265 0.477754 0.208943
C29   C     C_R   0.966207 0.403134 0.374190 0.063439
C30   C     C_R   0.032252 0.594810 0.597588 0.054422
C31   C     C_R   0.981461 0.615231 0.578253 -0.007621
C32   C     C_R   0.016966 0.382211 0.394088 -0.000562
C33   C     C_R   0.948416 0.514288 0.473119 0.081040
C34   C     C_R   0.050043 0.483184 0.499195 0.081568
C35   C     C_R   0.933228 0.322307 0.249713 -0.199415
C36   C     C_R   0.065220 0.676368 0.721608 -0.190855
C37   C     C_R   0.882789 0.333397 0.237577 -0.013057
C38   C     C_R   0.115632 0.665242 0.733994 -0.014820
O11   O     O_2   0.781097 0.336710 0.262967 -0.474913
O12   O     O_2   0.217014 0.663762 0.706555 -0.475689
C39   C     C_R   0.035616 0.260822 0.319478 -0.127188
C40   C     C_R   0.962653 0.736135 0.653847 -0.112869
H3    H     H_    0.744814 0.330233 0.501521 0.202073
H4    H     H_    0.253887 0.653775 0.454222 0.200575
H5    H     H_    0.946648 0.252789 0.156947 0.171521
H6    H     H_    0.051809 0.746225 0.814134 0.178664
H7    H     H_    0.493197 0.864283 0.368941 0.189322
H8    H     H_    0.508195 0.135807 0.631083 0.192888
C41   C     C_2   0.494762 0.114589 0.407167 -0.225313
C42   C     C_2   0.506046 0.885459 0.592857 -0.202866
C43   C     C_2   0.501470 0.069657 0.516387 -0.063601
C44   C     C_2   0.499787 0.930425 0.483640 -0.071820
H9    H     H_    0.512634 0.951864 0.707365 0.166149
H10   H     H_    0.488025 0.048164 0.292667 0.168461
H11   H     H_    0.467892 0.417806 0.844758 0.195018
H12   H     H_    0.532527 0.581299 0.155420 0.192446
N3    N     N_2   0.478780 0.445430 0.137360 -0.085433
N4    N     N_2   0.521220 0.554570 0.862640 -0.083839
C45   C     C_2   0.503775 0.510463 0.080886 0.034547
C46   C     C_2   0.496450 0.489164 0.919202 0.040574
N5    N     N_R   0.357110 0.272667 0.526712 0.134956
O13   O     O_R   0.336298 0.154644 0.463813 -0.267282
O14   O     O_R   0.398372 0.292218 0.616641 -0.348991
N6    N     N_R   0.642550 0.732110 0.492866 0.133347
O15   O     O_R   0.663547 0.848904 0.565983 -0.268539
O16   O     O_R   0.601669 0.718306 0.402765 -0.352310
N7    N     N_R   0.563381 0.630920 0.948401 0.238190
O17   O     O_R   0.573880 0.741175 0.935776 -0.273712
O18   O     O_R   0.597969 0.579018 0.008686 -0.304117
N8    N     N_R   0.436411 0.370009 0.051786 0.238190
O19   O     O_R   0.425460 0.260138 0.064684 -0.273050
O20   O     O_R   0.402101 0.422648 0.991474 -0.304588
C47   C     C_2   0.105087 0.131050 0.228084 1.006498
O21   O     O_2   0.095172 0.087830 0.093630 -0.499218
O22   O     O_R   0.134309 0.064295 0.301351 -0.708916
H13   H     H_    0.144917 0.980664 0.231074 0.360587
C48   C     C_2   0.893220 0.863879 0.748733 1.003191
O23   O     O_2   0.903321 0.906089 0.883157 -0.467556
O24   O     O_R   0.863425 0.930664 0.676864 -0.721945
H14   H     H_    0.852703 0.013648 0.747971 0.359603
N9    N     N_R   0.650882 0.284620 0.507021 0.132083
O25   O     O_R   0.668369 0.173176 0.443831 -0.270947
O26   O     O_R   0.617502 0.289414 0.588028 -0.328215
N10   N     N_R   0.348846 0.700266 0.460818 0.151517
O27   O     O_R   0.324686 0.756801 0.379803 -0.275811
O28   O     O_R   0.390413 0.756538 0.542262 -0.356153
C49   C     C_2   0.851775 0.247624 0.098743 0.939636
O29   O     O_2   0.855479 0.129966 0.053565 -0.527737
O30   O     O_R   0.819485 0.301827 0.017324 -0.698720
H15   H     H_    0.800706 0.233441 0.923938 0.357198
C50   C     C_2   0.146648 0.750708 0.873103 0.943248
O31   O     O_2   0.142407 0.868085 0.920040 -0.521575
O32   O     O_R   0.179546 0.696412 0.952844 -0.699217
H16   H     H_    0.198241 0.764516 0.046598 0.359797
C51   C     C_2   0.004318 0.136710 0.276824 0.866177
O33   O     O_2   0.004463 0.047678 0.158989 -0.509577
O34   O     O_R   0.973982 0.123458 0.372597 -0.713435
H17   H     H_    0.954089 0.036107 0.331986 0.368951
C52   C     C_2   0.993219 0.861226 0.695813 0.848815
O35   O     O_2   0.018052 0.875890 0.609568 -0.535468
O36   O     O_R   0.994188 0.960860 0.832842 -0.682237
H18   H     H_    0.016318 0.040160 0.846885 0.374651

loop_
_geom_bond_atom_site_label_1
_geom_bond_atom_site_label_2
_geom_bond_distance
_ccdc_geom_bond_type
O5    Cu1   1.944987 S    
C42   C44   1.332409 D    
C48   O23   1.222312 D    
C13   C15   1.399669 A    
C50   O32   1.398650 S    
O24   H14   1.013540 S    
C35   H5    1.081740 S    
N4    N7    1.393033 S    
C45   C46   1.508724 S    
N1    C17   1.439821 S    
N9    O25   1.301558 A    
C32   C39   1.424752 A    
C31   C33   1.412875 A    
N5    O13   1.301494 A    
O5    C3    1.298179 A    
C19   C25   1.416160 A    
N4    C46   1.301173 D    
C38   C50   1.480729 S    
O1    C1    1.295886 A    
N1    C7    1.366385 A    
C10   C12   1.401626 A    
H11   C46   1.081372 S    
N8    O20   1.302453 A    
C25   C38   1.416440 A    
C29   C35   1.407121 A    
C41   H10   1.087456 S    
C30   C36   1.406993 A    
C14   C28   1.418386 A    
O4    Cu1   1.946366 S    
C4    C28   1.466456 S    
C24   C40   1.415167 A    
C49   O30   1.398816 S    
C51   O33   1.222171 D    
C52   O36   1.397211 S    
C50   O31   1.222432 D    
C47   O22   1.397877 S    
C6    N2    1.368006 A    
C32   C34   1.413417 A    
C48   O24   1.397813 S    
Cu1   Cu2   2.690346 S    
C15   H1    1.083392 S    
N3    C45   1.301315 D    
C16   H2    1.083408 S    
O2    C2    1.295979 A    
H12   C45   1.082293 S    
O2    Cu2   1.946967 S    
C5    C21   1.416869 A    
N9    O26   1.300352 A    
C36   C38   1.394575 A    
N5    O14   1.299429 A    
C9    H4    1.083245 S    
H8    C43   1.088059 S    
C43   C44   1.449702 S    
Cu2   N3    2.021170 S    
C1    C41   1.451844 S    
C11   C27   1.417643 A    
O22   H13   1.013658 S    
N8    O19   1.299654 A    
C41   C43   1.332436 D    
C19   C34   1.418039 A    
C35   C37   1.395345 A    
C9    C17   1.398306 A    
C5    N1    1.366897 A    
O7    Cu2   1.939839 S    
C10   C18   1.399700 A    
C13   C27   1.419998 A    
C11   N10   1.439477 S    
N7    O17   1.299647 A    
C7    C25   1.411037 A    
C29   C33   1.414781 A    
O6    C4    1.297693 A    
C8    C26   1.412552 A    
N10   O28   1.300600 A    
C51   O34   1.398802 S    
O7    C3    1.297982 A    
O3    Cu2   1.946364 S    
O8    C4    1.297789 A    
N6    O16   1.299895 A    
N7    O18   1.302448 A    
N2    C8    1.367751 A    
C40   C52   1.493930 S    
C20   C26   1.415935 A    
O4    C2    1.294178 A    
O1    Cu1   1.946966 S    
O3    C1    1.294253 A    
C12   C28   1.418692 A    
O34   H17   1.013873 S    
N2    C18   1.442142 S    
C29   C32   1.424660 A    
C5    O9    1.348765 S    
C30   C34   1.415778 A    
C30   C31   1.424008 A    
C20   C33   1.417703 A    
O6    Cu2   1.944987 S    
C21   C23   1.420802 A    
N6    O15   1.301375 A    
C13   N5    1.439450 S    
O8    Cu1   1.939845 S    
C7    O12   1.348638 S    
C8    O11   1.348373 S    
O30   H15   1.014026 S    
H7    C44   1.088049 S    
C23   C47   1.481316 S    
C22   C24   1.420336 A    
C15   C17   1.396278 A    
C36   H6    1.081639 S    
O36   H18   1.013795 S    
C6    C22   1.415095 A    
C31   C40   1.425009 A    
C16   C18   1.397183 A    
C39   C51   1.494666 S    
C37   C49   1.480044 S    
C10   H3    1.083216 S    
C24   C48   1.481097 S    
C14   C16   1.398456 A    
N10   O27   1.301491 A    
C19   C21   1.412867 A    
C3    C27   1.467793 S    
C20   C22   1.411784 A    
C9    C11   1.400707 A    
C14   N6    1.438280 S    
N3    N8    1.393042 S    
C12   N9    1.441139 S    
C42   H9    1.087443 S    
C2    C42   1.452024 S    
Cu1   N4    2.021172 S    
C6    O10   1.348937 S    
C26   C37   1.417210 A    
C49   O29   1.222831 D    
C47   O21   1.222150 D    
O32   H16   1.013986 S    
C23   C39   1.417005 A    
C52   O35   1.223418 D    
