data_mof_unit_64209.cif
_audit_creation_date              2013-03-05T15:57:40-0500
_audit_creation_method            fapswitch 2.2
_symmetry_space_group_name_H-M    P1
_symmetry_Int_Tables_number       1
_space_group_crystal_system       tetragonal
_cell_length_a                    21.67418
_cell_length_b                    21.67418
_cell_length_c                    23.537215
_cell_angle_alpha                 90.0
_cell_angle_beta                  90.0
_cell_angle_gamma                 90.0
_cell_volume                      11057.0793423

loop_
_atom_site_label
_atom_site_type_symbol
_atom_site_description
_atom_site_fract_x
_atom_site_fract_y
_atom_site_fract_z
_atom_type_partial_charge
O1    O     O_R   0.091600 0.551710 0.999990 -0.589368
O2    O     O_R   0.551710 0.908400 0.999990 -0.589367
O3    O     O_R   0.908400 0.448290 0.999990 -0.589366
O4    O     O_R   0.448290 0.091600 0.999990 -0.589367
O5    O     O_R   0.091600 0.448290 0.000010 -0.589367
O6    O     O_R   0.551710 0.091600 0.000010 -0.589368
O7    O     O_R   0.908400 0.551710 0.000010 -0.589367
O8    O     O_R   0.448290 0.908400 0.000010 -0.589366
O9    O     O_R   0.591600 0.051710 0.499990 -0.589367
O10   O     O_R   0.051710 0.408400 0.499990 -0.589366
O11   O     O_R   0.408400 0.948290 0.499990 -0.589366
O12   O     O_R   0.948290 0.591600 0.499990 -0.589366
O13   O     O_R   0.591600 0.948290 0.500010 -0.589366
O14   O     O_R   0.051710 0.591600 0.500010 -0.589367
O15   O     O_R   0.408400 0.051710 0.500010 -0.589366
O16   O     O_R   0.948290 0.408400 0.500010 -0.589365
C1    C     C_R   0.119961 0.500000 0.000000 0.973253
C2    C     C_R   0.500000 0.880039 1.000000 0.973253
C3    C     C_R   0.880039 0.500000 0.000000 0.973253
C4    C     C_R   0.500000 0.119961 0.000000 0.973253
C5    C     C_R   0.619961 0.000000 0.500000 0.973251
C6    C     C_R   0.000000 0.380039 0.500000 0.973251
C7    C     C_R   0.380039 0.000000 0.500000 0.973251
C8    C     C_R   1.000000 0.619961 0.500000 0.973251
O17   O     O_R   0.999980 0.551710 0.082770 -0.595911
O18   O     O_R   0.551710 0.000020 0.082770 -0.595911
O19   O     O_R   0.000020 0.448290 0.082770 -0.595910
O20   O     O_R   0.448290 0.999980 0.082770 -0.595910
O21   O     O_R   0.999980 0.448290 0.917230 -0.595910
O22   O     O_R   0.551710 0.999980 0.917230 -0.595911
O23   O     O_R   0.000020 0.551710 0.917230 -0.595911
O24   O     O_R   0.448290 0.000020 0.917230 -0.595910
O25   O     O_R   0.499980 0.051710 0.582770 -0.595910
O26   O     O_R   0.051710 0.500020 0.582770 -0.595910
O27   O     O_R   0.500020 0.948290 0.582770 -0.595910
O28   O     O_R   0.948290 0.499980 0.582770 -0.595910
O29   O     O_R   0.499980 0.948290 0.417230 -0.595910
O30   O     O_R   0.051710 0.499980 0.417230 -0.595910
O31   O     O_R   0.500020 0.051710 0.417230 -0.595910
O32   O     O_R   0.948290 0.500020 0.417230 -0.595910
C9    C     C_R   0.000000 0.500000 0.109341 0.905421
C10   C     C_R   0.500000 0.000000 0.109341 0.905421
C11   C     C_R   1.000000 0.500000 0.890659 0.905421
C12   C     C_R   0.500000 0.000000 0.890659 0.905421
C13   C     C_R   0.500000 0.000000 0.609341 0.905420
C14   C     C_R   0.000000 0.500000 0.609341 0.905420
C15   C     C_R   0.500000 0.000000 0.390659 0.905419
C16   C     C_R   0.000000 0.500000 0.390659 0.905419
Zn1   Zn    Zn3+2 0.000000 0.569060 0.000000 1.126202
Zn2   Zn    Zn3+2 0.569060 0.000000 0.000000 1.126202
Zn3   Zn    Zn3+2 0.000000 0.430940 0.000000 1.126203
Zn4   Zn    Zn3+2 0.430940 0.000000 0.000000 1.126203
Zn5   Zn    Zn3+2 0.500000 0.069060 0.500000 1.126204
Zn6   Zn    Zn3+2 0.069060 0.500000 0.500000 1.126204
Zn7   Zn    Zn3+2 0.500000 0.930940 0.500000 1.126204
Zn8   Zn    Zn3+2 0.930940 0.500000 0.500000 1.126204
C17   C     C_1   0.000000 0.500000 0.169568 -0.083055
C18   C     C_1   0.500000 0.000000 0.169568 -0.083055
C19   C     C_1   0.000000 0.500000 0.830432 -0.083055
C20   C     C_1   0.500000 0.000000 0.830432 -0.083055
C21   C     C_1   0.500000 0.000000 0.669568 -0.083056
C22   C     C_1   0.000000 0.500000 0.669568 -0.083056
C23   C     C_1   0.500000 0.000000 0.330432 -0.083056
C24   C     C_1   0.000000 0.500000 0.330432 -0.083056
C25   C     C_1   0.000000 0.500000 0.220355 0.078689
C26   C     C_1   0.500000 0.000000 0.220355 0.078689
C27   C     C_1   0.000000 0.500000 0.779645 0.078689
C28   C     C_1   0.500000 0.000000 0.779645 0.078689
C29   C     C_1   0.500000 0.000000 0.720355 0.078689
C30   C     C_1   1.000000 0.500000 0.720355 0.078689
C31   C     C_1   0.500000 0.000000 0.279645 0.078689
C32   C     C_1   0.000000 0.500000 0.279645 0.078689
C33   C     C_R   0.217243 0.466484 0.957960 0.174901
C34   C     C_R   0.466484 0.782757 0.957961 0.174902
C35   C     C_R   0.782757 0.533516 0.957961 0.174902
C36   C     C_R   0.533516 0.217243 0.957960 0.174901
C37   C     C_R   0.217243 0.533516 0.042040 0.174901
C38   C     C_R   0.466484 0.217243 0.042039 0.174901
C39   C     C_R   0.782757 0.466484 0.042039 0.174901
C40   C     C_R   0.533516 0.782757 0.042039 0.174901
C41   C     C_R   0.717243 0.966483 0.457961 0.174905
C42   C     C_R   0.966483 0.282757 0.457961 0.174904
C43   C     C_R   0.282757 0.033517 0.457961 0.174905
C44   C     C_R   0.033517 0.717243 0.457961 0.174905
C45   C     C_R   0.717243 0.033517 0.542039 0.174903
C46   C     C_R   0.966483 0.717243 0.542039 0.174903
C47   C     C_R   0.282757 0.966483 0.542039 0.174903
C48   C     C_R   0.033517 0.282757 0.542039 0.174903
C49   C     C_R   0.281269 0.465435 0.958593 0.254025
C50   C     C_R   0.465435 0.718731 0.958593 0.254024
C51   C     C_R   0.718731 0.534565 0.958593 0.254024
C52   C     C_R   0.534565 0.281269 0.958593 0.254024
C53   C     C_R   0.281269 0.534564 0.041407 0.254025
C54   C     C_R   0.465435 0.281269 0.041407 0.254024
C55   C     C_R   0.718731 0.465435 0.041407 0.254025
C56   C     C_R   0.534565 0.718731 0.041407 0.254025
C57   C     C_R   0.781269 0.965434 0.458593 0.254022
C58   C     C_R   0.965434 0.218731 0.458593 0.254022
C59   C     C_R   0.218731 0.034566 0.458593 0.254022
C60   C     C_R   0.034566 0.781269 0.458593 0.254022
C61   C     C_R   0.781269 0.034565 0.541407 0.254023
C62   C     C_R   0.965434 0.781269 0.541407 0.254024
C63   C     C_R   0.218731 0.965435 0.541407 0.254024
C64   C     C_R   0.034565 0.218731 0.541407 0.254023
C65   C     C_R   0.313033 0.500000 0.000000 -0.329345
C66   C     C_R   0.500000 0.686967 0.000000 -0.329344
C67   C     C_R   0.686967 0.500000 0.000000 -0.329344
C68   C     C_R   0.500000 0.313033 0.000000 -0.329344
C69   C     C_R   0.813033 1.000000 0.500000 -0.329344
C70   C     C_R   1.000000 0.186966 0.500000 -0.329344
C71   C     C_R   0.186966 0.000000 0.500000 -0.329344
C72   C     C_R   0.000000 0.813033 0.500000 -0.329344
O33   O     O_R   0.499980 0.591700 0.953290 -0.583873
O34   O     O_R   0.591700 0.500020 0.953290 -0.583873
O35   O     O_R   0.500020 0.408300 0.953290 -0.583872
O36   O     O_R   0.408300 0.499980 0.953290 -0.583872
O37   O     O_R   0.499980 0.408300 0.046710 -0.583873
O38   O     O_R   0.591700 0.499980 0.046710 -0.583874
O39   O     O_R   0.500020 0.591700 0.046710 -0.583873
O40   O     O_R   0.408300 0.500020 0.046710 -0.583873
O41   O     O_R   0.999980 0.091700 0.453290 -0.583875
O42   O     O_R   0.091700 0.000020 0.453290 -0.583875
O43   O     O_R   0.000020 0.908300 0.453290 -0.583874
O44   O     O_R   0.908300 0.999980 0.453290 -0.583874
O45   O     O_R   0.999980 0.908300 0.546710 -0.583874
O46   O     O_R   0.091700 0.999980 0.546710 -0.583874
O47   O     O_R   0.000020 0.091700 0.546710 -0.583874
O48   O     O_R   0.908300 0.000020 0.546710 -0.583874
C73   C     C_R   0.500000 0.620622 0.000000 1.010604
C74   C     C_R   0.620622 0.500000 0.000000 1.010605
C75   C     C_R   0.500000 0.379377 0.000000 1.010604
C76   C     C_R   0.379377 0.500000 0.000000 1.010604
C77   C     C_R   1.000000 0.120622 0.500000 1.010616
C78   C     C_R   0.120622 0.000000 0.500000 1.010616
C79   C     C_R   0.000000 0.879378 0.500000 1.010615
C80   C     C_R   0.879377 1.000000 0.500000 1.010615
C81   C     C_R   0.185819 0.500000 0.000000 -0.268933
C82   C     C_R   0.500000 0.814181 1.000000 -0.268934
C83   C     C_R   0.814181 0.500000 0.000000 -0.268934
C84   C     C_R   0.500000 0.185819 0.000000 -0.268933
C85   C     C_R   0.685819 1.000000 0.500000 -0.268937
C86   C     C_R   1.000000 0.314181 0.500000 -0.268937
C87   C     C_R   0.314181 0.000000 0.500000 -0.268937
C88   C     C_R   0.000000 0.685819 0.500000 -0.268937
Zn9   Zn    Zn3+2 0.500000 0.500000 0.937600 1.226621
Zn10  Zn    Zn3+2 0.500000 0.500000 0.062400 1.226620
Zn11  Zn    Zn3+2 0.000000 0.000000 0.437600 1.226611
Zn12  Zn    Zn3+2 0.000000 0.000000 0.562400 1.226617
Br1   Br    Br    0.173503 0.421960 0.899182 -0.318077
Br2   Br    Br    0.421960 0.826496 0.899183 -0.318076
Br3   Br    Br    0.826496 0.578040 0.899183 -0.318077
Br4   Br    Br    0.578040 0.173503 0.899182 -0.318077
Br5   Br    Br    0.173503 0.578040 0.100818 -0.318077
Br6   Br    Br    0.421960 0.173503 0.100817 -0.318077
Br7   Br    Br    0.826496 0.421960 0.100817 -0.318076
Br8   Br    Br    0.578040 0.826496 0.100817 -0.318077
Br9   Br    Br    0.673503 0.921957 0.399185 -0.318072
Br10  Br    Br    0.921957 0.326497 0.399185 -0.318071
Br11  Br    Br    0.326497 0.078043 0.399185 -0.318072
Br12  Br    Br    0.078043 0.673503 0.399185 -0.318072
Br13  Br    Br    0.673504 0.078042 0.600816 -0.318074
Br14  Br    Br    0.921957 0.673504 0.600816 -0.318074
Br15  Br    Br    0.326496 0.921958 0.600816 -0.318074
Br16  Br    Br    0.078042 0.326496 0.600816 -0.318074
N1    N     N_R   0.313862 0.427656 0.918471 0.253129
O49   O     O_R   0.311427 0.440181 0.864461 -0.272869
O50   O     O_R   0.347855 0.382025 0.936092 -0.335033
N2    N     N_R   0.427655 0.686138 0.918471 0.253129
O51   O     O_R   0.440179 0.688573 0.864461 -0.272869
O52   O     O_R   0.382025 0.652144 0.936093 -0.335035
N3    N     N_R   0.686138 0.572344 0.918471 0.253129
O53   O     O_R   0.688573 0.559820 0.864461 -0.272869
O54   O     O_R   0.652145 0.617975 0.936092 -0.335034
N4    N     N_R   0.572344 0.313862 0.918471 0.253129
O55   O     O_R   0.559820 0.311427 0.864461 -0.272869
O56   O     O_R   0.617974 0.347855 0.936092 -0.335033
N5    N     N_R   0.313862 0.572344 0.081530 0.253129
O57   O     O_R   0.311427 0.559819 0.135539 -0.272869
O58   O     O_R   0.347855 0.617974 0.063908 -0.335033
N6    N     N_R   0.427656 0.313862 0.081529 0.253129
O59   O     O_R   0.440180 0.311427 0.135539 -0.272869
O60   O     O_R   0.382025 0.347855 0.063908 -0.335034
N7    N     N_R   0.686138 0.427655 0.081529 0.253129
O61   O     O_R   0.688573 0.440179 0.135539 -0.272869
O62   O     O_R   0.652145 0.382025 0.063907 -0.335035
N8    N     N_R   0.572344 0.686138 0.081529 0.253129
O63   O     O_R   0.559820 0.688573 0.135539 -0.272869
O64   O     O_R   0.617975 0.652145 0.063908 -0.335034
N9    N     N_R   0.813862 0.927653 0.418473 0.253128
O65   O     O_R   0.811421 0.940170 0.364462 -0.272868
O66   O     O_R   0.847859 0.882026 0.436096 -0.335039
N10   N     N_R   0.927653 0.186138 0.418473 0.253128
O67   O     O_R   0.940170 0.188579 0.364462 -0.272868
O68   O     O_R   0.882026 0.152141 0.436096 -0.335039
N11   N     N_R   0.186138 0.072347 0.418473 0.253128
O69   O     O_R   0.188579 0.059830 0.364462 -0.272868
O70   O     O_R   0.152141 0.117974 0.436096 -0.335039
N12   N     N_R   0.072347 0.813862 0.418473 0.253128
O71   O     O_R   0.059830 0.811421 0.364462 -0.272868
O72   O     O_R   0.117974 0.847859 0.436096 -0.335039
N13   N     N_R   0.813862 0.072346 0.581528 0.253128
O73   O     O_R   0.811426 0.059824 0.635538 -0.272870
O74   O     O_R   0.847856 0.117975 0.563905 -0.335033
N14   N     N_R   0.927654 0.813862 0.581528 0.253128
O75   O     O_R   0.940176 0.811425 0.635538 -0.272870
O76   O     O_R   0.882025 0.847856 0.563905 -0.335033
N15   N     N_R   0.186138 0.927654 0.581528 0.253128
O77   O     O_R   0.188574 0.940176 0.635538 -0.272870
O78   O     O_R   0.152144 0.882025 0.563905 -0.335033
N16   N     N_R   0.072346 0.186138 0.581528 0.253128
O79   O     O_R   0.059824 0.188575 0.635538 -0.272870
O80   O     O_R   0.117975 0.152144 0.563905 -0.335033

loop_
_geom_bond_atom_site_label_1
_geom_bond_atom_site_label_2
_geom_bond_distance
_ccdc_geom_bond_type
O13   Zn7   2.020655 S    
C66   C73   1.437954 S    
C39   C83   1.403803 A    
N3    O53   1.300962 A    
O40   Zn10  2.021541 S    
N1    O49   1.300963 A    
C58   C70   1.408940 A    
O2    C2    1.278274 A    
C45   Br13  1.934936 S    
N13   O73   1.300964 A    
C47   Br15  1.934937 S    
C64   N16   1.435744 S    
C42   C86   1.403806 A    
C7    C87   1.427420 S    
C10   C18   1.417583 S    
C44   Br12  1.934936 S    
C45   C61   1.387979 A    
O35   C75   1.265585 A    
O10   C6    1.278275 A    
O39   Zn10  2.021541 S    
N3    O54   1.301151 A    
C54   C68   1.408937 A    
O23   C11   1.283457 A    
C14   C22   1.417583 S    
O38   C74   1.265582 A    
O15   Zn5   2.020655 S    
O11   C7    1.278277 A    
C37   C81   1.403806 A    
N7    O62   1.301150 A    
N16   O79   1.300964 A    
C15   C23   1.417583 S    
O36   Zn9   2.021541 S    
C42   Br10  1.934937 S    
N2    O52   1.301150 A    
C16   C24   1.417583 S    
O5    C1    1.278275 A    
C44   C88   1.403807 A    
O33   Zn9   2.021541 S    
N11   O70   1.301152 A    
C59   N11   1.435745 S    
O25   C13   1.283457 A    
C22   C30   1.195387 T    
C63   C71   1.408937 A    
O12   C8    1.278276 A    
C13   C21   1.417583 S    
N9    O66   1.301151 A    
O3    Zn3   2.020655 S    
C62   N14   1.435743 S    
N4    O55   1.300963 A    
O42   C78   1.265584 A    
C68   C75   1.437954 S    
O2    Zn2   2.020655 S    
C19   C27   1.195387 T    
C62   C72   1.408939 A    
C18   C26   1.195387 T    
O24   Zn4   1.984137 S    
C35   Br3   1.934934 S    
C28   C29   1.395510 S    
O32   Zn8   1.984137 S    
O30   Zn6   1.984137 S    
O16   C6    1.278277 A    
O41   Zn11  2.021541 S    
O28   C14   1.283459 A    
N12   O71   1.300968 A    
O26   C14   1.283457 A    
O29   C15   1.283459 A    
O8    Zn4   2.020655 S    
O30   C16   1.283457 A    
C46   C62   1.387979 A    
C11   C19   1.417583 S    
O47   Zn12  2.021541 S    
C37   Br5   1.934934 S    
O45   C79   1.265583 A    
O15   C7    1.278275 A    
O22   Zn2   1.984137 S    
C61   C69   1.408937 A    
N1    O50   1.301149 A    
C43   C59   1.387981 A    
O21   C11   1.283459 A    
C69   C80   1.437952 S    
O34   C74   1.265584 A    
O22   C12   1.283457 A    
O9    Zn5   2.020655 S    
O14   C8    1.278274 A    
O23   Zn1   1.984137 S    
C67   C74   1.437954 S    
O37   C75   1.265583 A    
O46   C78   1.265582 A    
C48   C86   1.403807 A    
C48   C64   1.387979 A    
C52   C68   1.408938 A    
C49   N1    1.435743 S    
C65   C76   1.437954 S    
N4    O56   1.301150 A    
C36   C84   1.403807 A    
O25   Zn5   1.984134 S    
O44   Zn11  2.021541 S    
C9    C17   1.417583 S    
C41   Br9   1.934937 S    
O44   C80   1.265585 A    
O27   Zn7   1.984134 S    
N15   O77   1.300964 A    
C44   C60   1.387981 A    
C56   N8    1.435743 S    
O38   Zn10  2.021541 S    
O7    Zn1   2.020655 S    
C58   N10   1.435745 S    
O17   C9    1.283457 A    
O46   Zn12  2.021541 S    
C38   Br6   1.934935 S    
C35   C83   1.403806 A    
C52   N4    1.435745 S    
C48   Br16  1.934935 S    
O8    C2    1.278276 A    
O43   C79   1.265585 A    
O37   Zn10  2.021541 S    
N10   O68   1.301153 A    
N7    O61   1.300962 A    
O16   Zn8   2.020655 S    
C39   C55   1.387979 A    
O28   Zn8   1.984134 S    
C51   C67   1.408938 A    
O39   C73   1.265582 A    
C34   C82   1.403804 A    
O19   C9    1.283459 A    
C26   C31   1.395510 S    
O36   C76   1.265585 A    
C59   C71   1.408939 A    
C41   C85   1.403808 A    
C6    C86   1.427420 S    
O24   C12   1.283459 A    
O13   C5    1.278276 A    
C36   Br4   1.934935 S    
C54   N6    1.435743 S    
O42   Zn11  2.021541 S    
C12   C20   1.417583 S    
O3    C3    1.278276 A    
C50   C66   1.408940 A    
O12   Zn8   2.020655 S    
O33   C73   1.265584 A    
C36   C52   1.387979 A    
C46   Br14  1.934935 S    
N2    O51   1.300963 A    
O14   Zn6   2.020655 S    
O48   C80   1.265583 A    
O4    Zn4   2.020655 S    
C60   C72   1.408940 A    
N16   O80   1.301151 A    
C42   C58   1.387981 A    
C47   C63   1.387979 A    
C40   C56   1.387979 A    
C72   C79   1.437952 S    
N8    O64   1.301149 A    
O27   C13   1.283459 A    
N13   O74   1.301151 A    
C40   Br8   1.934934 S    
O11   Zn7   2.020655 S    
N6    O59   1.300965 A    
C64   C70   1.408937 A    
O31   C15   1.283457 A    
C38   C54   1.387979 A    
O21   Zn3   1.984137 S    
C21   C29   1.195387 T    
O32   C16   1.283459 A    
C56   C66   1.408937 A    
C53   N5    1.435743 S    
N6    O60   1.301150 A    
C55   N7    1.435745 S    
C50   N2    1.435743 S    
O40   C76   1.265583 A    
O1    C1    1.278273 A    
O48   Zn12  2.021541 S    
O47   C77   1.265582 A    
O34   Zn9   2.021541 S    
C63   N15   1.435743 S    
C47   C87   1.403806 A    
O45   Zn12  2.021541 S    
C38   C84   1.403806 A    
C1    C81   1.427420 S    
C71   C78   1.437952 S    
O26   Zn6   1.984134 S    
C55   C67   1.408937 A    
O4    C4    1.278275 A    
C35   C51   1.387979 A    
C33   C49   1.387979 A    
C25   C32   1.395510 S    
O6    C4    1.278273 A    
O35   Zn9   2.021541 S    
O7    C3    1.278274 A    
C51   N3    1.435743 S    
C27   C30   1.395510 S    
C57   N9    1.435745 S    
N10   O67   1.300968 A    
C4    C84   1.427420 S    
O18   Zn2   1.984134 S    
C57   C69   1.408939 A    
O43   Zn11  2.021541 S    
C5    C85   1.427420 S    
C53   C65   1.408937 A    
C61   N13   1.435744 S    
N14   O76   1.301151 A    
O20   Zn4   1.984134 S    
O9    C5    1.278274 A    
O31   Zn5   1.984137 S    
C33   C81   1.403807 A    
C8    C88   1.427420 S    
C40   C82   1.403806 A    
C34   C50   1.387979 A    
C37   C53   1.387979 A    
O19   Zn3   1.984134 S    
N5    O58   1.301150 A    
C46   C88   1.403807 A    
C24   C32   1.195387 T    
O18   C10   1.283457 A    
C2    C82   1.427422 S    
N9    O65   1.300969 A    
O10   Zn6   2.020655 S    
O17   Zn1   1.984134 S    
C39   Br7   1.934937 S    
N11   O69   1.300969 A    
O29   Zn7   1.984137 S    
O6    Zn2   2.020655 S    
C45   C85   1.403807 A    
C43   Br11  1.934937 S    
N14   O75   1.300966 A    
C20   C28   1.195387 T    
C3    C83   1.427422 S    
N5    O57   1.300963 A    
C33   Br1   1.934936 S    
C49   C65   1.408939 A    
N15   O78   1.301152 A    
C41   C57   1.387981 A    
C34   Br2   1.934935 S    
C43   C87   1.403808 A    
N12   O72   1.301153 A    
O41   C77   1.265584 A    
N8    O63   1.300965 A    
C70   C77   1.437952 S    
O1    Zn1   2.020655 S    
C23   C31   1.195387 T    
O5    Zn3   2.020655 S    
C17   C25   1.195387 T    
O20   C10   1.283459 A    
C60   N12   1.435745 S    
