data_mof_unit_7757.cif
_audit_creation_date              2012-12-11T14:08:15-0500
_audit_creation_method            fapswitch 2.2
_symmetry_space_group_name_H-M    P1
_symmetry_Int_Tables_number       1
_space_group_crystal_system       triclinic
_cell_length_a                    10.984667
_cell_length_b                    10.958179
_cell_length_c                    18.730394
_cell_angle_alpha                 90.121336
_cell_angle_beta                  90.478831
_cell_angle_gamma                 59.606059
_cell_volume                      1944.68229796

loop_
_atom_site_label
_atom_site_type_symbol
_atom_type_description
_atom_site_fract_x
_atom_site_fract_y
_atom_site_fract_z
_atom_type_partial_charge
C1    C     C_R   0.231820 0.646756 0.605996 0.531099
C2    C     C_3   0.664525 0.600746 0.801603 -0.231815
C3    C     C_3   0.727983 0.699325 0.806619 0.039239
C4    C     C_3   0.686564 0.656262 0.673095 0.053446
C5    C     C_3   0.848809 0.594011 0.688489 0.029270
C6    C     C_3   0.627594 0.587997 0.724241 -0.232387
C7    C     C_2   0.676233 0.165466 0.673373 -0.127435
C8    C     C_2   0.677542 0.179643 0.830442 -0.121448
C9    C     C_2   0.784735 0.163104 0.789975 -0.195971
C10   C     C_2   0.767224 0.187659 0.712198 -0.177607
C11   C     C_2   0.171239 0.658518 0.674883 -0.079860
C12   C     C_R   0.658126 0.625338 0.599514 0.538588
C13   C     C_2   0.157975 0.693718 0.832818 0.140328
C14   C     C_2   0.214134 0.569151 0.799527 -0.147171
C15   C     C_2   0.247957 0.556477 0.723415 -0.147006
C16   C     C_2   0.680288 0.687654 0.336915 -0.121763
C17   C     C_2   0.702260 0.692103 0.179150 0.102506
C18   C     C_2   0.815196 0.624133 0.224924 0.284776
C19   C     C_2   0.803347 0.608518 0.302644 0.145066
C20   C     C_2   0.671783 0.140467 0.333267 -0.109446
C21   C     C_2   0.653242 0.146419 0.178786 -0.105426
C22   C     C_2   0.604913 0.081407 0.221136 -0.158910
C23   C     C_R   0.628376 0.229462 0.602683 0.543239
C24   C     C_2   0.587897 0.106948 0.297104 -0.165153
C25   C     C_2   0.126033 0.680670 0.343167 -0.116285
C26   C     C_2   0.122032 0.690060 0.189558 -0.038460
C27   C     C_2   0.047234 0.803458 0.232184 -0.121417
C28   C     C_2   0.077566 0.800537 0.307433 -0.172526
C29   C     C_R   0.700719 0.105210 0.898385 0.542171
C30   C     C_R   0.756320 0.713421 0.883063 0.560816
C31   C     C_R   0.114396 0.709896 0.906499 0.546999
C32   C     C_R   0.676130 0.104596 0.105116 0.539907
C33   C     C_R   0.730813 0.714660 0.105831 0.608976
C34   C     C_R   0.215806 0.651828 0.404315 0.546049
C35   C     C_R   0.090262 0.711540 0.114522 0.558487
C36   C     C_R   0.647725 0.629607 0.398493 0.546706
C37   C     C_R   0.620511 0.223704 0.397332 0.555620
C38   C     C_3   0.628485 0.845380 0.768008 0.023202
C39   C     C_3   0.607600 0.817545 0.688415 -0.244907
C40   C     C_3   0.870026 0.629261 0.766054 -0.246360
Cr1   Cr    Cr6+3 0.393010 0.398050 0.501480 0.997154
Cr2   Cr    Cr6+3 0.398820 0.707980 0.501630 1.009193
Cr3   Cr    Cr6+3 0.708140 0.393940 0.496850 1.007312
Cr4   Cr    Cr6+3 0.937950 0.938450 0.008940 0.997761
Cr5   Cr    Cr6+3 0.626180 0.937030 0.994750 1.016119
Cr6   Cr    Cr6+3 0.937790 0.625760 0.001410 0.994954
H1    H     H_    0.682652 0.908064 0.769423 0.129983
H2    H     H_    0.669482 0.474962 0.711219 0.137377
H3    H     H_    0.950750 0.532250 0.794399 0.153879
H4    H     H_    0.887427 0.128836 0.813687 0.142723
H5    H     H_    0.828636 0.227569 0.686923 0.155041
H6    H     H_    0.572083 0.228552 0.807662 0.101821
H7    H     H_    0.620926 0.118128 0.697547 0.091444
H8    H     H_    0.246491 0.472920 0.829851 0.098255
H9    H     H_    0.345187 0.461938 0.707838 0.135146
H10   H     H_    0.068843 0.750130 0.685253 0.122947
H11   H     H_    0.594127 0.783376 0.313972 0.115914
H12   H     H_    0.569951 0.012213 0.199201 0.148234
H13   H     H_    0.495788 0.112282 0.321346 0.150183
H14   H     H_    0.688940 0.215881 0.199290 0.080801
H15   H     H_    0.768423 0.126496 0.310060 0.093134
H16   H     H_    0.969805 0.905943 0.210261 0.150458
H17   H     H_    0.493793 0.863510 0.675505 0.155743
H18   H     H_    0.076178 0.892240 0.330607 0.143909
H19   H     H_    0.200863 0.586368 0.209294 0.090527
H20   H     H_    0.120018 0.592605 0.320455 0.159381
H21   H     H_    0.648131 0.870123 0.652930 0.079838
H22   H     H_    0.912003 0.702681 0.765104 0.082481
H23   H     H_    0.886449 0.646594 0.651032 0.120602
H24   H     H_    0.742606 0.493150 0.821659 0.142370
H25   H     H_    0.569609 0.638884 0.835522 0.123888
H26   H     H_    0.511467 0.639846 0.717545 0.122093
O1    O     O_R   0.507110 0.256280 0.580300 -0.524491
O2    O     O_R   0.524640 0.695370 0.425100 -0.497789
O3    O     O_R   0.735890 0.504390 0.415980 -0.512068
O4    O     O_R   0.690560 0.277820 0.422350 -0.506569
O5    O     O_3   0.499990 0.499990 0.499980 -0.240487
O6    O     O_R   0.089190 0.825870 0.932320 -0.513640
O7    O     O_R   0.819070 0.053960 0.931440 -0.499452
O8    O     O_R   0.607070 0.076440 0.916460 -0.504842
O9    O     O_R   0.647110 0.806550 0.917690 -0.466726
O10   O     O_R   0.837080 0.593860 0.915300 -0.532455
O11   O     O_R   0.064770 0.636080 0.932550 -0.534327
O12   O     O_R   0.280830 0.527190 0.577940 -0.515969
O13   O     O_R   0.068250 0.829200 0.092940 -0.526708
O14   O     O_R   0.799650 0.057040 0.080330 -0.504033
O15   O     O_R   0.586130 0.079760 0.077080 -0.524626
O16   O     O_R   0.627700 0.809630 0.066580 -0.510517
O17   O     O_R   0.816140 0.597180 0.075920 -0.506631
O18   O     O_R   0.045360 0.639170 0.081440 -0.485207
O19   O     O_3   0.833980 0.833750 0.001700 -0.287592
O20   O     O_R   0.261360 0.738990 0.584270 -0.510507
O21   O     O_R   0.532590 0.694780 0.574370 -0.518183
O22   O     O_R   0.744470 0.503750 0.577000 -0.486040
O23   O     O_R   0.698520 0.277230 0.571620 -0.495999
O24   O     O_R   0.498530 0.256920 0.419280 -0.514337
O25   O     O_R   0.272880 0.527780 0.428680 -0.502848
O26   O     O_R   0.252780 0.739630 0.423250 -0.510595
N1    N     N_2   0.930069 0.440989 0.677717 -0.489753
H27   H     H_    0.913402 0.382043 0.715006 0.243617
C41   C     C_3   0.077254 0.380436 0.659699 -0.300125
H28   H     H_    0.138156 0.381421 0.706984 0.132745
H29   H     H_    0.089518 0.439227 0.614791 0.168731
H30   H     H_    0.120451 0.268958 0.642758 0.132472
N2    N     N_2   0.114320 0.821241 0.793927 -0.524878
H31   H     H_    0.011782 0.898206 0.803627 0.254326
C42   C     C_3   0.211494 0.872675 0.793910 -0.301126
H32   H     H_    0.223849 0.904430 0.848596 0.159556
H33   H     H_    0.170788 0.965976 0.758017 0.135675
H34   H     H_    0.314315 0.789267 0.773506 0.150954
N3    N     N_2   0.493510 0.927659 0.804128 -0.478124
H35   H     H_    0.446540 0.872729 0.821046 0.251898
C43   C     C_3   0.395066 0.069312 0.778956 -0.306775
H36   H     H_    0.336660 0.066022 0.731096 0.115527
H37   H     H_    0.449902 0.127295 0.766145 0.142134
H38   H     H_    0.317271 0.128310 0.821458 0.142502
O27   O     O_3   0.950754 0.572200 0.199384 -0.563079
C44   C     C_3   0.013607 0.427366 0.180574 -0.068630
H39   H     H_    0.943774 0.381464 0.186118 0.088921
H40   H     H_    0.111486 0.365071 0.212295 0.110306
H41   H     H_    0.048315 0.413197 0.124275 0.159388
N4    N     N_2   0.930431 0.521794 0.342956 -0.482735
H42   H     H_    0.936621 0.561902 0.391906 0.244691
C45   C     C_3   0.990057 0.369447 0.342741 -0.251265
H43   H     H_    0.988633 0.331122 0.397399 0.150313
H44   H     H_    0.102403 0.316875 0.327072 0.121893
H45   H     H_    0.930796 0.337035 0.306590 0.136606
N5    N     N_2   0.562833 0.725118 0.197313 -0.581588
H46   H     H_    0.483764 0.810291 0.169915 0.264967
C46   C     C_3   0.542111 0.604749 0.197407 -0.309761
H47   H     H_    0.434027 0.638391 0.216229 0.152587
H48   H     H_    0.618916 0.520715 0.233926 0.149008
H49   H     H_    0.554661 0.561171 0.142577 0.155858

loop_
_geom_bond_atom_site_label_1
_geom_bond_atom_site_label_2
_ccdc_geom_bond_type
C7    C10   D    
C19   N4    S    
C41   H28   S    
Cr2   O21   S    
N3    H35   S    
C1    C11   S    
N5    H46   S    
Cr3   O22   S    
Cr6   O17   S    
C25   C28   D    
C6    H26   S    
N2    C42   S    
C26   C27   D    
C6    H2    S    
C8    C29   S    
Cr5   O15   S    
C33   O16   A    
Cr2   O26   S    
Cr1   O5    S    
C38   C39   S    
Cr1   O24   S    
C40   H3    S    
C34   O25   A    
C31   O11   A    
C18   C19   S    
C20   H15   S    
C44   H39   S    
C5    H23   S    
Cr6   O10   S    
C11   C15   D    
C20   C24   D    
C3    C38   S    
C8    C9    D    
Cr3   O23   S    
C42   H32   S    
C4    C12   S    
C9    C10   S    
C8    H6    S    
Cr2   O20   S    
C25   C34   S    
C43   H38   S    
C41   H29   S    
C13   C14   D    
C42   H33   S    
C12   O22   A    
C2    C6    S    
C17   C33   S    
C23   O1    A    
Cr4   O14   S    
C10   H5    S    
Cr3   O3    S    
C21   C32   S    
Cr2   O2    S    
C9    H4    S    
C5    N1    S    
Cr5   O16   S    
C21   H14   S    
C4    C6    S    
Cr6   O19   S    
Cr1   O12   S    
C37   O24   A    
C1    O12   A    
C44   H41   S    
C15   H9    S    
C30   O10   A    
C3    C30   S    
C46   H48   S    
C36   O3    A    
C33   O17   A    
N1    H27   S    
C29   O7    A    
C4    C39   S    
C32   O14   A    
C17   C18   D    
N3    C43   S    
C18   O27   S    
C38   H1    S    
Cr4   O19   S    
C36   O2    A    
C45   H45   S    
C28   H18   S    
C13   N2    S    
C14   H8    S    
C37   O4    A    
C3    C40   S    
C1    O20   A    
C42   H34   S    
Cr1   O25   S    
C12   O21   A    
C46   H49   S    
C7    H7    S    
N4    C45   S    
C2    H25   S    
C31   O6    A    
C45   H44   S    
C43   H36   S    
Cr3   O4    S    
N1    C41   S    
C26   H19   S    
C39   H21   S    
C13   C31   S    
Cr4   O7    S    
Cr5   O9    S    
C25   H20   S    
C4    C5    S    
N5    C46   S    
C22   H12   S    
C17   N5    S    
Cr6   O18   S    
C27   H16   S    
Cr3   O5    S    
C39   H17   S    
N2    H31   S    
C30   O9    A    
Cr4   O6    S    
C2    C3    S    
C38   N3    S    
C2    H24   S    
O27   C44   S    
C16   C36   S    
C20   C37   S    
C35   O13   A    
C29   O8    A    
C24   H13   S    
C7    C23   S    
C34   O26   A    
C23   O23   A    
C46   H47   S    
Cr5   O8    S    
C22   C24   S    
C16   H11   S    
Cr5   O19   S    
C44   H40   S    
Cr1   O1    S    
Cr6   O11   S    
C35   O18   A    
C26   C35   S    
C32   O15   A    
Cr2   O5    S    
C40   H22   S    
C5    C40   S    
C27   C28   S    
C14   C15   S    
C41   H30   S    
N4    H42   S    
C21   C22   D    
C11   H10   S    
Cr4   O13   S    
C45   H43   S    
C43   H37   S    
C16   C19   D    
