data_mof_unit_19190.cif
_audit_creation_date              2012-12-10T18:54:19-0500
_audit_creation_method            fapswitch 2.2
_symmetry_space_group_name_H-M    P1
_symmetry_Int_Tables_number       1
_space_group_crystal_system       triclinic
_cell_length_a                    10.72557
_cell_length_b                    9.986938
_cell_length_c                    22.599436
_cell_angle_alpha                 90.444406
_cell_angle_beta                  92.170551
_cell_angle_gamma                 89.909489
_cell_volume                      2418.94058461

loop_
_atom_site_label
_atom_site_type_symbol
_atom_type_description
_atom_site_fract_x
_atom_site_fract_y
_atom_site_fract_z
_atom_type_partial_charge
C1    C     C_R   0.260605 0.499778 0.505794 0.899088
C2    C     C_R   0.738903 0.499424 0.493439 0.904787
C3    C     C_R   0.607058 0.562893 0.235636 -0.011687
C4    C     C_R   0.424419 0.394423 0.764656 -0.000950
C5    C     C_R   0.594916 0.574328 0.296938 -0.172196
C6    C     C_R   0.416077 0.411398 0.703223 -0.208396
C7    C     C_R   0.505582 0.498336 0.324763 -0.047351
C8    C     C_R   0.499472 0.495705 0.675719 -0.078606
C9    C     C_R   0.415423 0.429749 0.290643 -0.254135
C10   C     C_R   0.580571 0.575175 0.710243 -0.189274
C11   C     C_R   0.427205 0.418029 0.229466 -0.020786
C12   C     C_R   0.588934 0.559016 0.771606 -0.026547
C13   C     C_R   0.541346 0.458309 0.204635 0.139751
C14   C     C_R   0.531377 0.445196 0.796690 0.112546
C15   C     C_R   0.062161 0.374398 0.507538 -0.094746
C16   C     C_R   0.937776 0.619613 0.487190 -0.109405
C17   C     C_R   0.937019 0.374061 0.489158 -0.094274
C18   C     C_R   0.060528 0.620365 0.509043 -0.110990
C19   C     C_R   0.872817 0.497280 0.485317 -0.173853
C20   C     C_R   0.125977 0.498015 0.511986 -0.177008
C21   C     C_R   0.551517 0.072544 0.546884 -0.060070
C22   C     C_R   0.448874 0.927341 0.452997 -0.055671
C23   C     C_R   0.449389 0.070643 0.452842 -0.053308
C24   C     C_R   0.552116 0.929324 0.546682 -0.040072
C25   C     C_R   0.499745 0.499709 0.388765 0.893586
C26   C     C_R   0.499630 0.499893 0.611345 0.900676
C27   C     C_R   0.692437 0.423146 0.878020 0.596774
C28   C     C_R   0.531448 0.284284 0.125422 0.603244
C29   C     C_R   0.526679 0.274837 0.876581 0.578263
C30   C     C_R   0.698123 0.431591 0.126860 0.579875
C31   C     C_R   0.531278 0.262924 0.938590 -0.095612
C32   C     C_R   0.709091 0.423165 0.065127 -0.098355
C33   C     C_R   0.618320 0.343753 0.970785 -0.043315
C34   C     C_R   0.619339 0.345847 0.032896 -0.043596
C35   C     C_R   0.707980 0.417487 0.940262 -0.130688
C36   C     C_R   0.534458 0.265917 0.063495 -0.134122
C37   C     C_R   0.452191 0.175525 0.969025 0.420902
C38   C     C_R   0.804469 0.489422 0.034970 0.413899
C39   C     C_R   0.455508 0.174882 0.031280 -0.100190
C40   C     C_R   0.805696 0.484142 0.972808 -0.098538
H1    H     H_    0.651714 0.644929 0.322686 0.225090
H2    H     H_    0.341468 0.364136 0.676966 0.219563
H3    H     H_    0.333439 0.391861 0.311521 0.200802
H4    H     H_    0.636543 0.649573 0.689615 0.204349
N1    N     N_R   0.581551 0.383039 0.851437 -0.317254
N2    N     N_R   0.588673 0.393942 0.151158 -0.316591
N3    N     N_R   0.500000 0.857200 0.500000 -0.161361
N4    N     N_R   0.500000 0.142800 0.500000 -0.162534
O1    O     O_R   0.316770 0.614620 0.500000 -0.589544
O2    O     O_R   0.683230 0.385380 0.500000 -0.588013
O3    O     O_R   0.683230 0.614620 0.500000 -0.591401
O4    O     O_R   0.316770 0.385380 0.500000 -0.590251
O5    O     O_R   0.499970 0.614690 0.416160 -0.613490
O6    O     O_R   0.500030 0.385310 0.583840 -0.608052
O7    O     O_R   0.500030 0.614690 0.583840 -0.602247
O8    O     O_R   0.499970 0.385310 0.416160 -0.593952
O9    O     O_2   0.787045 0.461383 0.844454 -0.541370
O10   O     O_2   0.478649 0.191969 0.159643 -0.532581
O11   O     O_2   0.477269 0.176249 0.842126 -0.501416
O12   O     O_2   0.796935 0.466904 0.162102 -0.512606
Zn1   Zn    Zn3+2 0.500000 0.653120 0.500000 1.036692
Zn2   Zn    Zn3+2 0.500000 0.346880 0.500000 1.040825
O13   O     O_3   0.364040 0.096775 0.939501 -0.669182
H5    H     H_    0.317190 0.155085 0.911205 0.373244
O14   O     O_3   0.892451 0.568402 0.064471 -0.670895
H6    H     H_    0.847119 0.629748 0.090808 0.371241
C41   C     C_2   0.364973 0.087748 0.060398 1.105071
O15   O     O_2   0.373906 0.966071 0.055884 -0.527005
O16   O     O_R   0.267018 0.144892 0.090936 -0.742512
H7    H     H_    0.210896 0.075185 0.108468 0.363461
C42   C     C_2   0.903459 0.561851 0.943814 1.104192
O17   O     O_2   0.012862 0.528551 0.950267 -0.542381
O18   O     O_R   0.870856 0.675750 0.911154 -0.748324
H8    H     H_    0.945815 0.720807 0.893925 0.366091
C43   C     C_2   0.666750 0.675177 0.204669 1.013144
O19   O     O_2   0.749430 0.740822 0.229792 -0.547709
O20   O     O_R   0.625022 0.709012 0.147319 -0.785633
H9    H     H_    0.671453 0.788285 0.131154 0.360306
C44   C     C_2   0.310710 0.349720 0.794351 1.004812
O21   O     O_2   0.237412 0.272691 0.769077 -0.546996
O22   O     O_R   0.285056 0.399902 0.850561 -0.784514
H10   H     H_    0.204041 0.364012 0.865830 0.370306
C45   C     C_2   0.313532 0.384799 0.192753 1.034477
O23   O     O_2   0.300679 0.428231 0.142423 -0.549997
O24   O     O_R   0.218864 0.308017 0.216470 -0.760388
H11   H     H_    0.145503 0.293975 0.187484 0.387029
C46   C     C_2   0.640687 0.671938 0.807945 1.065654
O25   O     O_2   0.603363 0.692539 0.857687 -0.560974
O26   O     O_R   0.728309 0.758270 0.784403 -0.752281
H12   H     H_    0.754692 0.832566 0.813011 0.378559
C47   C     C_2   0.124136 0.246201 0.524264 1.037215
O27   O     O_2   0.126579 0.153918 0.488581 -0.567543
O28   O     O_R   0.183421 0.233786 0.580133 -0.770534
H13   H     H_    0.225271 0.143471 0.585850 0.352424
C48   C     C_2   0.880143 0.741827 0.461003 1.040682
O29   O     O_2   0.834101 0.736603 0.410679 -0.606978
O30   O     O_R   0.872173 0.859617 0.494065 -0.690958
H14   H     H_    0.818919 0.928779 0.472462 0.363441
C49   C     C_2   0.874969 0.245765 0.471890 1.031479
O31   O     O_2   0.875367 0.152629 0.506568 -0.565665
O32   O     O_R   0.812131 0.234309 0.416733 -0.756850
H15   H     H_    0.770598 0.143876 0.410613 0.352488
C50   C     C_2   0.117101 0.744692 0.534297 1.040301
O33   O     O_2   0.160354 0.744380 0.585163 -0.592117
O34   O     O_R   0.127373 0.858770 0.499763 -0.691260
H16   H     H_    0.180359 0.929443 0.520870 0.363541
C51   C     C_2   0.609226 0.144981 0.598048 0.996822
O35   O     O_2   0.705602 0.207757 0.592606 -0.563718
O36   O     O_R   0.553797 0.140017 0.652977 -0.743875
H17   H     H_    0.602723 0.191812 0.684844 0.362471
C52   C     C_2   0.391564 0.854272 0.401908 1.004292
O37   O     O_2   0.444418 0.850848 0.354921 -0.576071
O38   O     O_R   0.277286 0.789754 0.407116 -0.744248
H18   H     H_    0.248350 0.742369 0.369219 0.348398
C53   C     C_2   0.394787 0.140169 0.400693 0.980453
O39   O     O_2   0.301332 0.208875 0.405061 -0.571835
O40   O     O_R   0.448194 0.122484 0.345711 -0.742940
H19   H     H_    0.395430 0.161450 0.311966 0.371201
C54   C     C_2   0.613939 0.859340 0.596730 0.984173
O41   O     O_2   0.568027 0.863700 0.645372 -0.575895
O42   O     O_R   0.727850 0.794952 0.589194 -0.748733
H20   H     H_    0.766159 0.758517 0.627424 0.346732

loop_
_geom_bond_atom_site_label_1
_geom_bond_atom_site_label_2
_ccdc_geom_bond_type
C38   C40   A    
C46   O25   D    
O28   H13   S    
C40   C42   S    
C8    C26   S    
O18   H8    S    
C48   O29   D    
O3    Zn1   S    
C25   O8    A    
C26   O7    A    
O30   H14   S    
C52   O38   S    
O20   H9    S    
C28   N2    A    
O32   H15   S    
C45   O23   D    
C25   O5    A    
C13   N2    S    
C53   O39   D    
C15   C17   A    
C5    H1    S    
C2    O2    A    
C33   C35   A    
O5    Zn1   S    
C29   O11   S    
C1    C20   S    
C30   O12   S    
C51   O35   D    
C31   C33   A    
C32   C38   A    
C3    C43   S    
C18   C20   A    
C3    C13   A    
C21   N4    A    
C27   N1    A    
C22   N3    A    
C51   O36   S    
C26   O6    A    
C37   O13   S    
O22   H10   S    
C14   N1    S    
C54   O42   S    
C15   C20   A    
C37   C39   A    
C9    H3    S    
O1    Zn1   S    
C10   H4    S    
C41   O15   D    
C4    C44   S    
C4    C6    A    
C27   O9    S    
C47   O27   D    
C44   O22   S    
C6    C8    A    
O6    Zn2   S    
C27   C35   A    
O24   H11   S    
C23   C53   S    
C17   C49   S    
O13   H5    S    
C29   N1    A    
C41   O16   S    
C32   C34   A    
C43   O19   D    
C47   O28   S    
C9    C11   A    
N4    Zn2   S    
C49   O31   D    
C38   O14   S    
C29   C31   A    
C33   C34   A    
C50   O34   S    
C43   O20   S    
O42   H20   S    
C21   C51   S    
C10   C12   A    
C8    C10   A    
C45   O24   S    
C12   C14   A    
O14   H6    S    
C46   O26   S    
O2    Zn2   S    
O8    Zn2   S    
C24   C54   S    
C5    C7    A    
O38   H18   S    
C7    C9    A    
C53   O40   S    
C16   C48   S    
C23   N4    A    
C52   O37   D    
C49   O32   S    
C2    C19   S    
C24   N3    A    
C39   C41   S    
C30   N2    A    
C36   C39   A    
C3    C5    A    
N3    Zn1   S    
C54   O41   D    
C48   O30   S    
C28   O10   S    
O34   H16   S    
C7    C25   S    
C11   C45   S    
C35   C40   A    
C42   O17   D    
C12   C46   S    
O4    Zn2   S    
O36   H17   S    
C30   C32   A    
C11   C13   A    
C16   C19   A    
O7    Zn1   S    
C17   C19   A    
C34   C36   A    
C18   C50   S    
C4    C14   A    
O16   H7    S    
C1    O4    A    
C2    O3    A    
C15   C47   S    
C44   O21   D    
C31   C37   A    
C28   C36   A    
C16   C18   A    
C22   C52   S    
C6    H2    S    
C21   C24   A    
C42   O18   S    
C50   O33   D    
C22   C23   A    
O26   H12   S    
O40   H19   S    
C1    O1    A    
