data_mof_unit_38828.cif
_audit_creation_date              2012-12-10T20:39:53-0500
_audit_creation_method            fapswitch 2.2
_symmetry_space_group_name_H-M    P1
_symmetry_Int_Tables_number       1
_space_group_crystal_system       triclinic
_cell_length_a                    23.406866
_cell_length_b                    10.676161
_cell_length_c                    9.873968
_cell_angle_alpha                 89.920162
_cell_angle_beta                  90.14625
_cell_angle_gamma                 90.240512
_cell_volume                      2467.42773685

loop_
_atom_site_label
_atom_site_type_symbol
_atom_type_description
_atom_site_fract_x
_atom_site_fract_y
_atom_site_fract_z
_atom_type_partial_charge
C1    C     C_R   0.498927 0.260100 0.500148 0.882888
C2    C     C_R   0.970212 0.314358 0.638777 -0.156439
C3    C     C_R   0.029665 0.314880 0.640794 -0.156678
C4    C     C_R   0.060199 0.412030 0.577611 -0.015369
C5    C     C_R   0.030597 0.509936 0.512767 -0.021619
C6    C     C_R   0.060873 0.607756 0.448906 -0.016476
C7    C     C_R   0.030970 0.705132 0.385027 -0.156386
C8    C     C_R   0.971492 0.705114 0.383911 -0.156122
C9    C     C_R   0.119840 0.413687 0.576717 0.507178
C10   C     C_R   0.120525 0.604675 0.449593 0.508857
C11   C     C_R   0.240931 0.594777 0.579732 -0.090104
C12   C     C_R   0.389652 0.498522 0.500054 0.865303
C13   C     C_R   0.300122 0.591269 0.576303 -0.247879
C14   C     C_R   0.327819 0.498619 0.501073 -0.081566
C15   C     C_R   0.296029 0.406785 0.431221 -0.039525
C16   C     C_R   0.236647 0.411472 0.434556 -0.130449
C17   C     C_R   0.209247 0.505317 0.508404 0.290668
C18   C     C_R   0.762787 0.489635 0.381906 -0.096270
C19   C     C_R   0.703467 0.487568 0.380164 -0.216270
C20   C     C_R   0.672981 0.502554 0.501255 -0.042783
C21   C     C_R   0.702492 0.520254 0.623766 -0.222200
C22   C     C_R   0.761739 0.522862 0.625059 -0.096343
C23   C     C_R   0.498722 0.739864 0.500003 0.886478
C24   C     C_R   0.791871 0.507238 0.504316 0.314130
C25   C     C_R   0.503471 0.063663 0.621205 0.123839
C26   C     C_R   0.492398 0.128373 0.501785 -0.102270
C27   C     C_R   0.472628 0.064755 0.386609 -0.195480
C28   C     C_R   0.472363 0.935171 0.386635 -0.212237
C29   C     C_R   0.491925 0.871438 0.501804 -0.105705
C30   C     C_R   0.503035 0.935958 0.621332 0.129304
C31   C     C_3   0.554024 0.928265 0.712393 -0.469082
C32   C     C_3   0.554858 0.070120 0.711385 -0.476246
C33   C     C_R   0.451445 0.526616 0.071094 0.168426
C34   C     C_R   0.610688 0.500461 0.500200 0.874683
C35   C     C_R   0.549419 0.485069 0.072132 -0.121460
C36   C     C_R   0.549503 0.486342 0.928353 -0.151845
C37   C     C_R   0.451079 0.521793 0.929090 0.190060
C38   C     C_3   0.395524 0.450390 0.928313 -0.107039
C39   C     C_3   0.395183 0.461857 0.082346 -0.473336
C40   C     C_R   0.881276 0.604943 0.445711 0.504718
C41   C     C_R   0.880705 0.412172 0.569649 0.504327
C42   C     C_R   0.940324 0.411225 0.573981 -0.014696
C43   C     C_R   0.970572 0.509664 0.511186 -0.021119
C44   C     C_R   0.940945 0.607527 0.446310 -0.015002
H1    H     H_    0.947815 0.237875 0.687876 0.194259
H2    H     H_    0.681607 0.473549 0.284558 0.152935
H3    H     H_    0.679916 0.532701 0.718365 0.154582
H4    H     H_    0.784357 0.536906 0.719687 0.144196
H5    H     H_    0.460380 0.114321 0.295299 0.174444
H6    H     H_    0.459922 0.885711 0.295399 0.171787
H7    H     H_    0.543159 0.887850 0.812964 0.208446
H8    H     H_    0.591746 0.885851 0.662095 0.206380
H9    H     H_    0.545250 0.111461 0.811818 0.207233
H10   H     H_    0.592885 0.110534 0.659688 0.208518
H11   H     H_    0.589091 0.470503 0.125943 0.149207
H12   H     H_    0.051558 0.238727 0.691287 0.193918
H13   H     H_    0.589248 0.473040 0.874955 0.153291
H14   H     H_    0.360968 0.506583 0.880560 0.149406
H15   H     H_    0.361534 0.526167 0.119894 0.185685
H16   H     H_    0.398026 0.373294 0.140032 0.234099
H17   H     H_    0.053375 0.781355 0.335481 0.193948
H18   H     H_    0.949593 0.781371 0.333620 0.194197
H19   H     H_    0.219586 0.666596 0.637847 0.151199
H20   H     H_    0.324412 0.661282 0.631488 0.153203
H21   H     H_    0.211421 0.341581 0.381494 0.152322
H22   H     H_    0.786240 0.477052 0.288542 0.144334
N1    N     N_R   0.852695 0.508100 0.506403 -0.358765
N2    N     N_R   0.148472 0.508420 0.512384 -0.354847
N3    N     N_R   0.499610 0.499140 0.142800 -0.101212
N4    N     N_R   0.499610 0.499180 0.857150 -0.105742
O1    O     O_R   0.500010 0.316790 0.614690 -0.616229
O2    O     O_2   0.850816 0.317721 0.627091 -0.555414
O3    O     O_2   0.149153 0.321745 0.639672 -0.557692
O4    O     O_2   0.150477 0.696028 0.386784 -0.554683
O5    O     O_R   0.500000 0.316760 0.385350 -0.617864
O6    O     O_R   0.416160 0.499980 0.614700 -0.638714
O7    O     O_R   0.416150 0.499940 0.385360 -0.613341
O8    O     O_R   0.500000 0.683240 0.614650 -0.615193
O9    O     O_R   0.499990 0.683210 0.385310 -0.615975
O10   O     O_R   0.583850 0.500060 0.614640 -0.628827
O11   O     O_R   0.583840 0.500020 0.385300 -0.625714
O12   O     O_2   0.851915 0.698573 0.385917 -0.554521
Zn1   Zn    Zn3+2 0.500000 0.500020 0.653130 0.939400
Zn2   Zn    Zn3+2 0.500000 0.499980 0.346870 0.952613
C45   C     C_3   0.396351 0.314139 0.873743 -0.290895
C46   C     C_3   0.441123 0.226073 0.935132 -0.826844
H23   H     H_    0.484681 0.265865 0.927244 0.265149
H24   H     H_    0.431656 0.203961 0.042445 0.245088
H25   H     H_    0.440288 0.136181 0.878758 0.237041
H26   H     H_    0.353477 0.272168 0.891199 0.205493
H27   H     H_    0.402621 0.316290 0.762697 0.233827
C47   C     C_1   0.323028 0.302816 0.363756 0.155616
N5    N     N_1   0.344398 0.218772 0.310420 -0.222209

loop_
_geom_bond_atom_site_label_1
_geom_bond_atom_site_label_2
_ccdc_geom_bond_type
C22   H4    S    
C10   O4    S    
C41   C42   A    
C19   C20   A    
C31   H8    S    
C45   H27   S    
C19   H2    S    
C7    C8    A    
C41   N1    A    
C45   C46   S    
C26   C27   A    
C29   C30   A    
C18   C24   A    
C23   C29   S    
C21   C22   A    
C28   C29   A    
C11   H19   S    
O9    Zn2   S    
C46   H24   S    
O5    Zn2   S    
C15   C16   A    
C18   C19   A    
C7    H17   S    
C24   N1    S    
C34   O10   A    
C15   C47   S    
C38   H14   S    
C28   H6    S    
O8    Zn1   S    
C33   C39   S    
C35   C36   A    
C16   C17   A    
C40   N1    A    
C34   O11   A    
C33   N3    A    
C20   C34   S    
C25   C32   S    
C5    C43   A    
C13   C14   A    
C9    O3    S    
O10   Zn1   S    
O6    Zn1   S    
C32   H10   S    
C36   N4    A    
O1    Zn1   S    
C2    H1    S    
C38   C39   S    
C38   C45   S    
C35   H11   S    
C1    O5    A    
C40   O12   S    
C36   H13   S    
C46   H23   S    
O7    Zn2   S    
C25   C26   A    
C33   C37   A    
C43   C44   A    
C37   C38   S    
C3    H12   S    
C31   C32   S    
C30   C31   S    
C39   H15   S    
C12   O7    A    
C1    O1    A    
N4    Zn1   S    
C41   O2    S    
C12   C14   S    
C12   O6    A    
C1    C26   S    
C22   C24   A    
C42   C43   A    
C3    C4    A    
C32   H9    S    
O11   Zn2   S    
C25   C30   A    
C11   C17   A    
C17   N2    S    
C8    C44   A    
C31   H7    S    
C4    C5    A    
C46   H25   S    
C6    C10   A    
C45   H26   S    
C6    C7    A    
C10   N2    A    
C18   H22   S    
C2    C3    A    
C9    N2    A    
N3    Zn2   S    
C11   C13   A    
C5    C6    A    
C13   H20   S    
C2    C42   A    
C39   H16   S    
C47   N5    T    
C23   O8    A    
C40   C44   A    
C20   C21   A    
C35   N3    A    
C27   C28   A    
C14   C15   A    
C16   H21   S    
C23   O9    A    
C4    C9    A    
C37   N4    A    
C27   H5    S    
C8    H18   S    
C21   H3    S    
