data_mof_unit_41927.cif
_audit_creation_date              2012-10-26T19:15:05-0400
_audit_creation_method            fapswitch 2.2
_symmetry_space_group_name_H-M    P1
_symmetry_Int_Tables_number       1
_space_group_crystal_system       triclinic
_cell_length_a                    10.867234
_cell_length_b                    10.898249
_cell_length_c                    9.580298
_cell_angle_alpha                 90.900287
_cell_angle_beta                  89.284407
_cell_angle_gamma                 91.858213
_cell_volume                      1133.81317664

loop_
_atom_site_label
_atom_site_type_symbol
_atom_type_description
_atom_site_fract_x
_atom_site_fract_y
_atom_site_fract_z
_atom_type_partial_charge
C1    C     C_R   0.493997 0.262444 0.498633 0.589477
C2    C     C_R   0.514017 0.940344 0.622336 -0.060537
C3    C     C_3   0.447445 0.941230 0.762551 0.556873
C4    C     C_R   0.262446 0.500774 0.500709 0.566463
C5    C     C_3   0.440245 0.080779 0.753348 0.241285
C6    C     C_R   0.605854 0.525296 0.072522 0.128552
C7    C     C_R   0.398771 0.462161 0.074684 -0.031541
C8    C     C_R   0.399246 0.461766 0.926291 -0.051913
C9    C     C_R   0.606530 0.523277 0.925296 0.191182
C10   C     C_3   0.685898 0.636904 0.918483 0.118889
C11   C     C_3   0.682118 0.641356 0.077328 -0.224561
C12   C     C_R   0.933025 0.483427 0.620239 0.039185
C13   C     C_R   0.493077 0.737274 0.501394 0.583166
C14   C     C_R   0.737107 0.491859 0.498315 0.549527
C15   C     C_R   0.060146 0.497848 0.624604 0.029384
C16   C     C_R   0.129014 0.503826 0.500512 -0.061296
C17   C     C_R   0.067397 0.503628 0.372594 -0.082743
C18   C     C_R   0.940104 0.487162 0.367614 0.205176
C19   C     C_R   0.870662 0.482968 0.494085 0.014923
C20   C     C_3   0.640029 0.948429 0.883939 -0.216462
C21   C     C_3   0.260728 0.136545 0.863772 -0.084226
C22   C     C_3   0.871377 0.721190 0.841931 -0.108400
C23   C     C_3   0.931461 0.383244 0.725984 0.181356
C24   C     C_3   0.805069 0.208369 0.731141 -0.150257
C25   C     C_3   0.501954 0.137963 0.162643 -0.123994
C26   C     C_3   0.412541 0.855406 0.161487 -0.038552
C27   C     C_3   0.310068 0.773731 0.824282 -0.045352
C28   C     C_3   0.069028 0.406547 0.738256 0.117742
C29   C     C_R   0.509320 0.067608 0.618431 -0.122701
C30   C     C_R   0.486695 0.128667 0.495676 0.001588
C31   C     C_R   0.448946 0.059501 0.376636 0.276059
C32   C     C_R   0.437596 0.930086 0.385399 0.268140
C33   C     C_R   0.481660 0.870638 0.503596 -0.010816
Cu1   Cu    Cu3+1 0.499990 0.499980 0.640670 0.955992
Cu2   Cu    Cu3+1 0.500010 0.500020 0.359330 0.964502
H1    H     H_    0.118285 0.506520 0.274643 0.169924
H2    H     H_    0.647229 0.048286 0.905020 0.082869
H3    H     H_    0.692674 0.923946 0.788234 0.115650
H4    H     H_    0.685824 0.906108 0.972989 0.125855
H5    H     H_    0.303794 0.214899 0.922592 0.085675
H6    H     H_    0.262284 0.052350 0.927622 0.150127
H7    H     H_    0.162670 0.156405 0.847279 0.139503
H8    H     H_    0.871096 0.783664 0.934935 0.104123
H9    H     H_    0.835607 0.767366 0.748926 0.111015
H10   H     H_    0.968636 0.699313 0.819324 0.182044
H11   H     H_    0.828084 0.398147 0.246496 0.336782
H12   H     H_    0.493339 0.139754 0.828092 0.065751
H13   H     H_    0.721873 0.265125 0.729782 0.146897
H14   H     H_    0.829238 0.186584 0.840280 0.102080
H15   H     H_    0.782669 0.120777 0.675276 0.141653
H16   H     H_    0.096282 0.399825 0.936067 0.314186
H17   H     H_    0.594187 0.106792 0.194895 0.077124
H18   H     H_    0.510613 0.236946 0.138803 0.160250
H19   H     H_    0.477159 0.091095 0.063672 0.125845
H20   H     H_    0.401771 0.759198 0.123002 0.143697
H21   H     H_    0.512246 0.881831 0.155579 0.110726
H22   H     H_    0.360112 0.913958 0.091867 0.170372
H23   H     H_    0.316138 0.431907 0.129635 0.141370
H24   H     H_    0.261483 0.792324 0.924257 0.102549
H25   H     H_    0.395441 0.724122 0.843483 0.174030
H26   H     H_    0.248834 0.711128 0.762207 0.166688
H27   H     H_    0.318415 0.430632 0.871187 0.176862
H28   H     H_    0.638125 0.709581 0.863241 0.165050
H29   H     H_    0.773112 0.629962 0.125440 0.214204
H30   H     H_    0.631171 0.719486 0.120898 0.088961
H31   H     H_    0.879627 0.405397 0.823871 0.190690
H32   H     H_    0.127892 0.328009 0.710333 0.166263
N1    N     N_R   0.500790 0.500930 0.147930 -0.256932
N2    N     N_R   0.500790 0.500890 0.852020 -0.284446
O1    O     O_R   0.500000 0.319640 0.618810 -0.507421
O2    O     O_3   0.319130 0.120434 0.732564 -0.524834
O3    O     O_3   0.804125 0.610774 0.866201 -0.565859
O4    O     O_3   0.889133 0.467255 0.238179 -0.705821
O5    O     O_3   0.905373 0.267182 0.662531 -0.588405
O6    O     O_3   0.098940 0.465205 0.865047 -0.739711
O7    O     O_3   0.405060 0.117768 0.260821 -0.539452
O8    O     O_3   0.360788 0.863127 0.296232 -0.535777
O9    O     O_3   0.327557 0.884316 0.750660 -0.534607
O10   O     O_R   0.500010 0.319680 0.381230 -0.485331
O11   O     O_R   0.319650 0.499970 0.618810 -0.504326
O12   O     O_R   0.319660 0.500010 0.381230 -0.507443
O13   O     O_R   0.499990 0.680320 0.618770 -0.512473
O14   O     O_R   0.500000 0.680360 0.381190 -0.481127
O15   O     O_R   0.680340 0.499990 0.618770 -0.483008
O16   O     O_R   0.680350 0.500030 0.381190 -0.506385
O17   O     O_3   0.516200 0.902851 0.879956 -0.651566

loop_
_geom_bond_atom_site_label_1
_geom_bond_atom_site_label_2
_ccdc_geom_bond_type
C10   H28   S    
C14   O15   A    
C27   O9    S    
C26   H20   S    
C6    C9    A    
Cu2   O12   S    
C7    C8    A    
C5    H12   S    
C12   C23   S    
C8    N2    A    
C21   O2    S    
C2    C29   A    
C23   H31   S    
C25   H18   S    
C4    O11   A    
C27   H25   S    
C30   C31   A    
Cu1   Cu2   S    
C15   C16   A    
C18   C19   A    
C27   H26   S    
Cu1   O11   S    
C7    N1    A    
C22   H9    S    
C4    O12   A    
C31   C32   A    
C16   C17   A    
C20   O17   S    
C17   H1    S    
C9    C10   S    
Cu1   O1    S    
C7    H23   S    
C6    N1    A    
C32   O8    S    
C3    O17   S    
Cu1   O15   S    
C22   O3    S    
C5    C29   S    
C24   H15   S    
C26   O8    S    
C3    O9    S    
C24   H13   S    
C28   H32   S    
C25   H19   S    
C11   H29   S    
C6    C11   S    
C20   H4    S    
Cu2   O14   S    
C13   O13   A    
C4    C16   S    
C13   C33   S    
C29   C30   A    
C20   H3    S    
C22   H8    S    
C12   C15   A    
C17   C18   A    
C23   C28   S    
Cu1   N2    S    
C21   H6    S    
C2    C33   A    
C18   O4    S    
C1    O10   A    
C23   O5    S    
C15   C28   S    
H16   O6    S    
C24   H14   S    
C14   C19   S    
C14   O16   A    
C9    N2    A    
C3    C5    S    
C26   H21   S    
C13   O14   A    
C1    O1    A    
C25   O7    S    
C32   C33   A    
C2    C3    S    
C25   H17   S    
C5    O2    S    
C27   H24   S    
C20   H2    S    
Cu2   O16   S    
C24   O5    S    
C31   O7    S    
C21   H5    S    
Cu2   N1    S    
C12   C19   A    
Cu2   O10   S    
C1    C30   S    
C26   H22   S    
C10   C11   S    
C21   H7    S    
C22   H10   S    
Cu1   O13   S    
C28   O6    S    
H11   O4    S    
C11   H30   S    
C8    H27   S    
C10   O3    S    
