data_mof_unit_50883.cif
_audit_creation_date              2012-12-10T17:56:19-0500
_audit_creation_method            fapswitch 2.2
_symmetry_space_group_name_H-M    P1
_symmetry_Int_Tables_number       1
_space_group_crystal_system       triclinic
_cell_length_a                    12.939029
_cell_length_b                    10.921661
_cell_length_c                    9.530452
_cell_angle_alpha                 89.968716
_cell_angle_beta                  95.129475
_cell_angle_gamma                 91.223259
_cell_volume                      1341.10175203

loop_
_atom_site_label
_atom_site_type_symbol
_atom_type_description
_atom_site_fract_x
_atom_site_fract_y
_atom_site_fract_z
_atom_type_partial_charge
C1    C     C_R   0.498899 0.262158 0.499587 0.945168
C2    C     C_R   0.497511 0.737929 0.499361 0.929493
C3    C     C_R   0.491565 0.871951 0.496628 -0.345374
C4    C     C_R   0.494148 0.128292 0.497256 -0.330332
C5    C     C_R   0.426374 0.434971 0.066041 0.462555
C6    C     C_R   0.573072 0.566110 0.933989 0.485819
C7    C     C_R   0.424507 0.436745 0.916055 0.384541
C8    C     C_R   0.573840 0.566262 0.084088 0.358148
C9    C     C_R   0.301125 0.500225 0.475149 0.904091
C10   C     C_R   0.698900 0.499982 0.524798 0.926155
C11   C     C_R   0.810348 0.513681 0.534609 -0.250484
C12   C     C_R   0.189728 0.486594 0.465048 -0.238643
C13   C     C_R   0.040174 0.351128 0.429975 -0.241344
C14   C     C_R   0.959932 0.649173 0.569860 -0.236007
C15   C     C_R   0.145287 0.373460 0.422089 0.516999
C16   C     C_R   0.854936 0.626475 0.578660 0.534945
C17   C     C_R   0.129926 0.578855 0.517492 0.383914
C18   C     C_R   0.869988 0.422084 0.480469 0.377502
C19   C     C_R   0.022596 0.557869 0.521416 -0.092950
C20   C     C_R   0.977429 0.442774 0.477479 -0.092536
C21   C     C_R   0.517181 0.064606 0.375396 0.354050
C22   C     C_R   0.475927 0.936658 0.620589 0.321507
C23   C     C_R   0.503244 0.937167 0.370127 0.374361
C24   C     C_R   0.463688 0.063201 0.614697 0.324560
Cu1   Cu    Cu3+1 0.500000 0.500020 0.640660 1.078513
Cu2   Cu    Cu3+1 0.500000 0.499980 0.359340 1.067590
H1    H     H_    0.008477 0.261674 0.398908 0.213557
H2    H     H_    0.991624 0.738528 0.601330 0.213281
N1    N     N_R   0.500030 0.500030 0.852080 -0.290277
N2    N     N_R   0.499970 0.499970 0.147920 -0.296988
O1    O     O_R   0.499990 0.319660 0.618740 -0.530049
O2    O     O_R   0.500010 0.680340 0.381260 -0.530946
O3    O     O_R   0.499990 0.319630 0.381170 -0.529069
O4    O     O_R   0.500010 0.680370 0.618830 -0.515962
O5    O     O_R   0.349000 0.499990 0.599490 -0.577557
O6    O     O_R   0.651000 0.500010 0.400510 -0.580354
O7    O     O_R   0.348990 0.499960 0.361920 -0.523693
O8    O     O_R   0.651010 0.500040 0.638080 -0.517975
O9    O     O_3   0.824609 0.308901 0.444049 -0.576774
C25   C     C_3   0.803983 0.300663 0.296087 -0.262636
H3    H     H_    0.864260 0.346261 0.236429 0.127265
H4    H     H_    0.726955 0.338520 0.262435 0.199084
H5    H     H_    0.800922 0.202467 0.266010 0.214992
O10   O     O_3   0.174842 0.692940 0.550591 -0.587935
C26   C     C_3   0.197181 0.703851 0.698041 -0.318097
H6    H     H_    0.275882 0.670002 0.730214 0.207657
H7    H     H_    0.139345 0.656446 0.760254 0.140958
H8    H     H_    0.197302 0.802332 0.726283 0.187107
F1    F     F_    0.795543 0.716734 0.624485 -0.641283
F2    F     F_    0.204835 0.282758 0.377624 -0.654024
O11   O     O_3   0.569781 0.124398 0.273612 -0.564985
C27   C     C_3   0.505654 0.136139 0.146940 -0.127530
H9    H     H_    0.533435 0.216916 0.089561 0.159011
H10   H     H_    0.422648 0.150189 0.163783 0.194854
H11   H     H_    0.513686 0.056104 0.077972 0.176609
O12   O     O_3   0.466239 0.876589 0.746787 -0.576191
C28   C     C_3   0.559917 0.894090 0.833094 -0.132171
H12   H     H_    0.627033 0.857916 0.781834 0.226490
H13   H     H_    0.554183 0.843483 0.932964 0.205968
H14   H     H_    0.574821 0.992162 0.860471 0.150197
O13   O     O_3   0.511225 0.876998 0.243946 -0.517525
C29   C     C_3   0.409708 0.852500 0.180195 -0.260673
H15   H     H_    0.360684 0.799923 0.250303 0.163141
H16   H     H_    0.415266 0.796284 0.084410 0.177191
H17   H     H_    0.369487 0.938040 0.147576 0.131574
O14   O     O_3   0.430385 0.123089 0.729808 -0.539011
C30   C     C_3   0.321811 0.105630 0.728090 -0.157783
H18   H     H_    0.281375 0.161142 0.642913 0.187757
H19   H     H_    0.297041 0.136599 0.830364 0.187829
H20   H     H_    0.296757 0.007766 0.716341 0.144876
F3    F     F_    0.355809 0.366086 0.129476 -0.632050
F4    F     F_    0.643762 0.634455 0.870321 -0.636513
O15   O     O_3   0.351395 0.368711 0.832571 -0.517253
C31   C     C_3   0.249343 0.398286 0.860677 -0.229297
H21   H     H_    0.242052 0.494397 0.897146 0.122099
H22   H     H_    0.220508 0.333321 0.938539 0.212469
H23   H     H_    0.197669 0.386935 0.762056 0.154619
O16   O     O_3   0.642187 0.641015 0.167429 -0.499141
C32   C     C_3   0.746341 0.619323 0.142705 -0.145945
H24   H     H_    0.772555 0.685655 0.064384 0.210824
H25   H     H_    0.759703 0.523728 0.108800 0.101031
H26   H     H_    0.795910 0.635532 0.242316 0.157007

loop_
_geom_bond_atom_site_label_1
_geom_bond_atom_site_label_2
_ccdc_geom_bond_type
Cu1   O1    S    
C11   C18   A    
Cu2   O2    S    
C7    N1    A    
O15   C31   S    
C3    C23   A    
C19   C20   A    
C1    O3    A    
C7    O15   S    
C26   H6    S    
C27   H9    S    
C6    F4    S    
C31   H22   S    
C4    C24   A    
C28   H13   S    
C1    O1    A    
O12   C28   S    
C2    O2    A    
C15   F2    S    
C29   H16   S    
C25   H5    S    
C31   H23   S    
C12   C17   A    
C14   C16   A    
C29   H17   S    
C27   H11   S    
C24   O14   S    
Cu1   O4    S    
C2    O4    A    
C25   H4    S    
O14   C30   S    
C8    O16   S    
C27   H10   S    
C26   H7    S    
Cu1   N1    S    
C31   H21   S    
C30   H18   S    
C16   F1    S    
O9    C25   S    
C5    C7    A    
O16   C32   S    
C28   H14   S    
C6    C8    A    
Cu1   Cu2   S    
O11   C27   S    
C30   H19   S    
C18   O9    S    
C29   H15   S    
Cu1   O8    S    
C11   C16   A    
Cu2   O3    S    
C12   C15   A    
C9    O7    A    
Cu1   O5    S    
Cu2   O6    S    
C25   H3    S    
Cu2   N2    S    
C21   C23   A    
C22   C24   A    
C21   O11   S    
O10   C26   S    
C32   H25   S    
C5    N2    A    
C26   H8    S    
C13   C20   A    
C14   C19   A    
C32   H26   S    
C22   O12   S    
Cu2   O7    S    
C10   O8    A    
C1    C4    S    
C8    N2    A    
C30   H20   S    
C13   C15   A    
C2    C3    S    
C17   O10   S    
C5    F3    S    
C4    C21   A    
C28   H12   S    
C17   C19   A    
C18   C20   A    
O13   C29   S    
C9    C12   S    
C10   C11   S    
C32   H24   S    
C23   O13   S    
C6    N1    A    
C9    O5    A    
C13   H1    S    
C3    C22   A    
C10   O6    A    
C14   H2    S    
