data_mof_unit_17275.cif
_audit_creation_date              2012-12-10T20:57:49-0500
_audit_creation_method            fapswitch 2.2
_symmetry_space_group_name_H-M    P1
_symmetry_Int_Tables_number       1
_space_group_crystal_system       triclinic
_cell_length_a                    18.158555
_cell_length_b                    18.262418
_cell_length_c                    18.44164
_cell_angle_alpha                 120.070507
_cell_angle_beta                  90.047509
_cell_angle_gamma                 119.790986
_cell_volume                      4331.60929547

loop_
_atom_site_label
_atom_site_type_symbol
_atom_type_description
_atom_site_fract_x
_atom_site_fract_y
_atom_site_fract_z
_atom_type_partial_charge
C1    C     C_R   0.363805 0.220072 0.360551 0.798982
C2    C     C_3   0.797421 0.941762 0.703197 -0.417353
C3    C     C_2   0.361979 0.215739 0.713193 0.319342
C4    C     C_3   0.365185 0.110163 0.171745 -0.339821
C5    C     C_3   0.315007 0.133432 0.128286 -0.329140
C6    C     C_3   0.378565 0.211563 0.110104 -0.831009
C7    C     C_2   0.669496 0.219561 0.670587 0.361589
C8    C     C_3   0.620907 0.480131 0.915451 -0.451687
C9    C     C_3   0.711219 0.569239 0.990607 -0.317896
C10   C     C_3   0.716786 0.669292 0.042128 -0.793569
C11   C     C_2   0.389483 0.468311 0.776764 0.415287
C12   C     C_3   0.698243 0.897829 0.701659 0.114619
C13   C     C_R   0.640921 0.781106 0.640179 0.758988
C14   C     C_3   0.799606 0.102581 0.803727 0.181145
C15   C     C_3   0.758233 0.061063 0.859230 -0.495363
C16   C     C_3   0.856584 0.060816 0.763784 -0.385187
C17   C     C_3   0.751200 0.452511 0.310317 -0.000893
C18   C     C_3   0.816682 0.463926 0.255290 -0.585997
C19   C     C_3   0.638837 0.430030 0.203188 -0.412108
C20   C     C_3   0.765160 0.608887 0.327969 -0.424458
C21   C     C_3   0.274158 0.575533 0.359819 -0.378195
C22   C     C_3   0.698420 0.497389 0.302128 0.010927
C23   C     C_3   0.798265 0.497776 0.198898 0.027757
C24   C     C_3   0.695701 0.422022 0.141355 -0.121049
C25   C     C_R   0.361086 0.502434 0.642492 0.854937
C26   C     C_3   0.822262 0.609384 0.265220 -0.118540
C27   C     C_R   0.402365 0.168257 0.575374 -0.241894
C28   C     C_R   0.382483 0.128889 0.485299 -0.080164
C29   C     C_R   0.300415 0.097170 0.437194 0.166769
C30   C     C_R   0.238344 0.105153 0.480077 -0.207006
C31   C     C_R   0.258404 0.145009 0.570381 -0.122890
C32   C     C_3   0.300233 0.500729 0.302446 0.173971
C33   C     C_R   0.340439 0.176263 0.618524 0.087961
C34   C     C_R   0.220302 0.944602 0.285343 -0.253669
C35   C     C_R   0.202719 0.891836 0.194169 -0.078684
C36   C     C_R   0.248431 0.945649 0.156324 -0.037814
C37   C     C_R   0.640705 0.499373 0.359588 0.853550
C38   C     C_R   0.308078 0.054229 0.211586 0.031701
C39   C     C_R   0.317128 0.107394 0.303863 -0.095280
C40   C     C_R   0.278297 0.050676 0.340748 -0.034048
C41   C     C_R   0.290745 0.855729 0.026988 -0.156649
C42   C     C_R   0.277713 0.801412 0.935918 -0.112540
C43   C     C_3   0.198037 0.500653 0.200909 0.152888
C44   C     C_R   0.209347 0.779533 0.876877 -0.097060
C45   C     C_R   0.153415 0.811168 0.908637 -0.121068
C46   C     C_R   0.166337 0.865705 0.999623 -0.120905
C47   C     C_R   0.235841 0.889441 0.059557 0.157196
C48   C     C_R   0.940780 0.731100 0.652579 -0.144931
C49   C     C_R   0.641941 0.501594 0.641372 0.845716
C50   C     C_R   0.887864 0.649424 0.660234 -0.078997
C51   C     C_R   0.843562 0.660856 0.723287 0.137735
C52   C     C_R   0.854407 0.755469 0.780021 -0.143725
C53   C     C_R   0.908799 0.837589 0.773304 -0.151681
C54   C     C_3   0.152194 0.390648 0.178785 -0.443862
C55   C     C_R   0.951217 0.825135 0.709073 -0.117621
C56   C     C_R   0.841899 0.572361 0.787740 -0.253222
C57   C     C_R   0.799066 0.499561 0.807188 -0.013539
C58   C     C_R   0.704128 0.430725 0.775060 0.077530
C59   C     C_R   0.655310 0.433161 0.720168 -0.220666
C60   C     C_R   0.698257 0.504898 0.699612 -0.039442
C61   C     C_R   0.357924 0.500178 0.359613 0.744972
C62   C     C_R   0.792702 0.577194 0.735523 -0.013973
C63   C     C_R   0.635523 0.255030 0.745623 0.034774
C64   C     C_R   0.583198 0.184239 0.765640 -0.274384
C65   C     C_3   0.213112 0.574192 0.300783 -0.351777
C66   C     C_R   0.548744 0.210661 0.834750 -0.085277
C67   C     C_R   0.564167 0.307611 0.884264 -0.134059
C68   C     C_R   0.613881 0.379775 0.864885 0.070642
C69   C     C_R   0.652099 0.354780 0.796315 0.084684
C70   C     C_R   0.301625 0.727911 0.647380 -0.131093
C71   C     C_R   0.310479 0.686964 0.690978 -0.074439
C72   C     C_R   0.248164 0.581940 0.655453 0.134305
C73   C     C_3   0.351518 0.536538 0.247098 -0.397281
C74   C     C_R   0.175969 0.518829 0.576904 -0.163997
C75   C     C_R   0.166705 0.560339 0.534047 -0.154197
C76   C     C_3   0.665809 0.940627 0.664175 -0.444097
C77   C     C_R   0.229555 0.664749 0.569171 -0.134996
C78   C     C_R   0.198499 0.536482 0.757815 -0.261492
C79   C     C_R   0.199048 0.501428 0.809444 -0.053865
C80   C     C_R   0.257978 0.472334 0.811507 -0.093062
C81   C     C_R   0.317757 0.482473 0.762957 -0.057082
C82   C     C_R   0.311048 0.510324 0.705237 -0.071130
C83   C     C_R   0.253245 0.541388 0.705925 -0.043854
C84   C     C_R   0.332911 0.495210 0.942442 -0.182753
C85   C     C_3   0.290794 0.534628 0.185769 -0.134183
C86   C     C_R   0.342287 0.452995 0.984443 -0.181775
C87   C     C_3   0.722687 0.059984 0.726257 -0.411101
C88   C     C_R   0.277391 0.349590 0.950973 -0.092780
C89   C     C_R   0.203653 0.287797 0.874614 -0.039530
C90   C     C_R   0.195851 0.328634 0.830426 -0.051502
C91   C     C_R   0.260083 0.432923 0.864508 0.111336
C92   C     C_R   0.856808 0.499098 0.142334 0.723891
C93   C     C_R   0.139771 0.500533 0.862872 0.807913
C94   C     C_R   0.856906 0.218984 0.861717 0.757222
C95   C     C_R   0.139923 0.779782 0.140811 0.798783
C96   C     C_R   0.855735 0.499485 0.861911 0.798588
C97   C     C_3   0.212483 0.390649 0.238122 -0.404910
C98   C     C_3   0.694388 0.939256 0.800032 0.141710
C99   C     C_R   0.139173 0.499398 0.142838 0.739150
C100  C     C_2   0.598198 0.905215 0.798361 0.372295
C101  C     C_3   0.725628 0.897224 0.840397 -0.379758
C102  C     C_3   0.716777 0.925802 0.932632 -0.325255
C103  C     C_3   0.751823 0.884711 0.967325 -0.898693
C104  C     C_2   0.685130 0.338238 0.273482 0.460859
C105  C     C_2   0.807605 0.512246 0.406523 0.434553
C106  C     C_2   0.337649 0.635442 0.194268 0.360617
C107  C     C_2   0.663860 0.310339 0.076543 0.417837
C108  C     C_2   0.815233 0.654937 0.217790 0.344129
H1    H     H_    0.371479 0.484357 0.205396 0.151378
H2    H     H_    0.825979 0.912025 0.725074 0.180039
H3    H     H_    0.415008 0.615000 0.292741 0.190681
H4    H     H_    0.799812 0.915320 0.634706 0.178997
H5    H     H_    0.888994 0.090876 0.724812 0.172479
H6    H     H_    0.911311 0.088032 0.817850 0.173519
H7    H     H_    0.814926 0.091129 0.913059 0.158598
H8    H     H_    0.888145 0.522721 0.299945 0.184905
H9    H     H_    0.813327 0.391979 0.212395 0.137291
H10   H     H_    0.582853 0.351921 0.183301 0.207905
H11   H     H_    0.726767 0.640690 0.327111 0.213369
H12   H     H_    0.147304 0.547826 0.312554 0.156777
H13   H     H_    0.810816 0.661353 0.397723 0.147721
H14   H     H_    0.894086 0.661440 0.307899 0.122179
H15   H     H_    0.606360 0.465079 0.195612 0.187959
H16   H     H_    0.683898 0.446406 0.100593 0.158630
H17   H     H_    0.465582 0.191074 0.611078 0.128165
H18   H     H_    0.430615 0.122178 0.452719 0.140534
H19   H     H_    0.277025 0.474494 0.116364 0.116088
H20   H     H_    0.174505 0.080253 0.443504 0.130514
H21   H     H_    0.209616 0.150636 0.602320 0.157645
H22   H     H_    0.189121 0.902792 0.314582 0.179538
H23   H     H_    0.174927 0.363447 0.276771 0.158328
H24   H     H_    0.343592 0.871917 0.072182 0.124540
H25   H     H_    0.320434 0.776030 0.911058 0.135803
H26   H     H_    0.199423 0.737692 0.806465 0.125258
H27   H     H_    0.099986 0.793344 0.862751 0.124756
H28   H     H_    0.122327 0.889382 0.023562 0.107070
H29   H     H_    0.993009 0.888730 0.703810 0.126159
H30   H     H_    0.228950 0.335207 0.195205 0.180741
H31   H     H_    0.974719 0.722008 0.603744 0.125739
H32   H     H_    0.882091 0.577795 0.617916 0.173052
H33   H     H_    0.822287 0.766062 0.830360 0.122813
H34   H     H_    0.085793 0.363994 0.189232 0.163599
H35   H     H_    0.919012 0.911314 0.818541 0.110365
H36   H     H_    0.914515 0.627459 0.814280 0.168821
H37   H     H_    0.582709 0.378842 0.694442 0.159568
H38   H     H_    0.567892 0.107181 0.726814 0.121322
H39   H     H_    0.508483 0.154839 0.849006 0.178040
H40   H     H_    0.535311 0.325572 0.936787 0.155493
H41   H     H_    0.139418 0.334586 0.107691 0.179607
H42   H     H_    0.222357 0.696644 0.535746 0.128057
H43   H     H_    0.349974 0.808832 0.674799 0.126883
H44   H     H_    0.364929 0.737097 0.752937 0.162676
H45   H     H_    0.593559 0.909093 0.655751 0.177047
H46   H     H_    0.126365 0.438210 0.549822 0.127559
H47   H     H_    0.110754 0.511637 0.473636 0.130466
H48   H     H_    0.153716 0.559200 0.756759 0.172341
H49   H     H_    0.384057 0.575117 0.968468 0.142771
H50   H     H_    0.399651 0.500623 0.043315 0.134180
H51   H     H_    0.237988 0.551570 0.400500 0.179983
H52   H     H_    0.284297 0.317439 0.984267 0.115347
H53   H     H_    0.153713 0.207603 0.848454 0.111583
H54   H     H_    0.140493 0.278959 0.769221 0.107901
H55   H     H_    0.335587 0.655727 0.406011 0.196391
H56   H     H_    0.671612 0.915629 0.596891 0.175783
H57   H     H_    0.243556 0.654151 0.320534 0.222026
H58   H     H_    0.576289 0.953169 0.804986 0.058132
H59   H     H_    0.712870 0.799136 0.921165 0.271713
H60   H     H_    0.824131 0.918925 0.974408 0.250676
H61   H     H_    0.744450 0.905722 0.033407 0.257739
H62   H     H_    0.755453 0.010907 0.981343 0.204012
H63   H     H_    0.645419 0.892260 0.929179 0.263210
H64   H     H_    0.686480 0.811590 0.794429 0.213888
H65   H     H_    0.797316 0.927995 0.847289 0.182449
H66   H     H_    0.687220 0.278805 0.216746 0.039878
H67   H     H_    0.751040 0.092091 0.687554 0.165686
H68   H     H_    0.861073 0.593913 0.442557 0.034991
H69   H     H_    0.335135 0.633921 0.134702 0.061864
H70   H     H_    0.708639 0.286895 0.074409 0.062506
H71   H     H_    0.861831 0.672195 0.182583 0.047915
H72   H     H_    0.427244 0.243765 0.749854 0.081457
H73   H     H_    0.426197 0.287851 0.173605 0.292003
H74   H     H_    0.416579 0.185069 0.069875 0.279917
H75   H     H_    0.339230 0.220494 0.072945 0.229433
H76   H     H_    0.263062 0.061706 0.064095 0.209131
H77   H     H_    0.280028 0.163358 0.170805 0.235551
H78   H     H_    0.678577 0.084799 0.753489 0.178115
H79   H     H_    0.431746 0.180635 0.221664 0.247032
H80   H     H_    0.384958 0.063605 0.121228 0.184662
H81   H     H_    0.655005 0.142785 0.635988 0.059338
H82   H     H_    0.709710 0.690878 0.997231 0.249391
H83   H     H_    0.662941 0.660055 0.072675 0.277723
H84   H     H_    0.783095 0.732652 0.095707 0.254490
H85   H     H_    0.719326 0.549342 0.036499 0.235610
H86   H     H_    0.767472 0.582380 0.963650 0.203179
H87   H     H_    0.610833 0.499352 0.869619 0.222333
H88   H     H_    0.565891 0.471010 0.944544 0.209083
H89   H     H_    0.722355 0.095749 0.893963 0.148774
H90   H     H_    0.374231 0.405831 0.781577 0.103201
O1    O     O_3   0.500000 0.500000 0.500000 -0.488799
O2    O     O_R   0.113800 0.731630 0.056520 -0.636787
O3    O     O_R   0.819390 0.439310 0.886160 -0.642939
O4    O     O_R   0.383400 0.268380 0.323710 -0.646788
O5    O     O_R   0.115110 0.560720 0.179280 -0.640268
O6    O     O_R   0.941380 0.560750 0.885620 -0.649670
O7    O     O_R   0.115110 0.439270 0.057830 -0.652073
O8    O     O_R   0.942690 0.268390 0.886930 -0.654246
O9    O     O_R   0.114340 0.731630 0.178520 -0.647270
O10   O     O_R   0.820160 0.439310 0.057830 -0.658169
O11   O     O_R   0.113800 0.560730 0.885620 -0.633808
O12   O     O_R   0.383400 0.560740 0.616060 -0.620470
O13   O     O_R   0.555060 0.731630 0.615290 -0.606606
O14   O     O_R   0.383950 0.439280 0.616600 -0.625236
O15   O     O_R   0.677590 0.560710 0.444390 -0.639370
O16   O     O_R   0.556370 0.439260 0.616600 -0.632782
O17   O     O_R   0.382640 0.439290 0.322940 -0.657564
O18   O     O_R   0.678360 0.560700 0.616060 -0.626061
O19   O     O_R   0.382640 0.560750 0.444390 -0.647744
O20   O     O_2   0.543094 0.821965 0.785359 -0.587661
O21   O     O_2   0.628095 0.311292 0.306896 -0.577092
O22   O     O_2   0.795389 0.470262 0.444408 -0.557543
O23   O     O_R   0.555060 0.439270 0.322940 -0.656923
O24   O     O_2   0.376129 0.718505 0.266841 -0.574595
O25   O     O_2   0.586744 0.244921 0.024949 -0.622174
O26   O     O_2   0.758787 0.672889 0.217931 -0.590920
O27   O     O_2   0.307112 0.216706 0.751150 -0.601674
O28   O     O_2   0.713197 0.273722 0.645864 -0.565174
O29   O     O_2   0.467122 0.529620 0.787292 -0.581209
O30   O     O_R   0.383950 0.268380 0.445700 -0.636686
O31   O     O_R   0.677590 0.731610 0.615290 -0.656469
O32   O     O_3   0.997750 0.500010 0.002220 -0.475011
O33   O     O_R   0.942690 0.560750 0.179280 -0.646943
O34   O     O_R   0.114340 0.439270 0.886160 -0.647222
O35   O     O_R   0.820160 0.268410 0.886930 -0.637269
Zn1   Zn    Zn3+2 0.456040 0.586770 0.543190 1.001858
Zn2   Zn    Zn3+2 0.456820 0.413240 0.543960 1.017113
Zn3   Zn    Zn3+2 0.631110 0.586750 0.543190 1.009241
Zn4   Zn    Zn3+2 0.456040 0.413240 0.369660 0.950096
Zn5   Zn    Zn3+2 0.041710 0.413240 0.959030 0.953579
Zn6   Zn    Zn3+2 0.866640 0.413270 0.959030 0.966588
Zn7   Zn    Zn3+2 0.040930 0.586780 0.958260 0.973988
Zn8   Zn    Zn3+2 0.041710 0.586770 0.132560 0.951762

loop_
_geom_bond_atom_site_label_1
_geom_bond_atom_site_label_2
_ccdc_geom_bond_type
C102  H62   S    
C48   C55   A    
C103  H59   S    
C101  C102  S    
C21   H55   S    
C41   C42   A    
C13   O13   A    
C101  H65   S    
C35   C36   A    
C94   O8    A    
O11   Zn7   S    
C5    H77   S    
O6    Zn7   S    
C2    C12   S    
C16   H5    S    
O4    Zn4   S    
C61   O17   A    
C81   C82   A    
C57   C58   A    
C96   O3    A    
C106  O24   D    
C45   C46   A    
C11   C81   S    
C49   O18   A    
C2    H4    S    
C10   H82   S    
C49   C60   S    
C101  H64   S    
C42   H25   S    
C34   C40   A    
C4    H79   S    
C60   C62   A    
C28   C29   A    
O33   Zn8   S    
C17   C104  S    
C43   C99   S    
C14   C87   S    
C79   C93   S    
O1    Zn2   S    
O9    Zn8   S    
C5    C6    S    
C108  O26   D    
C9    H85   S    
C3    C33   S    
C65   H57   S    
C76   H45   S    
C24   H16   S    
C32   C97   S    
C74   H46   S    
C36   C47   S    
C100  H58   S    
C34   C35   A    
C23   C26   S    
C89   H53   S    
O30   Zn2   S    
C102  C103  S    
O32   Zn5   S    
O32   Zn7   S    
C78   C83   A    
C63   C69   A    
C19   H10   S    
C68   C69   A    
C57   C96   S    
C17   C18   S    
C23   C24   S    
C31   C33   A    
C54   C97   S    
C73   H3    S    
C70   C71   A    
O17   Zn4   S    
C84   C91   A    
C87   H78   S    
O15   Zn3   S    
C2    C16   S    
C9    C10   S    
C3    O27   D    
C5    H76   S    
C12   C98   S    
C23   C92   S    
C64   H38   S    
C48   C50   A    
C66   C67   A    
C100  O20   D    
C59   C60   A    
C61   O19   A    
C70   C77   A    
O34   Zn5   S    
C21   H51   S    
O32   Zn6   S    
O7    Zn5   S    
C51   C62   S    
C42   C44   A    
C1    O4    A    
O1    Zn4   S    
O10   Zn6   S    
C37   O15   A    
C28   H18   S    
O3    Zn6   S    
C54   H41   S    
C107  O25   D    
C53   C55   A    
C95   O9    A    
C21   C32   S    
C30   H20   S    
C45   H27   S    
C66   H39   S    
C74   C75   A    
C70   H43   S    
C86   C88   A    
C51   C52   A    
C43   C85   S    
C19   C22   S    
C17   C22   S    
C79   C80   A    
C97   H23   S    
C72   C74   A    
O1    Zn1   S    
C18   H8    S    
C32   C73   S    
C58   C69   S    
C78   C79   A    
C8    C9    S    
C56   H36   S    
C104  H66   S    
C6    H73   S    
C92   O33   A    
C58   C59   A    
C95   O2    A    
C22   C37   S    
C46   H28   S    
C49   O16   A    
C105  H68   S    
C27   C33   A    
C67   C68   A    
C108  H71   S    
O23   Zn4   S    
C53   H35   S    
C64   C66   A    
O19   Zn1   S    
C25   O14   A    
C3    H72   S    
O2    Zn7   S    
C104  O21   D    
C29   C30   A    
C92   O10   A    
C17   C105  S    
C75   C77   A    
C43   C54   S    
C71   H44   S    
C76   C87   S    
C30   C31   A    
C43   C65   S    
C105  O22   D    
C19   H15   S    
C50   C51   A    
C41   C47   A    
O8    Zn5   S    
C24   C107  S    
C88   C89   A    
C73   H1    S    
C86   H50   S    
C18   H9    S    
C7    C63   S    
C20   H13   S    
C59   H37   S    
C1    O30   A    
C54   H34   S    
C4    C38   S    
C96   O6    A    
C98   C100  S    
C12   C76   S    
C107  H70   S    
C93   O11   A    
C25   C82   S    
O18   Zn3   S    
O12   Zn1   S    
C56   C62   A    
C76   H56   S    
C56   C57   A    
C20   C22   S    
C15   C98   S    
C26   C108  S    
C85   C106  S    
C97   H30   S    
C39   C40   A    
O14   Zn2   S    
C52   C53   A    
C93   O34   A    
O16   Zn2   S    
C73   C85   S    
C102  H63   S    
C46   C47   A    
C2    H2    S    
C106  H69   S    
C48   H31   S    
C99   O5    A    
C14   C16   S    
C9    H86   S    
C44   C45   A    
C10   H83   S    
C84   C86   A    
C80   C81   A    
C16   H6    S    
C77   H42   S    
C32   C61   S    
C41   H24   S    
C84   H49   S    
C94   O35   A    
C8    C68   S    
O5    Zn8   S    
C7    O28   D    
C35   C95   S    
C99   O7    A    
C98   C101  S    
C87   H67   S    
C90   H54   S    
C52   H33   S    
C55   H29   S    
O13   Zn1   S    
C6    H75   S    
C21   C65   S    
C8    H87   S    
C4    H80   S    
O31   Zn3   S    
C36   C38   A    
C19   C24   S    
O35   Zn6   S    
C11   H90   S    
C37   O23   A    
C71   C72   A    
C31   H21   S    
O32   Zn8   S    
O1    Zn3   S    
C27   H17   S    
C78   H48   S    
C90   C91   A    
C38   C39   A    
C20   C26   S    
C80   C91   S    
C18   C23   S    
C15   H89   S    
C4    C5    S    
C29   C40   S    
C65   H12   S    
C8    H88   S    
C15   H7    S    
C88   H52   S    
C25   O12   A    
C10   H84   S    
C6    H74   S    
C72   C83   S    
C85   H19   S    
C1    C39   S    
C13   O31   A    
C63   C64   A    
C44   H26   S    
C75   H47   S    
C103  H60   S    
C12   C13   S    
C34   H22   S    
C11   O29   D    
C82   C83   A    
C67   H40   S    
C103  H61   S    
C14   C15   S    
C7    H81   S    
C50   H32   S    
C26   H14   S    
C89   C90   A    
C14   C94   S    
C20   H11   S    
C27   C28   A    
