data_mof_unit_35738.cif
_audit_creation_date              2013-03-05T15:49:05-0500
_audit_creation_method            fapswitch 2.2
_symmetry_space_group_name_H-M    P1
_symmetry_Int_Tables_number       1
_space_group_crystal_system       triclinic
_cell_length_a                    10.643347
_cell_length_b                    13.004782
_cell_length_c                    11.78698
_cell_angle_alpha                 99.767175
_cell_angle_beta                  92.942524
_cell_angle_gamma                 92.34228
_cell_volume                      1603.68143501

loop_
_atom_site_label
_atom_site_type_symbol
_atom_site_description
_atom_site_fract_x
_atom_site_fract_y
_atom_site_fract_z
_atom_type_partial_charge
O1    O     O_R   0.506670 0.354460 0.582000 -0.557099
O2    O     O_R   0.493330 0.645540 0.418000 -0.557180
O3    O     O_R   0.490800 0.341410 0.386200 -0.575804
O4    O     O_R   0.509200 0.658590 0.613800 -0.575486
C1    C     C_R   0.499935 0.299339 0.478633 0.836759
C2    C     C_R   0.500069 0.700662 0.521367 0.836896
O5    O     O_R   0.324790 0.506500 0.597880 -0.565430
O6    O     O_R   0.675210 0.493500 0.402120 -0.565391
O7    O     O_R   0.308910 0.493440 0.402080 -0.539784
O8    O     O_R   0.691090 0.506560 0.597920 -0.539859
C3    C     C_R   0.259784 0.500683 0.501023 0.875311
C4    C     C_R   0.740215 0.499324 0.498979 0.875413
Cu1   Cu    Cu3+1 0.509400 0.507730 0.615930 1.076701
Cu2   Cu    Cu3+1 0.490600 0.492270 0.384070 1.076665
C5    C     C_3   0.036584 0.402072 0.462696 -0.246516
C6    C     C_3   0.963412 0.597944 0.537313 -0.246657
C7    C     C_3   0.952839 0.465467 0.390326 -0.146038
C8    C     C_3   0.047158 0.534549 0.609682 -0.146133
H1    H     H_    0.914150 0.436901 0.300842 0.237137
H2    H     H_    0.085844 0.563122 0.699166 0.237220
H3    H     H_    0.068518 0.321983 0.434707 0.211734
H4    H     H_    0.931476 0.678032 0.565305 0.211776
C9    C     C_3   0.876660 0.499177 0.497166 -0.172900
C10   C     C_3   0.123338 0.500840 0.502842 -0.172800
C11   C     C_3   0.959285 0.437250 0.567653 0.390025
C12   C     C_3   0.040711 0.562767 0.432356 0.390123
C13   C     C_R   0.498687 0.814215 0.533644 -0.050845
C14   C     C_R   0.501326 0.185786 0.466363 -0.050902
C15   C     C_R   0.488822 0.014773 0.345893 -0.150960
C16   C     C_R   0.511207 0.985227 0.654118 -0.151075
C17   C     C_R   0.492857 0.122947 0.356660 -0.132523
C18   C     C_R   0.507188 0.877053 0.643350 -0.132469
C19   C     C_R   0.510313 0.139494 0.565244 -0.144312
C20   C     C_R   0.489681 0.860508 0.434766 -0.144363
C21   C     C_R   0.505680 0.031422 0.555267 0.136906
C22   C     C_R   0.494328 0.968579 0.444744 0.136889
H5    H     H_    0.479226 0.812822 0.349789 0.200993
H6    H     H_    0.520745 0.187181 0.650223 0.200947
H7    H     H_    0.510678 0.842916 0.720898 0.204449
H8    H     H_    0.489410 0.157083 0.279112 0.204607
H9    H     H_    0.481446 0.967392 0.260576 0.167778
H10   H     H_    0.518597 0.032608 0.739434 0.167739
N1    N     N_R   0.523540 0.519360 0.790140 -0.303681
N2    N     N_R   0.476460 0.480640 0.209860 -0.303781
C23   C     C_R   0.367057 0.413698 0.025509 -0.226406
C24   C     C_R   0.632991 0.586232 0.974490 -0.226593
C25   C     C_R   0.380525 0.420028 0.145648 0.470097
C26   C     C_R   0.619570 0.579872 0.854348 0.469899
C27   C     C_R   0.560493 0.535890 0.154697 0.469899
C28   C     C_R   0.439464 0.464151 0.845312 0.469832
C29   C     C_R   0.548983 0.530841 0.032667 -0.131907
C30   C     C_R   0.450997 0.469167 0.967339 -0.131916
H11   H     H_    0.290183 0.364654 0.978742 0.237128
H12   H     H_    0.709924 0.635209 0.021252 0.237201
N3    N     N_R   0.910437 0.366941 0.640711 0.158933
O9    O     O_R   0.939044 0.384732 0.751114 -0.246494
O10   O     O_R   0.836511 0.286681 0.595772 -0.365526
N4    N     N_R   0.089553 0.633077 0.359293 0.158962
O11   O     O_R   0.060992 0.615254 0.248881 -0.246603
O12   O     O_R   0.163433 0.713367 0.404239 -0.365488
N5    N     N_R   0.338661 0.401271 0.780064 0.136862
O13   O     O_R   0.352512 0.301918 0.748205 -0.371253
O14   O     O_R   0.225178 0.434329 0.786113 -0.337210
N6    N     N_R   0.661232 0.598835 0.219955 0.136887
O15   O     O_R   0.647359 0.698195 0.251638 -0.371338
O16   O     O_R   0.774722 0.565785 0.214061 -0.337248
N7    N     N_R   0.710207 0.636782 0.800939 0.146443
O17   O     O_R   0.826444 0.609510 0.802936 -0.320320
O18   O     O_R   0.687578 0.731205 0.786261 -0.371877
N8    N     N_R   0.290143 0.362866 0.199048 0.146443
O19   O     O_R   0.312638 0.268132 0.212633 -0.372011
O20   O     O_R   0.174003 0.390392 0.197914 -0.320471

loop_
_geom_bond_atom_site_label_1
_geom_bond_atom_site_label_2
_geom_bond_distance
_ccdc_geom_bond_type
N2    C27   1.380093 A    
N3    O9    1.300407 A    
C20   H5    1.082761 S    
C21   C22   1.412141 A    
O5    C3    1.293484 A    
C4    C9    1.453557 S    
C7    C9    1.543382 S    
C16   C21   1.398314 A    
C8    C10   1.543397 S    
C7    C12   1.537626 S    
C10   C12   1.523856 S    
C5    C11   1.536183 S    
N4    O12   1.300640 A    
C3    C10   1.453581 S    
C17   H8    1.081426 S    
C18   H7    1.081448 S    
O4    Cu1   1.966402 S    
N5    O14   1.299874 A    
C19   C21   1.388966 A    
C27   C29   1.427381 A    
C28   C30   1.427413 A    
N8    O19   1.299189 A    
N1    C26   1.374585 A    
C20   C22   1.388955 A    
N2    C25   1.374485 A    
C23   H11   1.082534 S    
C27   N6    1.428745 S    
Cu1   Cu2   2.702499 S    
O2    C2    1.301530 A    
C8    C11   1.537624 S    
C23   C25   1.403999 A    
C13   C20   1.400451 A    
C6    C12   1.536189 S    
C24   C26   1.403970 A    
C29   C30   1.401245 A    
O4    C2    1.300591 A    
O6    Cu2   1.964584 S    
C23   C30   1.402377 A    
N4    O11   1.300434 A    
C24   C29   1.402317 A    
N7    O17   1.300989 A    
N7    O18   1.299152 A    
N6    O16   1.299827 A    
O7    Cu2   1.956602 S    
C25   N8    1.427111 S    
C1    C14   1.459932 S    
O7    C3    1.292955 A    
C2    C13   1.459930 S    
C15   C22   1.398310 A    
C5    H3    1.110411 S    
O6    C4    1.293488 A    
C24   H12   1.082533 S    
C12   N4    1.456783 S    
O3    Cu2   1.966403 S    
O8    C4    1.292938 A    
C5    C10   1.542175 S    
C14   C19   1.400465 A    
C6    C9    1.542168 S    
N3    O10   1.300620 A    
O1    C1    1.301518 A    
O1    Cu1   1.964029 S    
Cu1   N1    2.030531 S    
Cu2   N2    2.030532 S    
C5    C7    1.556414 S    
C6    H4    1.110412 S    
C15   H9    1.083894 S    
C13   C18   1.404103 A    
C14   C17   1.404089 A    
C11   N3    1.456763 S    
O3    C1    1.300603 A    
O8    Cu1   1.956603 S    
N1    C28   1.380146 A    
C19   H6    1.082772 S    
N6    O15   1.299401 A    
C15   C17   1.389566 A    
C16   C18   1.389577 A    
C7    H1    1.109064 S    
C8    H2    1.109062 S    
C9    C11   1.523852 S    
C26   N7    1.427152 S    
N5    O13   1.299536 A    
O2    Cu2   1.964029 S    
O5    Cu1   1.964583 S    
C6    C8    1.556418 S    
C28   N5    1.428789 S    
C16   H10   1.083892 S    
N8    O20   1.300924 A    
