data_mof_unit_47005.cif
_audit_creation_date              2012-12-10T20:41:48-0500
_audit_creation_method            fapswitch 2.2
_symmetry_space_group_name_H-M    P1
_symmetry_Int_Tables_number       1
_space_group_crystal_system       triclinic
_cell_length_a                    15.017358
_cell_length_b                    15.158212
_cell_length_c                    9.87681
_cell_angle_alpha                 90.623025
_cell_angle_beta                  89.647868
_cell_angle_gamma                 90.258421
_cell_volume                      2248.12287102

loop_
_atom_site_label
_atom_site_type_symbol
_atom_type_description
_atom_site_fract_x
_atom_site_fract_y
_atom_site_fract_z
_atom_type_partial_charge
C1    C     C_R   0.377112 0.882687 0.499894 0.882290
C2    C     C_R   0.379114 0.119002 0.500719 0.874516
C3    C     C_R   0.877775 0.382095 0.499940 0.875816
C4    C     C_R   0.882357 0.622674 0.500452 0.868242
C5    C     C_3   0.358532 0.288292 0.693337 -0.537025
C6    C     C_3   0.307667 0.764961 0.745472 -0.535046
C7    C     C_3   0.770768 0.706505 0.751370 -0.556528
C8    C     C_3   0.813253 0.258948 0.742605 -0.554498
C9    C     C_R   0.421814 0.994454 0.071537 0.132039
C10   C     C_R   0.926257 0.473852 0.071498 0.129295
C11   C     C_R   0.577803 0.994640 0.071518 0.492264
C12   C     C_R   0.077816 0.508710 0.072295 0.493187
C13   C     C_R   0.577300 0.994610 0.926785 -0.154736
C14   C     C_R   0.076951 0.510749 0.927149 -0.145938
C15   C     C_R   0.421841 0.993948 0.929377 0.198186
C16   C     C_R   0.926544 0.472683 0.929469 0.186777
C17   C     C_3   0.345611 0.056214 0.924483 -0.484194
C18   C     C_3   0.835685 0.510868 0.926351 -0.501852
C19   C     C_3   0.346025 0.057442 0.078231 -0.511326
C20   C     C_3   0.835440 0.511751 0.080088 -0.480395
C21   C     C_R   0.617152 0.122746 0.500181 0.854550
C22   C     C_R   0.622724 0.882917 0.499075 0.900092
C23   C     C_R   0.116219 0.623736 0.500230 0.859026
C24   C     C_R   0.119326 0.379518 0.499565 0.876618
C25   C     C_R   0.293551 0.231028 0.618193 0.034840
C26   C     C_R   0.263293 0.801066 0.622836 0.038712
C27   C     C_R   0.803561 0.742312 0.619792 0.057798
C28   C     C_R   0.766858 0.297257 0.623130 0.042706
C29   C     C_R   0.307259 0.179031 0.503342 -0.070811
C30   C     C_R   0.298451 0.830121 0.500482 -0.083935
C31   C     C_R   0.828335 0.700082 0.499425 -0.068121
C32   C     C_R   0.800833 0.327550 0.500607 -0.079738
C33   C     C_R   0.248649 0.183339 0.393648 -0.227386
C34   C     C_R   0.253234 0.810958 0.379596 -0.222404
C35   C     C_R   0.802609 0.736441 0.375287 -0.229859
C36   C     C_R   0.756651 0.307349 0.379363 -0.223126
C37   C     C_R   0.738101 0.801375 0.374098 -0.207264
C38   C     C_R   0.690680 0.243428 0.379708 -0.227870
C39   C     C_R   0.184725 0.248822 0.392139 -0.193276
C40   C     C_R   0.186303 0.747614 0.380426 -0.228405
C41   C     C_R   0.700083 0.829385 0.497118 -0.107114
C42   C     C_R   0.670582 0.200159 0.501027 -0.138710
C43   C     C_R   0.179687 0.308224 0.501299 -0.136698
C44   C     C_R   0.167387 0.703168 0.501276 -0.139265
C45   C     C_R   0.739536 0.806133 0.618380 -0.006191
C46   C     C_R   0.701574 0.234339 0.623219 0.073938
C47   C     C_R   0.229306 0.294607 0.617686 0.066634
C48   C     C_R   0.197712 0.738451 0.623121 0.080594
C49   C     C_3   0.699754 0.777226 0.750280 0.304717
C50   C     C_3   0.740320 0.188975 0.743167 0.271654
C51   C     C_3   0.286888 0.358766 0.694187 0.265216
C52   C     C_3   0.234192 0.695429 0.746440 0.256809
H1    H     H_    0.254531 0.138983 0.307641 0.158984
H2    H     H_    0.273491 0.839427 0.284026 0.169072
H3    H     H_    0.826630 0.710545 0.279303 0.163750
H4    H     H_    0.777089 0.335525 0.283743 0.165969
H5    H     H_    0.365436 0.122645 0.121724 0.220273
H6    H     H_    0.285426 0.027033 0.123400 0.195407
H7    H     H_    0.834768 0.579290 0.124899 0.209693
H8    H     H_    0.786523 0.464886 0.124410 0.197727
H9    H     H_    0.713486 0.823808 0.277593 0.203994
H10   H     H_    0.661020 0.223608 0.284424 0.163474
H11   H     H_    0.141995 0.254925 0.304766 0.172228
H12   H     H_    0.155189 0.728955 0.285822 0.158576
H13   H     H_    0.706560 0.827459 0.832460 0.126466
H14   H     H_    0.764240 0.120985 0.720935 0.123648
H15   H     H_    0.304533 0.418813 0.635930 0.116882
H16   H     H_    0.257879 0.626901 0.728270 0.130703
H17   H     H_    0.417638 0.305964 0.630683 0.176578
H18   H     H_    0.374559 0.737120 0.722633 0.203595
H19   H     H_    0.819919 0.717969 0.833414 0.175031
H20   H     H_    0.879968 0.231988 0.716224 0.183840
H21   H     H_    0.374463 0.262758 0.795220 0.210268
H22   H     H_    0.305472 0.811996 0.832620 0.209174
H23   H     H_    0.743694 0.638408 0.740429 0.210926
H24   H     H_    0.812142 0.303959 0.832163 0.209026
H25   H     H_    0.638996 0.990260 0.870491 0.150820
H26   H     H_    0.138127 0.518521 0.870749 0.203288
H27   H     H_    0.364280 0.120543 0.879884 0.216908
H28   H     H_    0.285067 0.024750 0.880924 0.197459
H29   H     H_    0.838036 0.577359 0.884211 0.218263
H30   H     H_    0.785823 0.465092 0.881085 0.198789
N1    N     N_R   0.499140 0.000000 0.142800 -0.145602
N2    N     N_R   0.999140 0.500000 0.142800 -0.149637
N3    N     N_R   0.499160 0.000000 0.857150 -0.123004
N4    N     N_R   0.999160 0.500000 0.857150 -0.132611
O1    O     O_R   0.408400 0.908380 0.614690 -0.601407
O2    O     O_R   0.408400 0.091620 0.614690 -0.616796
O3    O     O_R   0.908400 0.408380 0.614690 -0.611366
O4    O     O_R   0.908400 0.591620 0.614690 -0.611762
O5    O     O_R   0.408370 0.908370 0.385350 -0.626334
O6    O     O_R   0.408370 0.091630 0.385350 -0.631082
O7    O     O_R   0.908370 0.408370 0.385350 -0.626519
O8    O     O_R   0.908370 0.591630 0.385350 -0.634345
O9    O     O_R   0.591610 0.091610 0.614650 -0.599714
O10   O     O_R   0.591610 0.908390 0.614650 -0.595930
O11   O     O_R   0.091610 0.591610 0.614650 -0.599422
O12   O     O_R   0.091610 0.408390 0.614650 -0.602425
O13   O     O_R   0.591590 0.091600 0.385310 -0.619840
O14   O     O_R   0.591590 0.908400 0.385310 -0.582106
O15   O     O_R   0.091590 0.591600 0.385310 -0.610155
O16   O     O_R   0.091590 0.408400 0.385310 -0.576091
Zn1   Zn    Zn3+2 0.500010 1.000000 0.653130 0.977073
Zn2   Zn    Zn3+2 0.000010 0.500000 0.653130 0.971335
Zn3   Zn    Zn3+2 0.499980 0.000000 0.346870 0.970749
Zn4   Zn    Zn3+2 0.999980 0.500000 0.346870 0.972037
O17   O     O_3   0.612598 0.742907 0.739810 -0.737138
H31   H     H_    0.609962 0.702014 0.660606 0.333962
O18   O     O_3   0.684308 0.193358 0.857809 -0.779983
H32   H     H_    0.662163 0.254712 0.868789 0.339033
O19   O     O_3   0.253630 0.378624 0.824554 -0.772331
H33   H     H_    0.233488 0.323061 0.867836 0.350123
O20   O     O_3   0.176103 0.702740 0.858236 -0.789574
H34   H     H_    0.155010 0.764639 0.866057 0.339784
O21   O     O_3   0.656210 0.981088 0.140928 -0.641009
C53   C     C_3   0.713607 0.055091 0.130933 0.099219
H35   H     H_    0.733817 0.073768 0.235330 0.173884
H36   H     H_    0.682149 0.114658 0.086682 0.164747
C54   C     C_3   0.797979 0.030467 0.051673 -0.358721
H37   H     H_    0.827671 0.970246 0.095720 0.224790
H38   H     H_    0.781403 0.016056 0.944389 0.210197
C55   C     C_3   0.866579 0.105077 0.056680 -0.933611
H39   H     H_    0.838221 0.166517 0.014978 0.289648
H40   H     H_    0.925927 0.086377 0.995412 0.257947
H41   H     H_    0.887829 0.117736 0.162696 0.258032
O22   O     O_3   0.157115 0.500197 0.141910 -0.611350
C56   C     C_3   0.212369 0.575356 0.128165 0.078169
H42   H     H_    0.233577 0.595024 0.231555 0.175048
H43   H     H_    0.178380 0.633531 0.084525 0.162534
C57   C     C_3   0.296793 0.552416 0.047741 -0.308234
H44   H     H_    0.327082 0.491785 0.089481 0.241941
H45   H     H_    0.280305 0.539513 0.940203 0.249655
C58   C     C_3   0.364875 0.627428 0.055024 -0.937421
H46   H     H_    0.335395 0.689696 0.018261 0.285811
H47   H     H_    0.423499 0.610834 0.990753 0.274586
H48   H     H_    0.387520 0.637524 0.160959 0.259603

loop_
_geom_bond_atom_site_label_1
_geom_bond_atom_site_label_2
_ccdc_geom_bond_type
C1    O1    A    
O22   C56   S    
O5    Zn3   S    
O19   H33   S    
C17   H27   S    
N4    Zn2   S    
C49   O17   S    
C6    C26   S    
C52   O20   S    
C19   H5    S    
C28   C46   A    
O14   Zn3   S    
C33   C39   A    
C49   H13   S    
C2    C29   S    
C24   O12   A    
C32   C36   A    
C35   C37   A    
C38   C42   A    
C7    H19   S    
C21   O13   A    
C22   C41   S    
C12   O22   S    
O21   C53   S    
C29   C33   A    
C8    H24   S    
C18   H29   S    
C7    C27   S    
C53   H35   S    
C12   N2    A    
C25   C29   A    
C6    H18   S    
C42   C46   A    
C5    H17   S    
C18   H30   S    
C9    C19   S    
C10   C20   S    
C58   H48   S    
N2    Zn4   S    
O17   H31   S    
C2    O2    A    
C20   H8    S    
C11   O21   S    
C25   C47   A    
C40   C44   A    
C18   C20   S    
N3    Zn1   S    
C26   C48   A    
C15   N3    A    
C27   C45   A    
C14   H26   S    
C1    O5    A    
C16   N4    A    
O9    Zn1   S    
C6    H22   S    
C4    O4    A    
C54   H38   S    
C19   H6    S    
C33   H1    S    
O13   Zn3   S    
C13   H25   S    
C8    H20   S    
C22   O14   A    
C30   C34   A    
C27   C31   A    
O11   Zn2   S    
C28   C32   A    
C7    C49   S    
C47   C51   S    
C21   O9    A    
C11   N1    A    
C35   H3    S    
C50   O18   S    
C23   C44   S    
N1    Zn3   S    
C57   H45   S    
C56   H43   S    
C36   H4    S    
O7    Zn4   S    
C37   H9    S    
C45   C49   S    
O4    Zn2   S    
C3    O7    A    
C51   H15   S    
C20   H7    S    
C2    O6    A    
C50   H14   S    
C14   N4    A    
C9    N1    A    
C4    O8    A    
C34   C40   A    
C23   O11   A    
C12   C14   A    
C34   H2    S    
O3    Zn2   S    
C58   H46   S    
C8    C28   S    
O1    Zn1   S    
C57   C58   S    
C55   H40   S    
C56   H42   S    
C8    C50   S    
O2    Zn1   S    
O20   H34   S    
C54   C55   S    
O15   Zn4   S    
C15   C17   S    
O8    Zn4   S    
C51   O19   S    
C22   O10   A    
C5    H21   S    
C52   H16   S    
C5    C25   S    
C7    H23   S    
C54   H37   S    
C26   C30   A    
C39   H11   S    
C46   C50   S    
C40   H12   S    
C53   C54   S    
C3    O3    A    
C55   H41   S    
C36   C38   A    
C57   H44   S    
C9    C15   A    
C56   C57   S    
C10   C16   A    
O18   H32   S    
C11   C13   A    
C23   O15   A    
O12   Zn2   S    
C31   C35   A    
C10   N2    A    
C1    C30   S    
C17   C19   S    
C53   H36   S    
O16   Zn4   S    
C24   O16   A    
C17   H28   S    
C37   C41   A    
C3    C32   S    
C4    C31   S    
C21   C42   S    
O6    Zn3   S    
C48   C52   S    
C39   C43   A    
C16   C18   S    
O10   Zn1   S    
C13   N3    A    
C58   H47   S    
C24   C43   S    
C41   C45   A    
C5    C51   S    
C6    C52   S    
C55   H39   S    
C43   C47   A    
C44   C48   A    
C38   H10   S    
