data_mof_unit_24607.cif
_audit_creation_date              2012-10-26T20:08:15-0400
_audit_creation_method            fapswitch 2.2
_symmetry_space_group_name_H-M    P1
_symmetry_Int_Tables_number       1
_space_group_crystal_system       triclinic
_cell_length_a                    10.928347
_cell_length_b                    10.803099
_cell_length_c                    9.656831
_cell_angle_alpha                 90.953274
_cell_angle_beta                  91.665063
_cell_angle_gamma                 91.047468
_cell_volume                      1139.24565767

loop_
_atom_site_label
_atom_site_type_symbol
_atom_type_description
_atom_site_fract_x
_atom_site_fract_y
_atom_site_fract_z
_atom_type_partial_charge
C1    C     C_R   0.499622 0.262524 0.499264 0.557482
C2    C     C_R   0.472833 0.065480 0.620790 -0.108217
C3    C     C_R   0.500685 0.871553 0.500989 0.031246
C4    C     C_R   0.499310 0.128446 0.499009 0.031275
C5    C     C_R   0.470017 0.394775 0.070309 0.360539
C6    C     C_R   0.529993 0.605221 0.929690 0.360578
C7    C     C_R   0.471999 0.395437 0.922302 -0.030845
C8    C     C_R   0.528007 0.604559 0.077697 -0.030807
C9    C     C_R   0.262465 0.504275 0.497699 0.594833
C10   C     C_R   0.737530 0.495707 0.502299 0.594832
C11   C     C_R   0.183825 0.602039 0.054688 0.134407
C12   C     C_R   0.500376 0.737476 0.500735 0.557421
C13   C     C_R   0.816175 0.397866 0.945254 0.134010
C14   C     C_R   0.127581 0.591359 0.181691 0.265747
C15   C     C_R   0.872433 0.408574 0.818265 0.265838
C16   C     C_R   0.106044 0.471709 0.236722 -0.051504
C17   C     C_R   0.893979 0.528234 0.763265 -0.050974
C18   C     C_R   0.134634 0.364582 0.157292 0.311461
C19   C     C_R   0.865402 0.635346 0.842726 0.311754
C20   C     C_R   0.174076 0.378152 0.021736 0.286537
C21   C     C_R   0.825961 0.621745 0.978280 0.286673
C22   C     C_R   0.203153 0.496710 0.973648 -0.212321
C23   C     C_R   0.872228 0.491167 0.506526 0.020935
C24   C     C_R   0.796858 0.503177 0.026324 -0.212781
C25   C     C_R   0.930881 0.444090 0.390614 0.187500
C26   C     C_R   0.069094 0.555858 0.609363 0.187288
C27   C     C_R   0.127759 0.508781 0.493464 0.020910
C28   C     C_R   0.942502 0.536971 0.621837 -0.114791
C29   C     C_R   0.057483 0.462992 0.378137 -0.114772
C30   C     C_R   0.526541 0.062508 0.378271 -0.085637
C31   C     C_R   0.473453 0.937491 0.621727 -0.085702
C32   C     C_R   0.527160 0.934518 0.379207 -0.108208
Cu1   Cu    Cu3+1 0.500000 0.500020 0.640660 1.049519
Cu2   Cu    Cu3+1 0.500000 0.499980 0.359340 1.049537
H1    H     H_    0.246044 0.506200 0.875461 0.194281
H2    H     H_    0.964564 0.316726 0.681383 0.329305
H3    H     H_    0.114764 0.249197 0.308973 0.322824
H4    H     H_    0.884994 0.750731 0.691008 0.322593
H5    H     H_    0.213692 0.298555 0.847177 0.308720
H6    H     H_    0.786367 0.701292 0.152867 0.308735
H7    H     H_    0.916153 0.325999 0.236729 0.364765
H8    H     H_    0.083810 0.674583 0.762519 0.365072
H9    H     H_    0.417552 0.221411 0.067067 0.332004
H10   H     H_    0.582405 0.778600 0.932928 0.331973
H11   H     H_    0.753945 0.493667 0.124495 0.194134
H12   H     H_    0.447423 0.311999 0.864292 0.122457
H13   H     H_    0.552583 0.687994 0.135707 0.122489
H14   H     H_    0.548717 0.109495 0.283814 0.186925
H15   H     H_    0.451277 0.890504 0.716183 0.186875
H16   H     H_    0.549247 0.885192 0.284906 0.141205
H17   H     H_    0.450743 0.114806 0.715090 0.141193
H18   H     H_    0.035486 0.683237 0.318594 0.329248
I1    I     I_    0.243533 0.778837 0.988045 -0.184084
I2    I     I_    0.756413 0.221060 0.011829 -0.184014
N1    N     N_R   0.500030 0.500030 0.852070 -0.235771
N2    N     N_R   0.499970 0.499970 0.147930 -0.235779
O1    O     O_R   0.499990 0.319660 0.618740 -0.536571
O2    O     O_3   0.900093 0.300184 0.748726 -0.623348
O3    O     O_3   0.126151 0.245765 0.207728 -0.597341
O4    O     O_3   0.873797 0.754169 0.792285 -0.597503
O5    O     O_3   0.190276 0.273289 0.941213 -0.612013
O6    O     O_3   0.809750 0.726589 0.058833 -0.611984
O7    O     O_3   0.861893 0.375619 0.294280 -0.680858
O8    O     O_3   0.138035 0.624256 0.705784 -0.681250
O9    O     O_3   0.433008 0.289148 0.136248 -0.634743
O10   O     O_3   0.567013 0.710842 0.863752 -0.634710
O11   O     O_R   0.500010 0.680340 0.381260 -0.536575
O12   O     O_R   0.499990 0.319630 0.381170 -0.426606
O13   O     O_R   0.500010 0.680370 0.618830 -0.426653
O14   O     O_R   0.319650 0.500020 0.618780 -0.475064
O15   O     O_R   0.680350 0.499980 0.381220 -0.475109
O16   O     O_R   0.319640 0.500000 0.381210 -0.492591
O17   O     O_R   0.680360 0.500000 0.618790 -0.492626
O18   O     O_3   0.099914 0.699767 0.251197 -0.623372

loop_
_geom_bond_atom_site_label_1
_geom_bond_atom_site_label_2
_ccdc_geom_bond_type
Cu2   O11   S    
Cu1   N1    S    
H8    O8    S    
C2    C4    A    
C12   O13   A    
Cu2   N2    S    
Cu1   O13   S    
C19   O4    S    
C27   C29   A    
C5    N2    A    
H10   O10   S    
C10   O17   A    
C11   I1    S    
C9    O16   A    
C7    N1    A    
C6    N1    A    
H9    O9    S    
C1    C4    S    
C10   O15   A    
C8    N2    A    
C13   C15   A    
Cu1   Cu2   S    
C21   O6    S    
C8    H13   S    
Cu1   O1    S    
C16   C18   A    
C23   C28   A    
C3    C31   A    
C22   H1    S    
C32   H16   S    
C26   C27   A    
H3    O3    S    
Cu1   O14   S    
C31   H15   S    
H4    O4    S    
C24   H11   S    
C14   O18   S    
Cu1   O17   S    
C11   C14   A    
C20   C22   A    
H18   O18   S    
C23   C25   A    
C25   C29   A    
C3    C32   A    
H5    O5    S    
C15   O2    S    
C14   C16   A    
C12   O11   A    
C2    H17   S    
H7    O7    S    
H2    O2    S    
Cu2   O12   S    
C30   C32   A    
C7    H12   S    
Cu2   O16   S    
C18   O3    S    
C6    O10   S    
C1    O12   A    
H6    O6    S    
C9    O14   A    
C9    C27   S    
C18   C20   A    
C5    O9    S    
C13   I2    S    
C25   O7    S    
C21   C24   A    
C30   H14   S    
C20   O5    S    
C5    C7    A    
C26   O8    S    
C10   C23   S    
C6    C8    A    
C3    C12   S    
C11   C22   A    
C17   C19   A    
C16   C29   S    
C15   C17   A    
C17   C28   S    
C26   C28   A    
Cu2   O15   S    
C4    C30   A    
C13   C24   A    
C2    C31   A    
C19   C21   A    
C1    O1    A    
