data_mof_unit_31353.cif
_audit_creation_date              2012-12-10T17:09:18-0500
_audit_creation_method            fapswitch 2.2
_symmetry_space_group_name_H-M    P1
_symmetry_Int_Tables_number       1
_space_group_crystal_system       triclinic
_cell_length_a                    18.230723
_cell_length_b                    18.512588
_cell_length_c                    11.758712
_cell_angle_alpha                 89.535782
_cell_angle_beta                  74.43731
_cell_angle_gamma                 90.103659
_cell_volume                      3822.8853344

loop_
_atom_site_label
_atom_site_type_symbol
_atom_type_description
_atom_site_fract_x
_atom_site_fract_y
_atom_site_fract_z
_atom_type_partial_charge
C1    C     C_R   0.399061 0.099995 0.521958 0.859659
C2    C     C_R   0.600940 0.900006 0.478042 0.859661
C3    C     C_R   0.600547 0.100447 0.477695 0.857720
C4    C     C_R   0.399453 0.899553 0.522304 0.857718
C5    C     C_R   0.899061 0.599995 0.521958 0.859643
C6    C     C_R   0.100939 0.400005 0.478042 0.859666
C7    C     C_R   0.100547 0.600447 0.477695 0.857726
C8    C     C_R   0.899452 0.399553 0.522305 0.857692
C9    C     C_R   0.535581 0.003751 0.959267 -0.009193
C10   C     C_R   0.464419 0.996249 0.040733 -0.009180
C11   C     C_R   0.035581 0.503750 0.959267 -0.009173
C12   C     C_R   0.964419 0.496250 0.040733 -0.009177
C13   C     C_R   0.408878 0.992240 0.874381 0.580429
C14   C     C_R   0.591122 0.007761 0.125619 0.580431
C15   C     C_R   0.908878 0.492241 0.874381 0.580452
C16   C     C_R   0.091122 0.507758 0.125619 0.580416
C17   C     C_R   0.401720 0.990563 0.996867 -0.241333
C18   C     C_R   0.598280 0.009439 0.003133 -0.241347
C19   C     C_R   0.901720 0.490565 0.996866 -0.241380
C20   C     C_R   0.098281 0.509434 0.003133 -0.241313
C21   C     C_R   0.542873 0.005878 0.835392 0.028147
C22   C     C_R   0.457127 0.994122 0.164608 0.028159
C23   C     C_R   0.042874 0.505876 0.835392 0.028169
C24   C     C_R   0.957127 0.494123 0.164608 0.028125
C25   C     C_R   0.655464 0.159142 0.465418 -0.137656
C26   C     C_R   0.344535 0.840857 0.534583 -0.137651
C27   C     C_R   0.342693 0.157229 0.534679 -0.144570
C28   C     C_R   0.657310 0.842774 0.465319 -0.144570
C29   C     C_R   0.155464 0.659143 0.465418 -0.137659
C30   C     C_R   0.844535 0.340858 0.534584 -0.137596
C31   C     C_R   0.842695 0.657231 0.534678 -0.144561
C32   C     C_R   0.157307 0.342771 0.465321 -0.144577
C33   C     C_R   0.284885 0.732318 0.634596 0.437961
C34   C     C_R   0.715108 0.267686 0.365412 0.437892
C35   C     C_R   0.733178 0.748392 0.348842 0.429360
C36   C     C_R   0.266834 0.251619 0.651150 0.429365
C37   C     C_R   0.784889 0.232315 0.634592 0.437964
C38   C     C_R   0.215114 0.767683 0.365405 0.437957
C39   C     C_R   0.233167 0.248382 0.348849 0.429361
C40   C     C_R   0.766837 0.751622 0.651148 0.429350
C41   C     C_R   0.335213 0.790221 0.625818 -0.169108
C42   C     C_R   0.664783 0.209781 0.374186 -0.169076
C43   C     C_R   0.681450 0.804931 0.359717 -0.187829
C44   C     C_R   0.318559 0.195077 0.640278 -0.187838
C45   C     C_R   0.835216 0.290219 0.625815 -0.169120
C46   C     C_R   0.164787 0.709779 0.374183 -0.169108
C47   C     C_R   0.181442 0.304924 0.359722 -0.187839
C48   C     C_R   0.818561 0.695078 0.640277 -0.187837
C49   C     C_R   0.304609 0.833679 0.449417 -0.141420
C50   C     C_R   0.695392 0.166320 0.550582 -0.141413
C51   C     C_R   0.685530 0.825148 0.561096 -0.145333
C52   C     C_R   0.314472 0.174854 0.438904 -0.145322
C53   C     C_R   0.804603 0.333682 0.449423 -0.141486
C54   C     C_R   0.195391 0.666322 0.550584 -0.141409
C55   C     C_R   0.185528 0.325146 0.561096 -0.145315
C56   C     C_R   0.814477 0.674859 0.438900 -0.145370
C57   C     C_R   0.255039 0.775674 0.453018 -0.018612
C58   C     C_R   0.744961 0.224325 0.546982 -0.018602
C59   C     C_R   0.737984 0.769510 0.553740 -0.012967
C60   C     C_R   0.262021 0.230495 0.446257 -0.012970
C61   C     C_R   0.755036 0.275676 0.453022 -0.018594
C62   C     C_R   0.244960 0.724327 0.546983 -0.018614
C63   C     C_R   0.237980 0.269506 0.553742 -0.012973
C64   C     C_R   0.762028 0.730501 0.446253 -0.012964
Cu1   Cu    Cu3+1 0.507800 0.000000 0.383250 1.042289
Cu2   Cu    Cu3+1 0.492200 0.000000 0.616750 1.042288
Cu3   Cu    Cu3+1 0.007800 0.500000 0.383250 1.042262
Cu4   Cu    Cu3+1 0.992200 0.500000 0.616750 1.042286
H1    H     H_    0.401338 0.988647 0.226234 0.154262
H2    H     H_    0.598662 0.011353 0.773766 0.154282
H3    H     H_    0.901338 0.488650 0.226234 0.154111
H4    H     H_    0.098662 0.511350 0.773766 0.154292
H5    H     H_    0.686891 0.125929 0.619715 0.215573
H6    H     H_    0.313112 0.874069 0.380281 0.215544
H7    H     H_    0.334170 0.144571 0.358500 0.224454
H8    H     H_    0.665828 0.855428 0.641501 0.224444
H9    H     H_    0.186887 0.625932 0.619719 0.215565
H10   H     H_    0.813102 0.374076 0.380294 0.215390
H11   H     H_    0.834175 0.644575 0.358497 0.224425
H12   H     H_    0.165829 0.355428 0.641500 0.224470
H13   H     H_    0.631285 0.204852 0.311362 0.218991
H14   H     H_    0.368710 0.795152 0.688643 0.219011
H15   H     H_    0.341132 0.181067 0.713806 0.215272
H16   H     H_    0.658880 0.818943 0.286187 0.215272
H17   H     H_    0.131289 0.704848 0.311357 0.219010
H18   H     H_    0.868716 0.295148 0.688638 0.219006
H19   H     H_    0.841133 0.681068 0.713806 0.215266
H20   H     H_    0.158869 0.318934 0.286193 0.215270
H21   H     H_    0.346673 0.982436 0.059438 0.194663
H22   H     H_    0.653327 0.017567 0.940562 0.194696
H23   H     H_    0.846673 0.482439 0.059437 0.194493
H24   H     H_    0.153328 0.517559 0.940561 0.194693
N1    N     N_R   0.519530 0.000000 0.207810 -0.252457
N2    N     N_R   0.480470 0.000000 0.792190 -0.252458
N3    N     N_R   0.019530 0.500000 0.207810 -0.252428
N4    N     N_R   0.980470 0.500000 0.792190 -0.252468
O1    O     O_R   0.430030 0.075530 0.417420 -0.603511
O2    O     O_R   0.569970 0.924470 0.582580 -0.603514
O3    O     O_R   0.569970 0.075530 0.582580 -0.606740
O4    O     O_R   0.430030 0.924470 0.417420 -0.606741
O5    O     O_R   0.930030 0.575530 0.417420 -0.603523
O6    O     O_R   0.069970 0.424470 0.582580 -0.603508
O7    O     O_R   0.069970 0.575530 0.582580 -0.606741
O8    O     O_R   0.930030 0.424470 0.417420 -0.606746
O9    O     O_R   0.416860 0.075510 0.614610 -0.543977
O10   O     O_R   0.583140 0.924490 0.385390 -0.543978
O11   O     O_R   0.583140 0.075510 0.385390 -0.524102
O12   O     O_R   0.416860 0.924490 0.614610 -0.524104
O13   O     O_R   0.916860 0.575510 0.614610 -0.543974
O14   O     O_R   0.083140 0.424490 0.385390 -0.543975
O15   O     O_R   0.083140 0.575510 0.385390 -0.524100
O16   O     O_R   0.916860 0.424490 0.614610 -0.524102
S1    S     S_3+6 0.680224 0.026492 0.156375 0.058361
O17   O     O_2   0.688090 0.107012 0.162396 -0.262066
O18   O     O_2   0.692184 0.992808 0.265986 -0.264518
O19   O     O_3   0.751150 0.996973 0.043027 -0.533719
H25   H     H_    0.797402 0.022533 0.050462 0.407799
S2    S     S_3+6 0.319776 0.973509 0.843625 0.058362
O20   O     O_2   0.307816 0.007192 0.734014 -0.264507
O21   O     O_2   0.311910 0.892989 0.837605 -0.262063
O22   O     O_3   0.248850 0.003028 0.956973 -0.533724
H26   H     H_    0.202601 0.977456 0.949553 0.407807
S3    S     S_3+6 0.180224 0.526490 0.156375 0.058362
O23   O     O_2   0.188089 0.607011 0.162394 -0.262049
O24   O     O_2   0.192184 0.492808 0.265987 -0.264506
O25   O     O_3   0.251151 0.496972 0.043028 -0.533764
H27   H     H_    0.297402 0.522531 0.050464 0.407809
S4    S     S_3+6 0.819776 0.473509 0.843625 0.058382
O26   O     O_2   0.807815 0.507193 0.734016 -0.264547
O27   O     O_2   0.811913 0.392988 0.837601 -0.262038
O28   O     O_3   0.748849 0.503024 0.956975 -0.533585
H28   H     H_    0.702597 0.477468 0.949534 0.407877
S5    S     S_3+6 0.773696 0.171583 0.756007 0.041560
O29   O     O_2   0.822692 0.193948 0.834220 -0.201282
O30   O     O_2   0.691684 0.170967 0.826839 -0.274326
O31   O     O_3   0.798632 0.088021 0.705122 -0.523185
H29   H     H_    0.783511 0.056082 0.775614 0.387521
S6    S     S_3+6 0.226311 0.828412 0.243986 0.041581
O32   O     O_2   0.308324 0.829029 0.173163 -0.274382
O33   O     O_2   0.177321 0.806044 0.165765 -0.201206
O34   O     O_3   0.201368 0.911973 0.294868 -0.523154
H30   H     H_    0.216580 0.943925 0.224408 0.387468
S7    S     S_3+6 0.259200 0.201188 0.212960 0.046752
O35   O     O_2   0.215969 0.229160 0.129521 -0.190464
O36   O     O_2   0.343126 0.210881 0.157484 -0.263613
O37   O     O_3   0.239688 0.112771 0.238783 -0.534612
H31   H     H_    0.262465 0.089021 0.162318 0.385812
S8    S     S_3+6 0.740808 0.798819 0.787035 0.046761
O38   O     O_2   0.656884 0.789120 0.842520 -0.263643
O39   O     O_2   0.784045 0.770852 0.870469 -0.190434
O40   O     O_3   0.760313 0.887236 0.761206 -0.534572
H32   H     H_    0.737495 0.910992 0.837653 0.385779
S9    S     S_3+6 0.273687 0.671589 0.756017 0.041576
O41   O     O_2   0.322677 0.693958 0.834236 -0.201243
O42   O     O_2   0.191673 0.670973 0.826839 -0.274350
O43   O     O_3   0.298629 0.588028 0.705137 -0.523162
H33   H     H_    0.283474 0.556084 0.775617 0.387499
S10   S     S_3+6 0.726297 0.328422 0.244004 0.041705
O44   O     O_2   0.808313 0.329050 0.173191 -0.274676
O45   O     O_2   0.677317 0.306055 0.165769 -0.200869
O46   O     O_3   0.701334 0.411975 0.294907 -0.522794
H34   H     H_    0.717001 0.444002 0.224558 0.387156
S11   S     S_3+6 0.759221 0.701207 0.212946 0.046775
O47   O     O_2   0.716004 0.729190 0.129495 -0.190393
O48   O     O_2   0.843151 0.710897 0.157491 -0.263661
O49   O     O_3   0.739701 0.612790 0.238749 -0.534629
H35   H     H_    0.762526 0.589036 0.162307 0.385752
S12   S     S_3+6 0.240803 0.298814 0.787038 0.046742
O50   O     O_2   0.156877 0.289119 0.842519 -0.263600
O51   O     O_2   0.284036 0.270844 0.870475 -0.190493
O52   O     O_3   0.260311 0.387232 0.761213 -0.534620
H36   H     H_    0.237575 0.410976 0.837698 0.385846

loop_
_geom_bond_atom_site_label_1
_geom_bond_atom_site_label_2
_ccdc_geom_bond_type
S7    O37   S    
C6    C32   S    
O52   H36   S    
O25   H27   S    
C7    C29   S    
S5    O29   D    
C14   C18   A    
C30   C45   A    
S11   O47   D    
C34   C42   A    
S8    O40   S    
C52   H7    S    
C9    C21   A    
S4    O26   D    
C13   S2    S    
C57   C62   A    
C10   C22   A    
C15   C19   A    
C4    O12   A    
C59   C64   A    
Cu4   N4    S    
C56   H11   S    
C60   C63   A    
O43   H33   S    
S11   O48   D    
C16   S3    S    
Cu4   O6    S    
O37   H31   S    
C8    O16   A    
C28   C51   A    
C33   S9    S    
S3    O24   D    
C21   N2    A    
C39   C60   A    
C10   C17   A    
S7    O35   D    
C36   S12   S    
C49   C57   A    
C23   N4    A    
C40   C48   A    
Cu4   O16   S    
C25   C50   A    
C52   C60   A    
S10   O46   S    
S2    O20   D    
C53   C61   A    
C27   C44   A    
S10   O45   D    
S12   O52   S    
C33   C62   A    
C55   C63   A    
S5    O31   S    
O40   H32   S    
Cu4   O7    S    
C35   C64   A    
C31   C56   A    
S9    O42   D    
C36   C63   A    
C35   C43   A    
C9    C10   A    
C22   H1    S    
C37   C58   A    
Cu2   N2    S    
C46   H17   S    
C1    C27   S    
C44   H15   S    
C58   C61   A    
S12   O51   D    
C40   C59   A    
C7    O7    A    
Cu3   N3    S    
C43   H16   S    
C6    O14   A    
C42   H13   S    
Cu3   O8    S    
O46   H34   S    
C30   C53   A    
C5    O5    A    
C11   C20   A    
C40   S8    S    
Cu3   Cu4   S    
C18   H22   S    
S3    O23   D    
S11   O49   S    
C17   H21   S    
C51   H8    S    
C26   C49   A    
C1    O1    A    
C15   N4    A    
S3    O25   S    
C54   C62   A    
C3    O11   A    
C2    O10   A    
C34   C61   A    
C35   S11   S    
S2    O22   S    
C50   C58   A    
Cu2   O3    S    
C38   C57   A    
C20   H24   S    
Cu3   O14   S    
C3    C25   S    
C16   C20   A    
S8    O39   D    
C56   C64   A    
C38   S6    S    
C48   H19   S    
S8    O38   D    
S9    O43   S    
C8    O8    A    
O22   H26   S    
S6    O33   D    
C32   C55   A    
C34   S10   S    
Cu3   O15   S    
S12   O50   D    
C39   S7    S    
C31   C48   A    
C4    O4    A    
O49   H35   S    
C32   C47   A    
C37   S5    S    
C36   C44   A    
C51   C59   A    
C24   H3    S    
Cu2   O9    S    
C37   C45   A    
O28   H28   S    
S4    O28   S    
Cu1   O10   S    
C27   C52   A    
Cu3   O5    S    
C39   C47   A    
S1    O17   D    
S7    O36   D    
C12   C24   A    
C16   N3    A    
C14   N1    A    
C23   H4    S    
Cu1   O4    S    
Cu2   O12   S    
O31   H29   S    
S6    O34   S    
S4    O27   D    
C25   C42   A    
C4    C26   S    
C11   C12   A    
C29   C46   A    
S1    O19   S    
C14   S1    S    
C13   N2    A    
C28   C43   A    
C13   C17   A    
C21   H2    S    
C15   S4    S    
C33   C41   A    
C47   H20   S    
C54   H9    S    
C53   H10   S    
C8    C30   S    
O34   H30   S    
C24   N3    A    
C55   H12   S    
Cu2   O2    S    
S10   O44   D    
C5    O13   A    
C41   H14   S    
C50   H5    S    
C12   C19   A    
C11   C23   A    
Cu1   N1    S    
C22   N1    A    
C7    O15   A    
O19   H25   S    
C45   H18   S    
Cu4   O13   S    
C6    O6    A    
S2    O21   D    
C38   C46   A    
C19   H23   S    
S6    O32   D    
Cu1   O1    S    
C3    O3    A    
C9    C18   A    
C2    O2    A    
Cu1   Cu2   S    
C29   C54   A    
S5    O30   D    
C49   H6    S    
C2    C28   S    
S1    O18   D    
S9    O41   D    
Cu1   O11   S    
C26   C41   A    
C1    O9    A    
C5    C31   S    
