data_mof_unit_32408.cif
_audit_creation_date              2012-12-11T14:21:05-0500
_audit_creation_method            fapswitch 2.2
_symmetry_space_group_name_H-M    P1
_symmetry_Int_Tables_number       1
_space_group_crystal_system       triclinic
_cell_length_a                    21.918994
_cell_length_b                    7.227315
_cell_length_c                    14.913798
_cell_angle_alpha                 89.999817
_cell_angle_beta                  106.908804
_cell_angle_gamma                 89.999953
_cell_volume                      2260.43961433

loop_
_atom_site_label
_atom_site_type_symbol
_atom_type_description
_atom_site_fract_x
_atom_site_fract_y
_atom_site_fract_z
_atom_type_partial_charge
O1    O     O_R   0.584770 0.505770 0.002090 -0.541738
O2    O     O_R   0.415230 0.005770 0.997910 -0.541738
O3    O     O_R   0.467060 0.173340 0.861950 -0.538205
O4    O     O_R   0.532940 0.673340 0.138050 -0.538205
C1    C     C_R   0.453881 0.344008 0.826285 0.675948
C2    C     C_R   0.546119 0.844007 0.173715 0.675951
O5    O     O_R   0.587510 0.175890 0.993210 -0.540897
O6    O     O_R   0.412490 0.675890 0.006790 -0.540898
O7    O     O_R   0.536540 0.008150 0.130100 -0.536581
O8    O     O_R   0.463460 0.508150 0.869900 -0.536582
C3    C     C_R   0.612754 0.345166 0.996971 0.749293
C4    C     C_R   0.387245 0.845166 0.003028 0.749295
O9    O     O_3   0.483140 0.340040 0.044760 -0.379054
O10   O     O_3   0.516860 0.840040 0.955240 -0.379054
V1    V     V_3+5 0.503130 0.064190 0.991700 1.412059
V2    V     V_3+5 0.496870 0.564190 0.008300 1.412059
C5    C     C_2   0.217151 0.724579 0.015587 0.233149
C6    C     C_2   0.782838 0.224604 0.984351 0.233168
C7    C     C_2   0.180735 0.880869 0.996548 -0.291079
C8    C     C_2   0.819264 0.380869 0.003448 -0.291078
H1    H     H_    0.200099 0.007407 0.977079 0.087213
H2    H     H_    0.799910 0.507377 0.022967 0.087204
C9    C     C_2   0.283954 0.715043 0.009411 -0.205022
C10   C     C_2   0.716038 0.215051 0.990544 -0.205022
C11   C     C_2   0.320667 0.862183 0.006123 -0.334539
C12   C     C_2   0.679332 0.362186 0.993870 -0.334543
H3    H     H_    0.304239 0.577489 0.010988 0.145478
H4    H     H_    0.695749 0.077495 0.988937 0.145479
H5    H     H_    0.302595 0.001304 0.007660 0.130746
H6    H     H_    0.697408 0.501309 0.992355 0.130751
C13   C     C_R   0.930336 0.885836 0.723676 -0.062775
C14   C     C_R   0.069664 0.385833 0.276324 -0.062773
C15   C     C_R   0.576206 0.850559 0.274825 -0.021073
C16   C     C_R   0.423794 0.350561 0.725175 -0.021072
C17   C     C_R   0.945221 0.881663 0.568093 0.085989
C18   C     C_R   0.054779 0.381661 0.431907 0.085988
C19   C     C_R   0.970361 0.886175 0.666378 -0.198037
C20   C     C_R   0.029639 0.386173 0.333622 -0.198035
C21   C     C_R   0.864714 0.879432 0.685114 -0.216395
C22   C     C_R   0.135286 0.379427 0.314886 -0.216399
C23   C     C_R   0.836390 0.871516 0.587355 0.058853
C24   C     C_R   0.163609 0.371511 0.412645 0.058855
C25   C     C_R   0.877283 0.876420 0.528316 0.086197
C26   C     C_R   0.122717 0.376417 0.471685 0.086196
C27   C     C_R   0.768561 0.860898 0.547166 0.073762
C28   C     C_R   0.231438 0.360892 0.452834 0.073761
C29   C     C_R   0.741571 0.864527 0.447696 0.057152
C30   C     C_R   0.258428 0.364524 0.552305 0.057152
C31   C     C_R   0.783482 0.872555 0.391683 -0.186324
C32   C     C_R   0.216518 0.372555 0.608317 -0.186323
C33   C     C_R   0.849306 0.876685 0.430881 -0.202169
C34   C     C_R   0.150694 0.376684 0.569119 -0.202169
C35   C     C_R   0.726808 0.844089 0.603518 -0.189581
C36   C     C_R   0.273192 0.344077 0.396482 -0.189581
C37   C     C_R   0.661320 0.836349 0.564740 -0.206459
C38   C     C_R   0.338679 0.336338 0.435261 -0.206457
C39   C     C_R   0.634188 0.843260 0.468275 0.141728
C40   C     C_R   0.365812 0.343254 0.531725 0.141727
C41   C     C_R   0.673544 0.857655 0.407847 0.079611
C42   C     C_R   0.326456 0.357654 0.592153 0.079612
C43   C     C_R   0.567578 0.833119 0.431920 -0.165389
C44   C     C_R   0.432421 0.333113 0.568081 -0.165388
C45   C     C_R   0.538833 0.835438 0.335724 -0.173640
C46   C     C_R   0.461167 0.335435 0.664276 -0.173640
C47   C     C_R   0.642774 0.862858 0.310055 -0.213061
C48   C     C_R   0.357226 0.362861 0.689945 -0.213061
H7    H     H_    0.877924 0.881342 0.382871 0.114003
H8    H     H_    0.122076 0.381342 0.617129 0.114004
H9    H     H_    0.668806 0.874038 0.259148 0.093613
H10   H     H_    0.331194 0.374044 0.740852 0.093611
H11   H     H_    0.487423 0.824670 0.308673 0.106384
H12   H     H_    0.512577 0.324666 0.691327 0.106384
H13   H     H_    0.631519 0.823321 0.611107 0.123116
H14   H     H_    0.368481 0.323305 0.388894 0.123116
H15   H     H_    0.021145 0.891184 0.700067 0.099371
H16   H     H_    0.978854 0.391184 0.299933 0.099369
H17   H     H_    0.837398 0.884685 0.734440 0.106837
H18   H     H_    0.162602 0.384680 0.265561 0.106825
H19   H     H_    0.766995 0.873806 0.316300 0.119387
H20   H     H_    0.233005 0.373808 0.683701 0.119385
H21   H     H_    0.742755 0.832807 0.678606 0.120653
H22   H     H_    0.257245 0.332789 0.321395 0.120656
H23   H     H_    0.537658 0.821342 0.478135 0.117449
H24   H     H_    0.462342 0.321333 0.521866 0.117449
O11   O     O_R   0.036450 0.233070 0.130130 -0.539780
O12   O     O_R   0.963550 0.733070 0.869870 -0.539778
O13   O     O_R   0.912470 0.560570 0.006790 -0.551821
O14   O     O_R   0.087530 0.060570 0.993210 -0.551814
C49   C     C_R   0.886735 0.391175 0.001644 0.744407
C50   C     C_R   0.113265 0.891174 0.998351 0.744394
O15   O     O_R   0.032920 0.562940 0.138050 -0.538308
O16   O     O_R   0.967080 0.062940 0.861950 -0.538302
O17   O     O_R   0.084790 0.730500 0.002090 -0.506016
O18   O     O_R   0.915210 0.230500 0.997910 -0.506025
C51   C     C_R   0.043384 0.394247 0.174500 0.698445
C52   C     C_R   0.956615 0.894248 0.825500 0.698463
O19   O     O_3   0.016820 0.396170 0.955260 -0.376623
O20   O     O_3   0.983180 0.896170 0.044740 -0.376636
V3    V     V_3+5 0.996880 0.672090 0.008300 1.446109
V4    V     V_3+5 0.003120 0.172090 0.991700 1.446118
N1    N     N_3   0.191636 0.557260 0.042266 -0.629790
H25   H     H_    0.193276 0.454349 0.993739 0.213645
H26   H     H_    0.221272 0.516250 0.107698 0.209393
N2    N     N_3   0.808337 0.057334 0.957590 -0.629828
H27   H     H_    0.806697 0.954337 0.006075 0.213660
H28   H     H_    0.778692 0.016434 0.892145 0.209396
C53   C     C_3   0.989686 0.882937 0.505518 -0.377549
C54   C     C_3   0.062083 0.883105 0.555440 -0.325516
C55   C     C_3   0.100324 0.881261 0.484621 -0.715986
H29   H     H_    0.089665 0.754898 0.440811 0.235226
H30   H     H_    0.088283 0.003163 0.437736 0.235031
H31   H     H_    0.152128 0.884268 0.522103 0.223344
H32   H     H_    0.075888 0.007657 0.600185 0.187982
H33   H     H_    0.075761 0.760080 0.601389 0.188521
H34   H     H_    0.978878 0.761693 0.458702 0.181869
H35   H     H_    0.978498 0.004498 0.458934 0.181445
C56   C     C_3   0.010314 0.382936 0.494482 -0.377547
C57   C     C_3   0.937917 0.383107 0.444560 -0.325518
C58   C     C_3   0.899676 0.381264 0.515379 -0.715984
H36   H     H_    0.910334 0.254901 0.559189 0.235226
H37   H     H_    0.911717 0.503165 0.562264 0.235032
H38   H     H_    0.847872 0.384273 0.477897 0.223344
H39   H     H_    0.924112 0.507659 0.399815 0.187981
H40   H     H_    0.924238 0.260082 0.398612 0.188521
H41   H     H_    0.021122 0.261692 0.541299 0.181869
H42   H     H_    0.021502 0.504497 0.541066 0.181445

loop_
_geom_bond_atom_site_label_1
_geom_bond_atom_site_label_2
_ccdc_geom_bond_type
C40   C44   A    
N1    H25   S    
C35   C37   A    
O1    C3    A    
C46   H12   S    
O2    C4    A    
C16   C48   A    
C2    O7    A    
N2    H28   S    
C15   C47   A    
C29   C31   A    
C20   H16   S    
O5    C3    A    
C14   C51   S    
C5    C9    S    
C6    C10   S    
C21   H17   S    
C7    H1    S    
C10   C12   D    
C55   H30   S    
C39   C41   A    
C40   C42   A    
C13   C52   S    
O16   C52   A    
C54   C55   S    
C35   H21   S    
C24   C28   A    
C27   C29   A    
C54   H33   S    
C49   O18   A    
C43   C45   A    
C5    N1    S    
C57   C58   S    
C44   C46   A    
C18   C56   S    
C13   C21   A    
C31   C33   A    
C32   C34   A    
C53   C54   S    
C9    H3    S    
C17   C25   A    
C56   H42   S    
O17   V3    S    
C34   H8    S    
C15   C45   A    
C26   C34   A    
C30   C32   A    
C19   H15   S    
C42   C48   A    
O6    V2    S    
C23   C25   A    
C24   C26   A    
N2    H27   S    
C30   C42   A    
O13   V3    S    
C58   H37   S    
C11   H5    S    
C36   C38   A    
C38   H14   S    
O4    C2    A    
C43   H23   S    
C55   H31   S    
C6    N2    S    
O5    V1    S    
C3    C12   S    
O15   C51   A    
C27   C35   A    
C31   H19   S    
C54   H32   S    
O4    V2    S    
O2    V1    S    
O18   V4    S    
O6    C4    A    
C1    C16   S    
C28   C36   A    
C16   C46   A    
O1    V2    S    
C33   H7    S    
O12   V3    S    
C53   H34   S    
O14   V4    S    
O12   C52   A    
O14   C50   A    
C12   H6    S    
C14   C20   A    
C37   C39   A    
C22   H18   S    
C18   C26   A    
C57   H40   S    
C36   H22   S    
O19   V4    S    
O3    V1    S    
O16   V4    S    
C50   O17   A    
C58   H38   S    
C44   H24   S    
C17   C19   A    
C10   H4    S    
C8    H2    S    
O3    C1    A    
C32   H20   S    
C58   H36   S    
C39   C43   A    
C8    C49   S    
C2    C15   S    
C4    C11   S    
C18   C20   A    
O7    V1    S    
C1    O8    A    
C7    C50   S    
O8    V2    S    
C56   C57   S    
C41   C47   A    
O11   C51   A    
C25   C33   A    
C48   H10   S    
C47   H9    S    
C22   C24   A    
C5    C7    D    
C38   C40   A    
C6    C8    D    
C57   H39   S    
C14   C22   A    
C53   H35   S    
C17   C53   S    
C29   C41   A    
C37   H13   S    
C28   C30   A    
C13   C19   A    
C9    C11   D    
C21   C23   A    
N1    H26   S    
O20   V3    S    
O9    V2    S    
O11   V4    S    
O13   C49   A    
C23   C27   A    
O10   V1    S    
O15   V3    S    
C55   H29   S    
C56   H41   S    
C45   H11   S    
