data_mof_unit_24830.cif
_audit_creation_date              2013-03-05T15:55:05-0500
_audit_creation_method            fapswitch 2.2
_symmetry_space_group_name_H-M    P1
_symmetry_Int_Tables_number       1
_space_group_crystal_system       triclinic
_cell_length_a                    13.528093
_cell_length_b                    13.981174
_cell_length_c                    30.006741
_cell_angle_alpha                 97.719695
_cell_angle_beta                  90.125407
_cell_angle_gamma                 118.817079
_cell_volume                      4912.87300521

loop_
_atom_site_label
_atom_site_type_symbol
_atom_site_description
_atom_site_fract_x
_atom_site_fract_y
_atom_site_fract_z
_atom_type_partial_charge
O1    O     O_R   0.493980 0.188910 0.559650 -0.537153
O2    O     O_R   0.678640 0.153520 0.554450 -0.537972
C1    C     C_R   0.721763 0.099324 0.568950 0.802006
O3    O     O_R   0.698130 0.004030 0.549500 -0.522302
O4    O     O_R   0.481060 0.827210 0.535360 -0.499880
C2    C     C_R   0.382748 0.786667 0.550455 0.831116
O5    O     O_R   0.309260 0.811560 0.537660 -0.553756
O6    O     O_R   0.341620 0.023400 0.546290 -0.533403
C3    C     C_R   0.397191 0.119148 0.569337 0.807877
O7    O     O_R   0.493030 0.185890 0.461780 -0.546833
O8    O     O_R   0.677760 0.150720 0.463730 -0.535329
C4    C     C_R   0.721417 0.095975 0.442707 0.752560
O9    O     O_R   0.697180 0.001010 0.451640 -0.554536
O10   O     O_R   0.480180 0.824400 0.444640 -0.525950
C5    C     C_R   0.382092 0.784065 0.424527 0.815676
O11   O     O_R   0.308310 0.808540 0.439800 -0.548230
O12   O     O_R   0.340740 0.020600 0.455570 -0.539966
C6    C     C_R   0.395867 0.115089 0.443244 0.775551
Cr1   Cr    Cr6+3 0.583430 0.162610 0.509470 0.960852
Cr2   Cr    Cr6+3 0.584210 0.916680 0.495400 1.018294
Cr3   Cr    Cr6+3 0.332380 0.920740 0.495100 0.949603
O13   O     O_3   0.500010 0.000010 0.499990 -0.345208
H1    H     H_    0.205072 0.701281 0.680641 0.132753
H2    H     H_    0.214789 0.748526 0.605392 0.173149
C7    C     C_R   0.360816 0.727411 0.589610 -0.168816
C8    C     C_R   0.435385 0.692276 0.605281 0.378564
C9    C     C_R   0.430104 0.668402 0.649465 -0.184679
C10   C     C_R   0.349271 0.674613 0.676728 0.059858
C11   C     C_R   0.268751 0.697781 0.659680 -0.140775
C12   C     C_R   0.274145 0.723731 0.616445 -0.206436
C13   C     C_R   0.269873 0.680557 0.835157 -0.019689
C14   C     C_R   0.252814 0.657233 0.879911 0.366171
C15   C     C_R   0.380567 0.579861 0.872169 -0.184036
C16   C     C_R   0.397551 0.602878 0.828541 -0.078676
C17   C     C_R   0.339969 0.649044 0.809480 0.061332
C18   C     C_1   0.348966 0.657606 0.762577 0.009196
C19   C     C_1   0.351400 0.663840 0.723178 -0.006036
C20   C     C_R   0.304324 0.601423 0.897539 -0.178781
H3    H     H_    0.451968 0.579740 0.808846 0.136144
H4    H     H_    0.421737 0.537833 0.884796 0.166996
H5    H     H_    0.489599 0.646268 0.662762 0.163787
C21   C     C_3   0.218591 0.127482 0.721648 0.370579
C22   C     C_3   0.246355 0.064226 0.753630 -0.275097
H6    H     H_    0.187142 0.981285 0.761927 0.165146
H7    H     H_    0.397189 0.042881 0.721387 0.132006
C23   C     C_1   0.292834 0.200521 0.876097 -0.128150
C24   C     C_1   0.364367 0.137940 0.613228 -0.132027
C25   C     C_3   0.276654 0.233721 0.755704 0.340604
C26   C     C_3   0.305469 0.172499 0.787745 -0.009627
C27   C     C_3   0.389856 0.268715 0.734014 -0.264188
C28   C     C_3   0.330208 0.160221 0.699983 0.010351
C29   C     C_3   0.418240 0.205851 0.766189 0.088658
C30   C     C_3   0.360815 0.097968 0.731695 -0.194693
C31   C     C_1   0.297411 0.183323 0.836233 0.032902
C32   C     C_1   0.345322 0.149908 0.651958 0.059139
H8    H     H_    0.448127 0.352192 0.725921 0.156297
C33   C     C_3   0.930198 0.256290 0.730973 -0.060082
C34   C     C_3   0.851971 0.272594 0.765199 -0.164745
H9    H     H_    0.862528 0.353323 0.781643 0.127269
H10   H     H_    0.004571 0.323288 0.718042 0.176504
H11   H     H_    0.670305 0.185959 0.725098 0.121543
C35   C     C_1   0.898927 0.205029 0.877857 -0.137781
C36   C     C_1   0.772512 0.132432 0.613966 -0.126027
C37   C     C_3   0.931066 0.167173 0.756367 -0.004211
C38   C     C_3   0.852501 0.183280 0.789805 0.125021
C39   C     C_3   0.825686 0.076170 0.726506 -0.099990
C40   C     C_3   0.825164 0.165431 0.701930 0.123971
C41   C     C_3   0.747578 0.092338 0.760683 -0.175492
C42   C     C_3   0.746506 0.181298 0.735320 -0.159371
C43   C     C_1   0.872894 0.193902 0.838440 -0.027485
C44   C     C_1   0.802414 0.151342 0.653339 0.005496
H12   H     H_    0.673043 0.025035 0.773420 0.123831
H13   H     H_    0.815241 0.995617 0.709900 0.178320
H14   H     H_    0.005811 0.159521 0.765975 0.181809
C45   C     C_3   0.254542 0.577207 0.259395 -0.146494
C46   C     C_3   0.242516 0.653618 0.229490 -0.123477
H15   H     H_    0.161586 0.644577 0.215863 0.133639
H16   H     H_    0.183713 0.505258 0.271505 0.123856
H17   H     H_    0.329720 0.831881 0.273382 0.131267
C47   C     C_1   0.307092 0.604324 0.111650 -0.135529
C48   C     C_1   0.365103 0.733506 0.378556 -0.154470
C49   C     C_3   0.347096 0.573263 0.230085 -0.137476
C50   C     C_3   0.335295 0.650288 0.201008 0.158435
C51   C     C_3   0.439795 0.676278 0.261045 -0.139080
C52   C     C_3   0.347006 0.679687 0.289495 0.153621
C53   C     C_3   0.427619 0.752685 0.231101 -0.126426
C54   C     C_3   0.335036 0.756452 0.260307 -0.118095
C55   C     C_1   0.324208 0.630197 0.151857 -0.043330
C56   C     C_1   0.355143 0.703360 0.338600 -0.057804
H18   H     H_    0.498333 0.824560 0.218917 0.128025
H19   H     H_    0.520654 0.685222 0.274691 0.120854
H20   H     H_    0.352136 0.497756 0.216881 0.120535
H21   H     H_    0.159902 0.050609 0.079780 0.182811
H22   H     H_    0.184872 0.986508 0.306555 0.147940
H23   H     H_    0.222013 0.965309 0.383276 0.143784
C57   C     C_R   0.354893 0.135231 0.402012 -0.041097
C58   C     C_R   0.413906 0.238688 0.387546 -0.148810
C59   C     C_R   0.392879 0.250109 0.343634 -0.144356
C60   C     C_R   0.312468 0.158556 0.314173 0.113291
C61   C     C_R   0.246933 0.057812 0.329372 -0.139139
C62   C     C_R   0.267877 0.046156 0.373203 -0.187690
C63   C     C_R   0.229491 0.089958 0.148457 0.403302
C64   C     C_R   0.228625 0.110151 0.103972 -0.241796
C65   C     C_R   0.402017 0.284778 0.122342 -0.145954
C66   C     C_R   0.403463 0.266235 0.166625 -0.208188
C67   C     C_R   0.315676 0.171841 0.180205 0.000848
C68   C     C_1   0.311115 0.166498 0.227415 0.045667
C69   C     C_1   0.309284 0.163409 0.267104 -0.024059
C70   C     C_R   0.311716 0.209391 0.091206 -0.097662
H24   H     H_    0.481149 0.308719 0.409097 0.145216
H25   H     H_    0.470144 0.328705 0.190943 0.134890
H26   H     H_    0.467154 0.361941 0.113471 0.154720
H27   H     H_    0.444059 0.328313 0.331868 0.114402
H28   H     H_    0.007630 0.418193 0.117496 0.151647
H29   H     H_    0.990899 0.419109 0.199066 0.115243
H30   H     H_    0.831264 0.327857 0.335156 0.121502
H31   H     H_    0.739309 0.263858 0.402814 0.149055
C71   C     C_R   0.792809 0.140452 0.404802 -0.087486
C72   C     C_R   0.859182 0.095293 0.383655 0.069096
C73   C     C_R   0.911733 0.134971 0.344414 -0.123337
C74   C     C_R   0.900433 0.216965 0.326750 0.095557
C75   C     C_R   0.840974 0.264730 0.348865 -0.138153
C76   C     C_R   0.788307 0.227407 0.387548 -0.178436
C77   C     C_R   0.992238 0.349830 0.178565 -0.130782
C78   C     C_R   0.000490 0.348497 0.132022 -0.160894
C79   C     C_R   0.993165 0.170322 0.125071 -0.146158
C80   C     C_R   0.985361 0.172031 0.171446 -0.117956
C81   C     C_R   0.983444 0.260945 0.198185 0.108792
C82   C     C_1   0.962326 0.254833 0.244843 -0.056795
C83   C     C_1   0.937874 0.241744 0.282920 -0.044480
C84   C     C_R   0.998466 0.257392 0.104648 -0.077182
H32   H     H_    0.978701 0.102887 0.186342 0.155258
H33   H     H_    0.994535 0.100434 0.105178 0.169575
H34   H     H_    0.958574 0.100170 0.326057 0.114066
O14   O     O_R   0.969650 0.150960 0.933380 -0.537121
O15   O     O_R   0.187740 0.180870 0.937580 -0.527921
C85   C     C_R   0.283563 0.232712 0.922062 0.819425
O16   O     O_R   0.358510 0.327410 0.940870 -0.545577
O17   O     O_R   0.324180 0.507870 0.953930 -0.547400
C86   C     C_R   0.267000 0.548337 0.938246 0.867723
O18   O     O_R   0.170560 0.527890 0.952050 -0.496108
O19   O     O_R   0.987620 0.318470 0.945550 -0.523720
C87   C     C_R   0.945606 0.222216 0.922779 0.836375
O20   O     O_R   0.976400 0.159270 0.031530 -0.541818
O21   O     O_R   0.194000 0.188570 0.028560 -0.554069
C88   C     C_R   0.292217 0.243214 0.049194 0.775595
O22   O     O_R   0.365260 0.335720 0.039020 -0.545631
O23   O     O_R   0.330440 0.515580 0.044910 -0.538834
C89   C     C_R   0.274808 0.558018 0.065241 0.795355
O24   O     O_R   0.177310 0.536200 0.050190 -0.539967
O25   O     O_R   0.993870 0.326170 0.036530 -0.535420
C90   C     C_R   0.009858 0.255500 0.055582 0.797586
Cr4   Cr    Cr6+3 0.086810 0.177030 0.983130 0.964870
Cr5   Cr    Cr6+3 0.337180 0.419300 0.994610 0.944970
Cr6   Cr    Cr6+3 0.084840 0.422330 0.995830 1.011526
O26   O     O_3   0.169610 0.339550 0.991190 -0.370300
N1    N     N_R   0.183472 0.689267 0.907205 0.084111
O27   O     O_R   0.224472 0.750886 0.946332 -0.370791
O28   O     O_R   0.077061 0.649850 0.894794 -0.377107
N2    N     N_R   0.109915 0.086251 0.696611 0.082112
O29   O     O_R   0.026931 0.988755 0.699963 -0.390388
O30   O     O_R   0.096118 0.145973 0.670139 -0.357507
C91   C     C_3   0.531693 0.255032 0.793668 -0.334122
C92   C     C_3   0.539463 0.169344 0.818328 -0.312389
C93   C     C_3   0.637344 0.224743 0.854725 -0.723438
H35   H     H_    0.717327 0.278588 0.840293 0.237656
H36   H     H_    0.620380 0.275770 0.882015 0.232889
H37   H     H_    0.646901 0.160679 0.869468 0.217891
H38   H     H_    0.460289 0.121807 0.834648 0.203548
H39   H     H_    0.551313 0.109789 0.793645 0.188983
H40   H     H_    0.601284 0.287272 0.770947 0.165611
H41   H     H_    0.540565 0.325953 0.818412 0.186014
N3    N     N_R   0.231274 0.308611 0.767918 0.066668
O31   O     O_R   0.219645 0.362147 0.737904 -0.377368
O32   O     O_R   0.207969 0.326962 0.809157 -0.407631
C94   C     C_3   0.214727 0.738923 0.814852 -0.325716
C95   C     C_3   0.105742 0.655844 0.785710 -0.283909
C96   C     C_3   0.051254 0.714633 0.764922 -0.733019
H42   H     H_    0.029313 0.762547 0.791787 0.245987
H43   H     H_    0.109930 0.771425 0.742878 0.223627
H44   H     H_    0.972607 0.652635 0.744206 0.226689
H45   H     H_    0.124337 0.606888 0.758082 0.198233
H46   H     H_    0.044395 0.597351 0.806552 0.235958
H47   H     H_    0.195620 0.789364 0.841601 0.219274
H48   H     H_    0.275087 0.798758 0.794123 0.154413
N4    N     N_R   0.140557 0.989334 0.160999 0.074717
O33   O     O_R   0.158064 0.946872 0.194184 -0.385384
O34   O     O_R   0.044515 0.934069 0.136683 -0.385095
C97   C     C_3   0.870749 0.004471 0.402278 -0.333164
C98   C     C_3   0.956429 0.973032 0.380914 -0.356474
C99   C     C_3   0.965157 0.887197 0.404741 -0.718214
H49   H     H_    0.000873 0.923011 0.440139 0.235758
H50   H     H_    0.880472 0.813545 0.404575 0.233858
H51   H     H_    0.021297 0.860147 0.386910 0.212050
H52   H     H_    0.928694 0.936801 0.344859 0.202571
H53   H     H_    0.041391 0.047514 0.383358 0.214592
H54   H     H_    0.896520 0.031942 0.438974 0.195463
H55   H     H_    0.786754 0.928509 0.397560 0.202319
N5    N     N_R   0.516020 0.680659 0.577166 0.099960
O35   O     O_R   0.612323 0.698489 0.594996 -0.363355
O36   O     O_R   0.486699 0.636137 0.535000 -0.373241

loop_
_geom_bond_atom_site_label_1
_geom_bond_atom_site_label_2
_geom_bond_distance
_ccdc_geom_bond_type
C97   H55   1.111149 S    
O6    C3    1.270549 A    
C39   C41   1.546621 S    
C98   C99   1.527099 S    
O15   Cr4   1.921599 S    
C6    C57   1.469149 S    
C92   H39   1.109534 S    
C17   C18   1.428935 S    
C45   C49   1.550041 S    
C35   C87   1.427038 S    
C45   C46   1.548367 S    
C81   C82   1.435063 S    
H21   C64   1.083010 S    
H17   C54   1.110549 S    
O21   C88   1.274038 A    
C92   H38   1.110063 S    
C94   H48   1.112193 S    
C5    C48   1.426681 S    
O4    Cr2   1.917616 S    
N3    O31   1.300035 A    
C73   C74   1.396522 A    
C60   C69   1.424660 S    
C71   C76   1.410707 A    
O8    Cr1   1.921130 S    
C8    C9    1.403795 A    
C63   N4    1.442510 S    
H30   C75   1.083749 S    
H1    C11   1.083890 S    
C18   C19   1.196445 T    
C51   C53   1.550003 S    
C25   N3    1.457763 S    
C65   C70   1.401881 A    
C2    C7    1.476771 S    
C67   C68   1.428467 S    
H11   C42   1.108940 S    
C26   C31   1.452289 S    
C49   H20   1.110512 S    
C35   C43   1.201290 T    
C16   C17   1.390153 A    
C14   N1    1.435678 S    
O20   Cr4   2.037326 S    
O22   Cr5   2.032164 S    
C78   C84   1.408223 A    
C80   H32   1.083858 S    
C61   C62   1.391805 A    
C71   C72   1.431383 A    
C45   C52   1.533923 S    
N1    O27   1.301166 A    
C91   C92   1.533975 S    
C79   H33   1.082702 S    
C41   C42   1.548544 S    
C27   C29   1.550410 S    
O25   C90   1.306547 A    
C63   C67   1.411715 A    
C51   H19   1.110078 S    
C14   C20   1.416939 A    
O19   Cr6   1.917355 S    
C91   H40   1.109303 S    
C74   C83   1.436153 S    
C28   C32   1.453680 S    
C98   H53   1.111810 S    
C21   C28   1.526462 S    
C77   C81   1.399806 A    
C48   C56   1.200869 T    
O16   Cr5   2.033960 S    
C25   C27   1.541360 S    
C50   C55   1.457321 S    
C66   H25   1.084144 S    
N4    O33   1.301330 A    
H7    C30   1.110419 S    
N5    O35   1.301431 A    
N1    O28   1.300915 A    
C57   C62   1.406057 A    
C47   C55   1.200336 T    
C84   C90   1.478732 S    
C97   C98   1.538297 S    
O23   Cr5   1.916120 S    
C33   C40   1.532721 S    
C46   C50   1.535656 S    
C65   C66   1.389474 A    
C22   C30   1.561102 S    
C58   C59   1.393308 A    
H2    C12   1.083062 S    
C13   C94   1.520573 S    
N3    O32   1.300352 A    
C47   C89   1.425393 S    
C21   N2    1.456010 S    
O1    Cr1   2.038368 S    
C15   H4    1.083228 S    
C5    O11   1.269844 A    
C52   C54   1.537749 S    
C16   H3    1.084428 S    
C96   H44   1.110420 S    
C96   H42   1.111023 S    
Cr1   O13   1.968294 S    
O1    C3    1.263694 A    
C51   C52   1.535639 S    
C53   H18   1.110012 S    
C65   H26   1.083028 S    
H28   C78   1.082780 S    
C52   C56   1.458063 S    
C53   C54   1.547730 S    
O18   Cr6   2.031338 S    
C59   H27   1.083739 S    
O17   Cr5   1.915590 S    
C27   C28   1.547601 S    
C7    C8    1.420473 A    
C95   H46   1.110874 S    
C39   H13   1.110031 S    
O12   Cr3   1.913717 S    
C1    O3    1.263943 A    
C99   H49   1.110859 S    
C40   C42   1.535525 S    
N2    O30   1.300295 A    
C22   H6    1.109652 S    
C99   H50   1.110930 S    
C79   C84   1.406801 A    
C11   C12   1.386149 A    
C91   H41   1.111743 S    
O10   Cr2   1.917651 S    
C9    H5    1.083806 S    
C34   C38   1.536504 S    
C13   C14   1.417553 A    
H22   C61   1.083848 S    
O7    Cr1   2.037286 S    
C41   H12   1.109896 S    
C38   C41   1.533386 S    
C57   C58   1.405333 A    
C23   C31   1.195790 T    
O12   C6    1.273144 A    
C34   C42   1.549192 S    
C21   C25   1.526914 S    
C86   O18   1.276728 A    
C72   C73   1.413709 A    
C46   H15   1.110214 S    
C8    N5    1.437374 S    
C95   H45   1.110648 S    
C46   C54   1.546519 S    
C74   C75   1.390856 A    
C98   H52   1.111597 S    
C95   C96   1.525719 S    
C23   C85   1.417412 S    
C4    C71   1.492989 S    
C94   C95   1.535621 S    
C36   C44   1.200090 T    
C49   C50   1.537537 S    
C93   H37   1.110190 S    
O25   Cr6   1.914727 S    
O24   Cr6   2.033135 S    
C13   C17   1.414831 A    
C34   H9    1.110169 S    
C21   C22   1.546233 S    
C68   C69   1.197377 T    
N4    O34   1.301579 A    
C80   C81   1.397501 A    
C10   C11   1.391164 A    
Cr6   O26   1.977593 S    
C29   C30   1.548343 S    
C33   C37   1.549940 S    
C24   C32   1.198175 T    
C88   O22   1.271899 A    
C85   O16   1.265737 A    
C97   H54   1.112272 S    
C7    C12   1.408157 A    
C94   H47   1.110403 S    
C92   C93   1.524387 S    
C37   H14   1.108290 S    
H29   C77   1.083419 S    
O9    Cr2   2.034107 S    
O2    Cr1   1.921741 S    
O19   C87   1.270772 A    
Cr5   O26   1.980952 S    
C22   C26   1.546632 S    
C72   C97   1.526758 S    
C26   C29   1.537121 S    
Cr2   O13   1.977548 S    
O15   C85   1.268906 A    
C33   H10   1.109540 S    
C73   H34   1.080951 S    
O6    Cr3   1.915482 S    
C96   H43   1.110806 S    
O17   C86   1.277407 A    
O11   Cr3   2.031311 S    
C3    C24   1.422265 S    
C2    O5    1.274625 A    
C1    C36   1.425439 S    
C66   C67   1.397785 A    
C49   C51   1.550575 S    
C15   C20   1.405614 A    
O14   Cr4   2.039614 S    
C60   C61   1.395862 A    
C64   C70   1.405889 A    
N2    O29   1.300224 A    
O2    C1    1.271761 A    
C82   C83   1.203251 T    
C99   H51   1.109242 S    
O21   Cr4   1.921927 S    
O20   C90   1.298661 A    
O5    Cr3   2.030785 S    
C89   O24   1.268549 A    
C37   C38   1.536826 S    
C58   H24   1.083063 S    
C33   C34   1.549530 S    
O4    C2    1.280687 A    
C10   C19   1.423606 S    
O7    C6    1.269457 A    
C79   C80   1.393654 A    
C25   C26   1.533021 S    
Cr4   O26   1.968174 S    
O14   C87   1.263552 A    
C15   C16   1.383256 A    
C39   C40   1.535264 S    
C40   C44   1.456681 S    
O23   C89   1.275094 A    
H31   C76   1.083131 S    
C63   C64   1.402134 A    
C45   H16   1.110226 S    
C27   H8    1.110210 S    
C70   C88   1.470174 S    
C29   C91   1.527437 S    
O3    Cr2   2.035646 S    
H23   C62   1.081892 S    
C93   H35   1.108786 S    
C50   C53   1.532606 S    
C4    O9    1.272213 A    
C93   H36   1.110826 S    
C59   C60   1.397406 A    
C9    C10   1.396046 A    
N5    O36   1.301479 A    
C20   C86   1.477438 S    
O10   C5    1.275424 A    
C28   C30   1.550064 S    
C75   C76   1.391124 A    
Cr3   O13   1.980995 S    
C38   C43   1.458927 S    
O8    C4    1.280736 A    
C37   C39   1.547108 S    
C77   C78   1.399645 A    
