data_mof_unit_40312.cif
_audit_creation_date              2012-12-10T20:50:02-0500
_audit_creation_method            fapswitch 2.2
_symmetry_space_group_name_H-M    P1
_symmetry_Int_Tables_number       1
_space_group_crystal_system       triclinic
_cell_length_a                    19.121401
_cell_length_b                    19.139508
_cell_length_c                    19.156163
_cell_angle_alpha                 94.762757
_cell_angle_beta                  90.619924
_cell_angle_gamma                 85.539645
_cell_volume                      6965.22761105

loop_
_atom_site_label
_atom_site_type_symbol
_atom_type_description
_atom_site_fract_x
_atom_site_fract_y
_atom_site_fract_z
_atom_type_partial_charge
C1    C     C_R   0.492672 0.492964 0.310908 0.858970
C2    C     C_R   0.117796 0.569111 0.506349 -0.121076
C3    C     C_R   0.512668 0.508154 0.767366 -0.374123
C4    C     C_R   0.507224 0.507715 0.689900 0.897679
C5    C     C_R   0.465465 0.471366 0.804028 0.312503
C6    C     C_R   0.478132 0.459658 0.874053 0.414380
C7    C     C_R   0.530271 0.495068 0.912331 -0.014378
C8    C     C_R   0.577177 0.533199 0.877137 -0.178097
C9    C     C_R   0.567216 0.541272 0.804759 0.391075
C10   C     C_R   0.511558 0.554622 0.129669 -0.090675
C11   C     C_R   0.515594 0.553081 0.203503 -0.193543
C12   C     C_R   0.913566 0.466584 0.509195 0.021403
C13   C     C_R   0.482330 0.498584 0.089139 0.082691
C14   C     C_R   0.492787 0.494331 0.234649 -0.244186
C15   C     C_R   0.465232 0.438634 0.193626 0.337411
C16   C     C_R   0.492176 0.689828 0.508594 1.004175
C17   C     C_R   0.455469 0.443261 0.121693 0.365406
C18   C     C_R   0.509499 0.232745 0.486787 -0.226527
C19   C     C_R   0.446174 0.199043 0.477080 -0.223976
C20   C     C_R   0.448954 0.125397 0.463687 0.455649
C21   C     C_R   0.513882 0.085106 0.467347 0.045997
C22   C     C_R   0.576223 0.118391 0.478008 0.322943
C23   C     C_R   0.880638 0.458215 0.443175 0.354823
C24   C     C_R   0.574936 0.192075 0.487148 -0.124559
C25   C     C_R   0.510369 0.866133 0.443494 0.343269
C26   C     C_R   0.520559 0.794160 0.451712 0.312194
C27   C     C_R   0.478952 0.912063 0.498178 0.020369
C28   C     C_R   0.507439 0.310106 0.492119 0.896034
C29   C     C_R   0.491173 0.766231 0.509379 -0.270249
C30   C     C_R   0.458392 0.811286 0.563805 -0.180755
C31   C     C_R   0.454487 0.884452 0.558310 0.333334
C32   C     C_R   0.310656 0.507845 0.507441 0.883133
C33   C     C_R   0.689519 0.490926 0.493919 0.875456
C34   C     C_R   0.807030 0.469337 0.438365 0.327688
C35   C     C_R   0.766513 0.480816 0.499806 -0.311157
C36   C     C_R   0.799721 0.481748 0.566554 -0.232832
C37   C     C_R   0.873417 0.472435 0.570589 0.438808
C38   C     C_3   0.265844 0.387789 0.386978 0.075246
C39   C     C_3   0.252851 0.318086 0.345649 -0.282868
C40   C     C_3   0.266722 0.320905 0.267883 -1.024871
C41   C     C_2   0.538028 0.614025 0.094968 0.507507
C42   C     C_2   0.636583 0.563857 0.916896 0.502083
C43   C     C_3   0.586578 0.649965 0.772544 0.165058
C44   C     C_3   0.632460 0.689475 0.726832 -0.237825
C45   C     C_R   0.131487 0.442142 0.473475 -0.145124
C46   C     C_3   0.608424 0.767588 0.729460 -0.994340
C47   C     C_3   0.492250 0.327669 0.225469 0.120100
C48   C     C_3   0.469289 0.273451 0.273177 -0.356988
C49   C     C_3   0.527565 0.215971 0.283221 -0.941650
C50   C     C_3   0.474956 0.348642 0.909615 0.103692
C51   C     C_3   0.466614 0.301173 0.841954 -0.327171
C52   C     C_3   0.498972 0.226705 0.849256 -0.974912
C53   C     C_3   0.356380 0.413139 0.061145 0.135802
C54   C     C_3   0.302174 0.397178 0.114546 -0.366252
C55   C     C_3   0.227634 0.416166 0.089415 -0.959980
C56   C     C_R   0.204658 0.443467 0.480560 0.416571
C57   C     C_3   0.352798 0.493297 0.764850 0.151867
C58   C     C_3   0.302541 0.494262 0.826691 -0.339403
C59   C     C_3   0.238135 0.545095 0.817918 -0.972696
C60   C     C_3   0.624334 0.731219 0.421261 0.092015
C61   C     C_3   0.675290 0.779096 0.391830 -0.316101
C62   C     C_3   0.751162 0.756445 0.409875 -0.954366
C63   C     C_3   0.479319 0.901038 0.335068 0.073554
C64   C     C_3   0.475027 0.835737 0.283791 -0.250662
C65   C     C_3   0.422989 0.849642 0.224672 -0.941046
C66   C     C_3   0.650755 0.053030 0.546528 0.102242
C67   C     C_R   0.087933 0.505137 0.485542 0.096476
C68   C     C_3   0.682246 0.976864 0.537917 -0.303488
C69   C     C_3   0.695823 0.946905 0.608626 -0.985397
C70   C     C_2   0.100781 0.375826 0.448606 0.434924
C71   C     C_2   0.642959 0.224003 0.500410 0.444686
C72   C     C_2   0.427467 0.784734 0.626799 0.370337
C73   C     C_3   0.385473 0.070881 0.375407 0.113534
C74   C     C_3   0.347599 0.127751 0.334143 -0.355137
C75   C     C_3   0.343321 0.103557 0.256401 -0.963469
C76   C     C_3   0.478873 0.951248 0.657740 0.074209
C77   C     C_3   0.446769 0.999550 0.718410 -0.298863
C78   C     C_R   0.234060 0.506281 0.504156 -0.256052
C79   C     C_3   0.503175 0.024873 0.769321 -0.976120
C80   C     C_2   0.377041 0.240729 0.477621 0.499408
C81   C     C_3   0.907718 0.372954 0.351721 0.102940
C82   C     C_3   0.911755 0.313453 0.401772 -0.426912
C83   C     C_3   0.910144 0.241510 0.361288 -0.891424
C84   C     C_3   0.770897 0.534392 0.348785 0.108767
C85   C     C_3   0.732806 0.531802 0.278180 -0.345117
C86   C     C_3   0.727627 0.603280 0.247857 -0.963925
C87   C     C_3   0.229816 0.635441 0.611820 0.052900
C88   C     C_3   0.253794 0.707908 0.635440 -0.289429
C89   C     C_R   0.190814 0.568697 0.517898 0.290381
C90   C     C_3   0.271526 0.714201 0.713442 -0.932995
C91   C     C_3   0.934418 0.404739 0.648229 0.116161
C92   C     C_3   0.880119 0.365244 0.684204 -0.360206
C93   C     C_3   0.911557 0.293871 0.704180 -0.928973
C94   C     C_2   0.074209 0.637179 0.517783 0.473373
C95   C     C_2   0.757756 0.489194 0.632210 0.540656
C96   C     C_2   0.542065 0.612311 0.249466 0.450958
H1    H     H_    0.322558 0.396407 0.384308 0.127445
H2    H     H_    0.587857 0.674350 0.827344 0.147138
H3    H     H_    0.300804 0.717143 0.605033 0.254879
H4    H     H_    0.211532 0.748864 0.624580 0.216208
H5    H     H_    0.224703 0.706105 0.744735 0.260996
H6    H     H_    0.288549 0.767495 0.728788 0.267067
H7    H     H_    0.314845 0.674702 0.725119 0.268454
H8    H     H_    0.980194 0.410406 0.683893 0.178619
H9    H     H_    0.954516 0.372728 0.600276 0.120581
H10   H     H_    0.860653 0.397041 0.732251 0.266690
H11   H     H_    0.835035 0.356771 0.648254 0.207447
H12   H     H_    0.930412 0.260757 0.656716 0.269669
H13   H     H_    0.531579 0.655247 0.752503 0.141140
H14   H     H_    0.870932 0.266517 0.729819 0.270025
H15   H     H_    0.956003 0.300671 0.741313 0.269011
H16   H     H_    0.098768 0.685155 0.534024 0.097309
H17   H     H_    0.706130 0.469447 0.632811 0.060470
H18   H     H_    0.566597 0.602433 0.299399 0.052510
H19   H     H_    0.687786 0.683540 0.745201 0.251417
H20   H     H_    0.630190 0.666403 0.671716 0.247965
H21   H     H_    0.553206 0.774908 0.711496 0.283519
H22   H     H_    0.641881 0.794285 0.694588 0.267944
H23   H     H_    0.612829 0.792337 0.783700 0.269773
H24   H     H_    0.543241 0.346222 0.245258 0.154665
H25   H     H_    0.499848 0.302029 0.171473 0.163441
H26   H     H_    0.454252 0.300067 0.325272 0.216314
H27   H     H_    0.236427 0.431298 0.360722 0.121090
H28   H     H_    0.422796 0.248890 0.249739 0.227621
H29   H     H_    0.543298 0.188238 0.231905 0.263755
H30   H     H_    0.508623 0.177185 0.317201 0.256136
H31   H     H_    0.573863 0.239000 0.308836 0.277523
H32   H     H_    0.452721 0.323122 0.953420 0.192555
H33   H     H_    0.531641 0.352910 0.922364 0.130751
H34   H     H_    0.409961 0.299076 0.829029 0.253684
H35   H     H_    0.492904 0.323024 0.798099 0.240498
H36   H     H_    0.555769 0.227522 0.861811 0.268903
H37   H     H_    0.492899 0.194171 0.799126 0.279671
H38   H     H_    0.287455 0.275155 0.365858 0.222141
H39   H     H_    0.472242 0.202373 0.891268 0.266937
H40   H     H_    0.345099 0.383727 0.010362 0.181112
H41   H     H_    0.350333 0.470048 0.051702 0.142538
H42   H     H_    0.308121 0.340241 0.122871 0.249665
H43   H     H_    0.311144 0.427905 0.165201 0.244912
H44   H     H_    0.220298 0.473153 0.081662 0.271957
H45   H     H_    0.189486 0.404097 0.129147 0.269877
H46   H     H_    0.216869 0.385229 0.039325 0.268885
H47   H     H_    0.323846 0.479014 0.715761 0.172310
H48   H     H_    0.370006 0.547136 0.759965 0.090194
H49   H     H_    0.197647 0.305883 0.351941 0.255575
H50   H     H_    0.285465 0.440528 0.830634 0.242442
H51   H     H_    0.329838 0.510762 0.876120 0.240588
H52   H     H_    0.254020 0.599551 0.816728 0.269298
H53   H     H_    0.202115 0.543576 0.862749 0.278450
H54   H     H_    0.209761 0.530150 0.768670 0.265858
H55   H     H_    0.638135 0.676233 0.399801 0.135067
H56   H     H_    0.631102 0.731636 0.479285 0.123790
H57   H     H_    0.669207 0.777542 0.333958 0.246673
H58   H     H_    0.663086 0.834049 0.414171 0.242125
H59   H     H_    0.758484 0.758591 0.467604 0.272727
H60   H     H_    0.321073 0.334639 0.259747 0.303498
H61   H     H_    0.786622 0.792471 0.388271 0.278297
H62   H     H_    0.765625 0.702154 0.386874 0.262156
H63   H     H_    0.490920 0.945724 0.304756 0.160492
H64   H     H_    0.427389 0.915346 0.360525 0.112173
H65   H     H_    0.527697 0.819991 0.261036 0.268248
H66   H     H_    0.457724 0.791746 0.311986 0.263867
H67   H     H_    0.369801 0.864959 0.246282 0.258646
H68   H     H_    0.420604 0.801170 0.188874 0.300112
H69   H     H_    0.439758 0.892304 0.194205 0.260076
H70   H     H_    0.602273 0.054938 0.578944 0.122629
H71   H     H_    0.229383 0.360805 0.245909 0.276192
H72   H     H_    0.688469 0.086129 0.575617 0.144607
H73   H     H_    0.645580 0.943946 0.507101 0.234640
H74   H     H_    0.732456 0.974343 0.508780 0.233572
H75   H     H_    0.733242 0.978259 0.640135 0.275281
H76   H     H_    0.718717 0.891752 0.600243 0.272987
H77   H     H_    0.646043 0.947269 0.638024 0.255102
H78   H     H_    0.055354 0.377255 0.414422 0.081939
H79   H     H_    0.691357 0.196087 0.480986 0.099792
H80   H     H_    0.395771 0.820461 0.662807 0.121695
H81   H     H_    0.355317 0.023455 0.369304 0.163002
H82   H     H_    0.259558 0.268900 0.239707 0.271132
H83   H     H_    0.438202 0.055487 0.352231 0.103578
H84   H     H_    0.293709 0.140473 0.355036 0.259691
H85   H     H_    0.376397 0.176010 0.340004 0.199812
H86   H     H_    0.396844 0.092275 0.234215 0.267475
H87   H     H_    0.315431 0.145623 0.227866 0.268246
H88   H     H_    0.314186 0.055491 0.248655 0.270342
H89   H     H_    0.516635 0.980704 0.630145 0.148725
H90   H     H_    0.507618 0.904865 0.679470 0.127941
H91   H     H_    0.417549 0.045893 0.697519 0.245658
H92   H     H_    0.409313 0.970713 0.746920 0.223051
H93   H     H_    0.584386 0.638305 0.115037 0.077569
H94   H     H_    0.532851 0.979377 0.791186 0.270851
H95   H     H_    0.478170 0.059120 0.813181 0.273929
H96   H     H_    0.540096 0.055560 0.742281 0.264474
H97   H     H_    0.373132 0.294575 0.463642 0.055713
H98   H     H_    0.947936 0.359282 0.310395 0.160071
H99   H     H_    0.856525 0.375334 0.323895 0.193107
H100  H     H_    0.960537 0.314514 0.433535 0.236379
H101  H     H_    0.866412 0.320629 0.438169 0.214963
H102  H     H_    0.861231 0.238900 0.329670 0.261761
H103  H     H_    0.911804 0.200028 0.398634 0.271387
H104  H     H_    0.638491 0.565126 0.973586 0.060832
H105  H     H_    0.956234 0.231291 0.326083 0.263850
H106  H     H_    0.824652 0.551299 0.341547 0.172661
H107  H     H_    0.741212 0.573465 0.385960 0.108665
H108  H     H_    0.761580 0.492573 0.240738 0.231223
H109  H     H_    0.679092 0.514952 0.284825 0.219380
H110  H     H_    0.697164 0.642926 0.283330 0.269909
H111  H     H_    0.700449 0.599139 0.196327 0.263592
H112  H     H_    0.780790 0.620970 0.240326 0.276723
H113  H     H_    0.270544 0.594546 0.626940 0.136320
H114  H     H_    0.179797 0.628868 0.639165 0.132777
N1    N     N_2   0.987531 0.465985 0.516046 -0.135235
N2    N     N_2   0.014215 0.504848 0.476323 -0.038753
N3    N     N_2   0.535668 0.493639 0.986299 -0.158170
N4    N     N_2   0.477308 0.497651 0.015394 -0.062491
N5    N     N_2   0.518604 0.010549 0.462876 -0.106109
N6    N     N_2   0.471872 0.986367 0.496390 -0.084834
O1    O     O_3   0.500000 0.500000 0.500000 -0.507796
O2    O     O_R   0.340900 0.545940 0.467290 -0.618483
O3    O     O_R   0.655960 0.450920 0.450930 -0.581416
O4    O     O_R   0.347180 0.467040 0.545670 -0.639186
O5    O     O_R   0.655970 0.536100 0.536110 -0.682336
O6    O     O_3   0.247834 0.384467 0.458303 -0.580097
O7    O     O_2   0.507698 0.637199 0.044386 -0.572818
O8    O     O_2   0.685110 0.586637 0.887198 -0.522642
O9    O     O_3   0.612982 0.578667 0.769796 -0.554819
O10   O     O_3   0.439515 0.383617 0.225376 -0.657594
O11   O     O_3   0.437008 0.414816 0.905486 -0.631730
O12   O     O_R   0.536480 0.656330 0.545680 -0.645964
O13   O     O_3   0.424840 0.389626 0.082428 -0.645617
O14   O     O_3   0.409092 0.441361 0.770717 -0.595568
O15   O     O_3   0.554825 0.750215 0.399648 -0.619405
O16   O     O_3   0.535050 0.891119 0.383368 -0.610232
O17   O     O_3   0.639413 0.077789 0.479294 -0.638216
O18   O     O_2   0.125236 0.319370 0.466970 -0.519958
O19   O     O_2   0.646419 0.279862 0.535532 -0.599782
O20   O     O_2   0.437336 0.723543 0.640318 -0.620551
O21   O     O_3   0.387695 0.092915 0.447848 -0.564884
O22   O     O_3   0.424813 0.929995 0.611730 -0.617962
O23   O     O_R   0.545300 0.340270 0.450920 -0.619016
O24   O     O_2   0.323506 0.215593 0.494333 -0.473297
O25   O     O_3   0.921962 0.439852 0.384395 -0.631304
O26   O     O_3   0.774300 0.466809 0.373566 -0.627383
O27   O     O_3   0.220563 0.630824 0.538365 -0.632685
O28   O     O_3   0.906556 0.473393 0.635415 -0.565692
O29   O     O_2   0.010712 0.641204 0.509254 -0.548082
O30   O     O_2   0.780134 0.517862 0.686317 -0.492490
O31   O     O_2   0.534348 0.672926 0.233755 -0.588308
O32   O     O_R   0.451550 0.536740 0.347440 -0.637383
O33   O     O_R   0.466670 0.466660 0.655960 -0.606597
O34   O     O_R   0.536460 0.451300 0.340640 -0.660998
O35   O     O_R   0.545320 0.545300 0.655970 -0.613735
O36   O     O_R   0.451560 0.656600 0.467300 -0.627204
O37   O     O_R   0.466660 0.346810 0.536100 -0.640748
Zn1   Zn    Zn3+2 0.558430 0.558420 0.558430 0.978417
Zn2   Zn    Zn3+2 0.437090 0.558800 0.446440 1.001076
Zn3   Zn    Zn3+2 0.446060 0.446060 0.558420 1.005610
Zn4   Zn    Zn3+2 0.558420 0.436720 0.436720 0.984730

loop_
_geom_bond_atom_site_label_1
_geom_bond_atom_site_label_2
_ccdc_geom_bond_type
C11   C96   S    
C66   C68   S    
C87   C88   S    
C25   O16   S    
C55   H45   S    
C34   O26   S    
C60   O15   S    
C73   C74   S    
C91   H9    S    
C35   C36   A    
C43   H2    S    
C63   H63   S    
C91   H8    S    
C83   H105  S    
C93   H12   S    
C75   H87   S    
C61   H58   S    
C86   H110  S    
C81   C82   S    
C16   O36   A    
O32   Zn2   S    
C85   H109  S    
C7    C8    A    
C74   H85   S    
C54   H42   S    
C53   C54   S    
C49   H30   S    
C12   C23   A    
C18   C24   A    
C36   C37   A    
C8    C42   S    
C4    O33   A    
C18   C19   A    
C95   O30   D    
C48   H26   S    
C5    C6    A    
C11   C14   A    
C47   H25   S    
C20   O21   S    
C46   H23   S    
C65   H69   S    
C77   H92   S    
C56   C78   A    
C62   H59   S    
C46   H22   S    
C76   O22   S    
C34   C35   A    
O1    Zn2   S    
C81   O25   S    
C12   C37   A    
C90   H6    S    
C40   H71   S    
C4    O35   A    
C85   H108  S    
C81   H98   S    
O5    Zn1   S    
C68   H74   S    
C47   C48   S    
C44   H19   S    
C68   C69   S    
C79   H94   S    
C40   H82   S    
C45   C67   A    
O2    Zn2   S    
C21   N5    S    
C33   O5    A    
C26   C29   A    
O3    Zn4   S    
C71   O19   D    
C23   O25   S    
C96   O31   D    
C82   H100  S    
C38   H27   S    
C93   H14   S    
C73   H81   S    
C59   H52   S    
C77   C79   S    
C63   C64   S    
C37   O28   S    
C79   H95   S    
C21   C22   A    
C10   C41   S    
C52   H37   S    
C87   H113  S    
C96   H18   S    
C50   O11   S    
C61   C62   S    
C53   H40   S    
C69   H77   S    
C63   H64   S    
C38   H1    S    
C42   O8    D    
C75   H88   S    
C25   C26   A    
C51   H34   S    
C44   C46   S    
C76   C77   S    
C59   H53   S    
C78   C89   A    
C49   H31   S    
C74   C75   S    
C57   H47   S    
C15   O10   S    
C27   C31   A    
C51   C52   S    
C52   H36   S    
C2    C94   S    
C18   C28   S    
C28   O37   A    
C45   C56   A    
C82   H101  S    
C64   H66   S    
C2    C67   A    
C86   H112  S    
C91   C92   S    
C51   H35   S    
C58   H51   S    
C8    C9    A    
O35   Zn1   S    
C60   H56   S    
C66   O17   S    
C3    C5    A    
C16   C29   S    
C85   C86   S    
O1    Zn4   S    
C10   C13   A    
C55   H44   S    
C72   O20   D    
C46   H21   S    
C60   C61   S    
C69   H76   S    
C13   N4    S    
C2    C89   A    
C43   C44   S    
C90   H5    S    
C73   O21   S    
C29   C30   A    
C3    C9    A    
C50   H33   S    
C81   H99   S    
C22   O17   S    
C80   H97   S    
C68   H73   S    
C92   H11   S    
C87   O27   S    
N1    N2    D    
C14   C15   A    
N3    N4    D    
C30   C31   A    
C23   C34   A    
C6    O11   S    
C65   H67   S    
C89   O27   S    
C50   C51   S    
C62   H61   S    
C67   N2    S    
C88   H4    S    
C84   C85   S    
C83   H102  S    
C70   H78   S    
C32   O4    A    
C93   H15   S    
O36   Zn2   S    
O12   Zn1   S    
C84   H107  S    
C92   H10   S    
C48   C49   S    
C41   O7    D    
C31   O22   S    
C88   C90   S    
C79   H96   S    
C12   N1    S    
C27   N6    S    
C77   H91   S    
C87   H114  S    
C53   H41   S    
C50   H32   S    
C83   H103  S    
C3    C4    S    
C39   C40   S    
C76   H90   S    
C59   H54   S    
C84   H106  S    
C15   C17   A    
C54   C55   S    
C16   O12   A    
C17   O13   S    
O34   Zn4   S    
C57   H48   S    
C45   C70   S    
C1    O34   A    
C33   O3    A    
O23   Zn4   S    
C66   H70   S    
C64   H65   S    
C7    N3    S    
C1    O32   A    
C61   H57   S    
C86   H111  S    
C48   H28   S    
O37   Zn3   S    
C30   C72   S    
C58   H50   S    
C6    C7    A    
C66   H72   S    
C26   O15   S    
C25   C27   A    
C49   H29   S    
C41   H93   S    
C70   O18   D    
C64   C65   S    
C80   O24   D    
C19   C20   A    
C42   H104  S    
C58   C59   S    
C28   O23   A    
C56   O6    S    
C57   O14   S    
C36   C95   S    
C38   O6    S    
C57   C58   S    
C38   C39   S    
C47   O10   S    
C95   H17   S    
O4    Zn3   S    
C65   H68   S    
C94   H16   S    
C92   C93   S    
C33   C35   S    
C60   H55   S    
C71   H79   S    
C62   H62   S    
C54   H43   S    
C22   C24   A    
O1    Zn1   S    
C72   H80   S    
N5    N6    D    
C69   H75   S    
C19   C80   S    
C94   O29   D    
C90   H7    S    
C88   H3    S    
C10   C11   A    
C32   C78   S    
C13   C17   A    
C73   H83   S    
C74   H84   S    
C91   O28   S    
C44   H20   S    
O33   Zn3   S    
C20   C21   A    
C82   C83   S    
C55   H46   S    
C52   H39   S    
C47   H24   S    
C5    O14   S    
C40   H60   S    
C84   O26   S    
C1    C14   S    
C43   H13   S    
C9    O9    S    
C75   H86   S    
O1    Zn3   S    
C32   O2    A    
C76   H89   S    
C43   O9    S    
C24   C71   S    
C53   O13   S    
C63   O16   S    
C39   H38   S    
C39   H49   S    
