data_mof_unit_43548.cif
_audit_creation_date              2012-12-11T17:07:25-0500
_audit_creation_method            fapswitch 2.2
_symmetry_space_group_name_H-M    P1
_symmetry_Int_Tables_number       1
_space_group_crystal_system       triclinic
_cell_length_a                    6.99036
_cell_length_b                    14.743824
_cell_length_c                    15.98186
_cell_angle_alpha                 90.149098
_cell_angle_beta                  89.959008
_cell_angle_gamma                 89.923216
_cell_volume                      1647.15712621

loop_
_atom_site_label
_atom_site_type_symbol
_atom_type_description
_atom_site_fract_x
_atom_site_fract_y
_atom_site_fract_z
_atom_type_partial_charge
O1    O     O_R   0.505720 0.583900 0.413310 -0.519372
O2    O     O_R   0.175940 0.594920 0.586080 -0.521408
O3    O     O_R   0.005640 0.416100 0.586690 -0.555312
C1    C     C_R   0.344611 0.615158 0.616169 0.690040
O4    O     O_R   0.176000 0.594930 0.413930 -0.501881
O5    O     O_R   0.005700 0.416110 0.413310 -0.524836
C2    C     C_R   0.345051 0.616402 0.384548 0.741471
O6    O     O_R   0.505660 0.583890 0.586690 -0.561732
O7    O     O_3   0.339200 0.441330 0.500000 -0.360647
V1    V     V_3+5 0.064350 0.510880 0.500000 1.602343
O8    O     O_R   0.675980 0.405080 0.413920 -0.532922
C3    C     C_R   0.844550 0.383593 0.385409 0.818792
O9    O     O_R   0.675920 0.405070 0.586070 -0.522858
C4    C     C_R   0.846532 0.384526 0.615217 0.676953
V2    V     V_3+5 0.564340 0.489120 0.500000 1.576820
O10   O     O_3   0.839360 0.558670 0.500000 -0.337890
C5    C     C_R   0.900772 0.442125 0.787287 -0.163247
C6    C     C_R   0.908256 0.473160 0.869157 -0.214251
C7    C     C_R   0.856119 0.417063 0.935534 0.032278
C8    C     C_R   0.817160 0.323937 0.919014 -0.044047
C9    C     C_R   0.853410 0.287386 0.837505 0.044406
C10   C     C_R   0.870725 0.349817 0.769639 0.069287
C11   C     C_R   0.865576 0.191960 0.820559 -0.144159
C12   C     C_R   0.864827 0.163251 0.735660 0.046222
C13   C     C_R   0.885640 0.225843 0.669346 0.038407
C14   C     C_R   0.866079 0.319122 0.685592 -0.145312
C15   C     C_R   0.834001 0.072476 0.714659 -0.095009
C16   C     C_R   0.869614 0.039973 0.634127 -0.170696
C17   C     C_R   0.930399 0.099177 0.571667 0.006344
C18   C     C_R   0.929848 0.192771 0.588336 -0.041954
H1    H     H_    0.926791 0.490674 0.737963 0.090406
H2    H     H_    0.944084 0.543524 0.880278 0.116847
H3    H     H_    0.772758 0.028419 0.760514 0.161828
H4    H     H_    0.850881 0.968560 0.620682 0.149240
H5    H     H_    0.964595 0.239216 0.538205 0.157401
C19   C     C_R   0.749598 0.179135 0.248843 0.084425
C20   C     C_R   0.881928 0.185000 0.183232 -0.120666
C21   C     C_R   0.002593 0.263123 0.184621 0.253169
C22   C     C_R   0.988364 0.327887 0.250394 -0.093676
H6    H     H_    0.080982 0.386731 0.249551 0.139317
C23   C     C_R   0.854132 0.318139 0.315820 -0.092802
C24   C     C_R   0.734464 0.243123 0.310700 -0.073002
C25   C     C_3   0.563361 0.200668 0.350468 -0.144408
C26   C     C_3   0.593156 0.122756 0.286127 0.016581
H7    H     H_    0.651797 0.059640 0.314047 0.148157
C27   C     C_R   0.507534 0.742459 0.693132 -0.063907
C28   C     C_R   0.354718 0.681417 0.686347 -0.027700
C29   C     C_R   0.219765 0.680685 0.752040 -0.088955
H8    H     H_    0.103520 0.632403 0.751250 0.101208
C30   C     C_R   0.237393 0.740405 0.820980 -0.134773
H9    H     H_    0.136066 0.736374 0.871708 0.178907
C31   C     C_R   0.382944 0.806006 0.823972 -0.070832
C32   C     C_R   0.525416 0.800043 0.762932 0.039001
C33   C     C_3   0.727453 0.768929 0.776120 0.199746
C34   C     C_3   0.714877 0.718710 0.692515 -0.312494
H10   H     H_    0.744592 0.644641 0.695712 0.108156
C35   C     C_R   0.512266 0.744245 0.307922 0.039227
C36   C     C_R   0.355251 0.685771 0.316537 -0.107231
C37   C     C_R   0.211769 0.692582 0.255456 -0.151434
H11   H     H_    0.098619 0.644011 0.254731 0.177571
C38   C     C_R   0.221699 0.756766 0.190422 -0.229107
H12   H     H_    0.109972 0.757629 0.143583 0.135677
C39   C     C_R   0.379109 0.815598 0.183122 -0.096903
C40   C     C_R   0.522869 0.809114 0.243975 0.099134
C41   C     C_3   0.731667 0.792343 0.230018 -0.306439
C42   C     C_3   0.718233 0.719613 0.298349 0.128609
H13   H     H_    0.761183 0.765505 0.166127 0.110744
O11   O     O_R   0.229140 0.916090 0.913340 -0.525291
O12   O     O_R   0.558860 0.905090 0.086080 -0.521068
O13   O     O_R   0.729100 0.083920 0.086690 -0.515764
C43   C     C_R   0.390023 0.882473 0.114050 0.744260
O14   O     O_R   0.558860 0.905090 0.913930 -0.523798
O15   O     O_R   0.729100 0.083920 0.913310 -0.531378
C44   C     C_R   0.390015 0.878784 0.888994 0.704982
O16   O     O_R   0.229140 0.916080 0.086720 -0.541184
O17   O     O_3   0.395570 0.058660 0.000020 -0.328737
V3    V     V_3+5 0.670450 0.989140 0.000000 1.653966
O18   O     O_R   0.058810 0.094980 0.913910 -0.524530
C45   C     C_R   0.887153 0.121483 0.888865 0.681328
O19   O     O_R   0.058810 0.094980 0.086060 -0.503072
C46   C     C_R   0.890309 0.116137 0.115345 0.793519
V4    V     V_3+5 0.170450 0.010950 0.999970 1.667286
O20   O     O_3   0.895460 0.941370 0.999990 -0.354114
C47   C     C_2   0.985862 0.062199 0.488953 0.348619
H14   H     H_    0.980889 0.989563 0.477782 0.077147
O21   O     O_2   0.037411 0.111937 0.432368 -0.503539
C48   C     C_2   0.388894 0.259111 0.336603 0.550870
H15   H     H_    0.374372 0.296491 0.278591 0.054336
O22   O     O_2   0.264366 0.265622 0.389833 -0.497916
C49   C     C_2   0.589341 0.172091 0.440036 0.485296
H16   H     H_    0.606589 0.101072 0.455784 0.024400
O23   O     O_2   0.582447 0.228276 0.496148 -0.523564
Br1   Br    Br    0.382075 0.097923 0.211744 -0.475153
C50   C     C_2   0.739652 0.705431 0.850273 0.316558
H17   H     H_    0.686160 0.636661 0.844666 0.030705
O24   O     O_2   0.795181 0.732230 0.918379 -0.533108
Br2   Br    Br    0.904994 0.868503 0.782808 -0.566360
C51   C     C_2   0.810024 0.764745 0.619438 0.563293
H18   H     H_    0.726433 0.804902 0.575809 0.056306
O25   O     O_2   0.982322 0.759066 0.609227 -0.504504
C52   C     C_2   0.851746 0.874443 0.249903 0.437324
H19   H     H_    0.976797 0.869445 0.289615 0.117369
O26   O     O_2   0.817637 0.946799 0.216512 -0.534776
Br3   Br    Br    0.851822 0.743394 0.403247 -0.539776
C53   C     C_2   0.740283 0.624456 0.263753 0.337678
H20   H     H_    0.683867 0.607816 0.202305 0.053660
O27   O     O_2   0.817084 0.564974 0.304586 -0.520459
C54   C     C_2   0.834400 0.462132 0.018727 0.393969
H21   H     H_    0.871156 0.533355 0.025286 0.057898
O28   O     O_2   0.775260 0.422527 0.080395 -0.533990
C55   C     C_2   0.699639 0.272552 0.979138 0.456163
H22   H     H_    0.742399 0.266298 0.043556 0.083232
O29   O     O_2   0.546779 0.240489 0.957169 -0.490225
Br4   Br    Br    0.180885 0.289645 0.096427 -0.504712

loop_
_geom_bond_atom_site_label_1
_geom_bond_atom_site_label_2
_ccdc_geom_bond_type
C48   H15   S    
C52   H19   S    
C23   C24   A    
C19   C24   A    
C7    C8    A    
C12   C15   A    
C41   C52   S    
C35   C42   S    
C34   H10   S    
C35   C36   A    
C22   C23   A    
C32   C33   S    
C15   H3    S    
C53   O27   D    
C20   C21   A    
C18   H5    S    
C19   C20   A    
C47   O21   D    
C31   C44   S    
O5    C3    A    
C21   C22   A    
C21   Br4   S    
V3    O20   S    
O11   C44   A    
V2    O10   S    
C54   H21   S    
C27   C32   A    
O12   C43   A    
C6    C7    A    
C38   C39   A    
O13   C46   A    
C26   Br1   S    
O14   V3    S    
C33   C34   S    
O8    V2    S    
C47   H14   S    
C55   H22   S    
C41   H13   S    
C27   C34   S    
C30   C31   A    
C11   C12   A    
C33   Br2   S    
O1    V2    S    
O7    V1    S    
C2    C36   S    
C1    O6    A    
C7    C54   S    
C29   C30   A    
C16   H4    S    
C37   H11   S    
C52   O26   D    
O9    C4    A    
O13   V3    S    
C20   C46   S    
C38   H12   S    
C5    C6    A    
C37   C38   A    
C25   C49   S    
C42   Br3   S    
C12   C13   A    
C17   C47   S    
O19   V4    S    
O17   V4    S    
C22   H6    S    
O4    C2    A    
O18   C45   A    
C36   C37   A    
C4    C14   S    
O2    C1    A    
C25   C26   S    
C17   C18   A    
C8    C55   S    
O18   V4    S    
C49   O23   D    
C28   C29   A    
C30   H9    S    
O15   C45   A    
C55   O29   D    
O17   V3    S    
C50   O24   D    
O3    C4    A    
O14   C44   A    
C29   H8    S    
C39   C43   S    
C51   H18   S    
O6    V2    S    
C51   O25   D    
O9    V2    S    
C5    H1    S    
C19   C26   S    
C6    H2    S    
C24   C25   S    
C42   C53   S    
O2    V1    S    
C31   C32   A    
C35   C40   A    
C13   C18   A    
C27   C28   A    
C16   C17   A    
O1    C2    A    
C26   H7    S    
O19   C46   A    
O5    V1    S    
O8    C3    A    
O16   V4    S    
C3    C23   S    
C53   H20   S    
C5    C10   A    
C25   C48   S    
C40   C41   S    
C9    C11   A    
C13   C14   A    
O11   V4    S    
O4    V1    S    
O3    V1    S    
V1    O10   S    
C43   O16   A    
O12   V3    S    
C49   H16   S    
C34   C51   S    
C54   O28   D    
C41   C42   S    
O7    V2    S    
C50   H17   S    
C33   C50   S    
C39   C40   A    
C8    C9    A    
V4    O20   S    
C10   C14   A    
C15   C16   A    
C48   O22   D    
O15   V3    S    
C11   C45   S    
C9    C10   A    
C1    C28   S    
