data_mof_unit_39858.cif
_audit_creation_date              2012-12-10T20:21:36-0500
_audit_creation_method            fapswitch 2.2
_symmetry_space_group_name_H-M    P1
_symmetry_Int_Tables_number       1
_space_group_crystal_system       triclinic
_cell_length_a                    19.045968
_cell_length_b                    18.473139
_cell_length_c                    8.895554
_cell_angle_alpha                 89.90636
_cell_angle_beta                  90.560973
_cell_angle_gamma                 89.638953
_cell_volume                      3129.58452268

loop_
_atom_site_label
_atom_site_type_symbol
_atom_type_description
_atom_site_fract_x
_atom_site_fract_y
_atom_site_fract_z
_atom_type_partial_charge
C1    C     C_R   0.365128 0.500109 0.499254 1.093822
C2    C     C_R   0.635094 0.499904 0.499666 1.034233
C3    C     C_R   0.522586 0.725646 0.624418 0.030673
C4    C     C_R   0.477004 0.274247 0.376078 -0.013979
C5    C     C_R   0.478770 0.726368 0.374904 0.022476
C6    C     C_R   0.522245 0.273762 0.624499 0.062306
C7    C     C_R   0.523524 0.801761 0.627542 -0.084383
C8    C     C_R   0.476468 0.198127 0.372956 -0.084782
C9    C     C_R   0.478201 0.802465 0.372006 -0.086239
C10   C     C_R   0.522991 0.197657 0.627562 -0.099486
C11   C     C_R   0.500735 0.841665 0.499992 0.006052
C12   C     C_R   0.499917 0.158330 0.500147 -0.000446
C13   C     C_R   0.437529 0.962207 0.481189 -0.139076
C14   C     C_R   0.563179 0.037763 0.519158 -0.136996
C15   C     C_R   0.563385 0.961714 0.519240 -0.135001
C16   C     C_R   0.437317 0.038247 0.481177 -0.141407
C17   C     C_R   0.500141 0.076963 0.500109 0.101675
C18   C     C_R   0.500560 0.923015 0.500243 0.102410
C19   C     C_R   0.502594 0.500025 0.218644 1.002447
C20   C     C_R   0.500682 0.499964 0.781552 1.042528
C21   C     C_1   0.502922 0.500055 0.065470 -0.078170
C22   C     C_1   0.502112 0.499953 0.934738 -0.049411
C23   C     C_R   0.747387 0.443510 0.577593 0.215378
C24   C     C_R   0.251146 0.531087 0.374260 0.316030
C25   C     C_R   0.252435 0.462636 0.612146 0.179894
C26   C     C_R   0.747240 0.536137 0.378548 0.298182
C27   C     C_R   0.813874 0.419154 0.531149 0.334143
C28   C     C_R   0.177439 0.533074 0.378847 0.314800
C29   C     C_R   0.180637 0.446993 0.590856 0.339352
C30   C     C_R   0.812104 0.509088 0.327346 0.314458
C31   C     C_R   0.847550 0.455820 0.413293 -0.269952
C32   C     C_R   0.143228 0.485286 0.477654 -0.306212
C33   C     C_R   0.712043 0.497406 0.492483 -0.426723
C34   C     C_R   0.288322 0.499426 0.496542 -0.402415
C35   C     C_R   0.968952 0.424361 0.328328 0.025916
C36   C     C_R   0.022926 0.509931 0.562062 0.000334
C37   C     C_R   0.041106 0.433013 0.344008 -0.045236
C38   C     C_R   0.951077 0.504062 0.542053 -0.101073
C39   C     C_R   0.067834 0.475566 0.461383 0.217609
C40   C     C_R   0.923867 0.461488 0.425098 0.173791
H1    H     H_    0.948525 0.388546 0.242555 0.195703
H2    H     H_    0.043654 0.542682 0.652953 0.179316
H3    H     H_    0.076202 0.405592 0.267404 0.179462
H4    H     H_    0.916346 0.532072 0.618630 0.161447
H5    H     H_    0.540058 0.695137 0.721937 0.142417
H6    H     H_    0.459033 0.304684 0.278856 0.162661
H7    H     H_    0.462714 0.696472 0.276231 0.147994
H8    H     H_    0.539129 0.303792 0.722511 0.179567
H9    H     H_    0.388332 0.933813 0.467162 0.160032
H10   H     H_    0.612386 0.066149 0.533089 0.165798
H11   H     H_    0.612742 0.932942 0.533194 0.165214
H12   H     H_    0.387950 0.067003 0.467249 0.158078
N1    N     N_R   0.500000 0.689440 0.500000 -0.102183
N2    N     N_R   0.500000 0.310560 0.500000 -0.116057
O1    O     O_R   0.398180 0.560840 0.499960 -0.568791
O2    O     O_R   0.601820 0.439160 0.500040 -0.590657
O3    O     O_R   0.601820 0.560840 0.500040 -0.562518
O4    O     O_R   0.398180 0.439160 0.499960 -0.610184
O5    O     O_R   0.500000 0.560800 0.285330 -0.622637
O6    O     O_R   0.500000 0.439200 0.714670 -0.589710
O7    O     O_R   0.500000 0.560800 0.714670 -0.654310
O8    O     O_R   0.500000 0.439200 0.285330 -0.633960
Zn1   Zn    Zn3+2 0.500000 0.581210 0.500000 1.039046
Zn2   Zn    Zn3+2 0.500000 0.418790 0.500000 1.040833
S1    S     S_3+6 0.712012 0.416912 0.754511 0.109762
O9    O     O_2   0.671380 0.348129 0.734761 -0.245159
O10   O     O_2   0.769102 0.404711 0.869660 -0.158312
O11   O     O_3   0.657861 0.481337 0.820512 -0.577310
H13   H     H_    0.686166 0.526099 0.822224 0.366942
S2    S     S_3+6 0.296933 0.558217 0.209583 0.112784
O12   O     O_2   0.351449 0.501977 0.174402 -0.320166
O13   O     O_2   0.249155 0.565340 0.075035 -0.156504
O14   O     O_3   0.336184 0.637949 0.241672 -0.532315
H14   H     H_    0.356521 0.651786 0.143755 0.368860
S3    S     S_3+6 0.297658 0.442088 0.784500 0.133276
O15   O     O_2   0.344481 0.504526 0.823462 -0.289240
O16   O     O_2   0.248149 0.431157 0.912762 -0.124048
O17   O     O_3   0.347665 0.367326 0.764834 -0.507304
H15   H     H_    0.324818 0.338859 0.684056 0.359848
S4    S     S_3+6 0.715342 0.623247 0.320161 0.102485
O18   O     O_2   0.689102 0.664263 0.454482 -0.297363
O19   O     O_2   0.771647 0.668171 0.249558 -0.179920
O20   O     O_3   0.649131 0.612066 0.196043 -0.534108
H16   H     H_    0.624838 0.659592 0.191350 0.370690
S5    S     S_3+6 0.857034 0.343246 0.617113 0.105232
O21   O     O_2   0.804727 0.288738 0.671121 -0.197390
O22   O     O_2   0.904421 0.306676 0.506086 -0.287351
O23   O     O_3   0.905748 0.372441 0.763343 -0.484450
H17   H     H_    0.926976 0.328111 0.807612 0.392369
S6    S     S_3+6 0.127770 0.596357 0.267558 0.112904
O24   O     O_2   0.104414 0.560106 0.124536 -0.217475
O25   O     O_2   0.064053 0.622081 0.350719 -0.270260
O26   O     O_3   0.176350 0.669424 0.226698 -0.466097
H18   H     H_    0.147961 0.697139 0.152285 0.395719
S7    S     S_3+6 0.137647 0.379121 0.700109 0.082805
O27   O     O_2   0.189010 0.322016 0.751855 -0.245103
O28   O     O_2   0.104833 0.414528 0.834527 -0.230547
O29   O     O_3   0.074433 0.337558 0.599820 -0.537341
H19   H     H_    0.049770 0.306596 0.673092 0.403576
S8    S     S_3+6 0.848017 0.536979 0.151961 0.127039
O30   O     O_2   0.900519 0.596026 0.179453 -0.208309
O31   O     O_2   0.884110 0.474436 0.076948 -0.262511
O32   O     O_3   0.784639 0.566936 0.033996 -0.462784
H20   H     H_    0.809386 0.580067 0.940396 0.379433
C41   C     C_1   0.546540 0.837386 0.763520 0.189900
N3    N     N_1   0.565060 0.865952 0.872455 -0.148951
C42   C     C_1   0.453322 0.162400 0.237184 0.203548
N4    N     N_1   0.434731 0.133755 0.128391 -0.147575
C43   C     C_1   0.455995 0.838783 0.235635 0.189215
N5    N     N_1   0.438120 0.867903 0.126387 -0.154278
C44   C     C_1   0.545885 0.161475 0.763588 0.222533
N6    N     N_1   0.564284 0.132469 0.872584 -0.140829

loop_
_geom_bond_atom_site_label_1
_geom_bond_atom_site_label_2
_ccdc_geom_bond_type
C15   C18   A    
C11   C18   S    
O26   H18   S    
N1    Zn1   S    
O14   H14   S    
C36   H2    S    
C44   N6    T    
C4    C8    A    
S7    O29   S    
C24   S2    S    
C4    H6    S    
S5    O21   D    
C38   H4    S    
C5    H7    S    
C6    H8    S    
C13   C18   A    
C5    N1    A    
C35   C37   A    
C29   C32   A    
C3    C7    A    
C30   C31   A    
S1    O10   D    
C19   O8    A    
O29   H19   S    
C30   S8    S    
C31   C40   S    
C27   S5    S    
C32   C39   S    
C20   O7    A    
O7    Zn1   S    
O8    Zn2   S    
S7    O27   D    
C16   C17   A    
C23   C33   A    
O1    Zn1   S    
C12   C17   S    
C42   N4    T    
O2    Zn2   S    
S2    O12   D    
C23   C27   A    
C20   O6    A    
C25   C34   A    
C21   C22   T    
O4    Zn2   S    
C14   C17   A    
C6    N2    A    
S4    O20   S    
C1    C34   S    
O3    Zn1   S    
S5    O22   D    
C25   C29   A    
C2    O3    A    
C27   C31   A    
C24   C28   A    
C28   C32   A    
S4    O19   D    
C29   S7    S    
O17   H15   S    
O11   H13   S    
C19   O5    A    
C3    H5    S    
S8    O32   S    
C24   C34   A    
C25   S3    S    
C9    C43   S    
C37   H3    S    
C7    C11   A    
S3    O15   D    
C5    C9    A    
S3    O16   D    
C26   C33   A    
S6    O25   D    
O20   H16   S    
C8    C12   A    
S1    O11   S    
S2    O14   S    
S8    O31   D    
C10   C44   S    
C9    C11   A    
C10   C12   A    
C13   H9    S    
C2    C33   S    
C20   C22   S    
C26   C30   A    
C15   H11   S    
C8    C42   S    
S6    O26   S    
S5    O23   S    
C4    N2    A    
C36   C39   A    
C16   H12   S    
S4    O18   D    
C6    C10   A    
S2    O13   D    
S7    O28   D    
C41   N3    T    
O5    Zn1   S    
O6    Zn2   S    
C23   S1    S    
C36   C38   A    
C35   C40   A    
C1    O1    A    
C37   C39   A    
C2    O2    A    
C1    O4    A    
C38   C40   A    
C3    N1    A    
S6    O24   D    
C14   H10   S    
N2    Zn2   S    
S8    O30   D    
C7    C41   S    
C35   H1    S    
S3    O17   S    
C26   S4    S    
O23   H17   S    
S1    O9    D    
C13   C16   A    
O32   H20   S    
C14   C15   A    
C28   S6    S    
C43   N5    T    
C19   C21   S    
