data_mof_unit_34610.cif
_audit_creation_date              2012-12-11T16:37:27-0500
_audit_creation_method            fapswitch 2.2
_symmetry_space_group_name_H-M    P1
_symmetry_Int_Tables_number       1
_space_group_crystal_system       triclinic
_cell_length_a                    19.560825
_cell_length_b                    6.99653
_cell_length_c                    17.703923
_cell_angle_alpha                 89.73004
_cell_angle_beta                  108.744515
_cell_angle_gamma                 89.362138
_cell_volume                      2294.18202067

loop_
_atom_site_label
_atom_site_type_symbol
_atom_type_description
_atom_site_fract_x
_atom_site_fract_y
_atom_site_fract_z
_atom_type_partial_charge
O1    O     O_R   0.561710 0.369960 0.440200 -0.528917
O2    O     O_R   0.061710 0.630040 0.940200 -0.529996
O3    O     O_R   0.412630 0.033330 0.406330 -0.515870
O4    O     O_R   0.912630 0.966670 0.906330 -0.501073
O5    O     O_R   0.438290 0.869790 0.559800 -0.516424
O6    O     O_R   0.938290 0.130210 0.059800 -0.531349
C1    C     C_R   0.386070 0.205974 0.381164 0.765014
C2    C     C_R   0.883063 0.798008 0.885625 0.772292
O7    O     O_R   0.559570 0.039810 0.430640 -0.559234
O8    O     O_R   0.059570 0.960190 0.930640 -0.549868
O9    O     O_R   0.586280 0.876320 0.584290 -0.529520
O10   O     O_R   0.086280 0.123680 0.084290 -0.507375
C3    C     C_R   0.581779 0.208753 0.416025 0.737168
C4    C     C_R   0.081057 0.790906 0.915105 0.780055
O11   O     O_R   0.413720 0.363440 0.415710 -0.559563
O12   O     O_R   0.913720 0.636560 0.915710 -0.544963
O13   O     O_3   0.508590 0.205630 0.550380 -0.321466
O14   O     O_3   0.008590 0.794370 0.050380 -0.359759
V1    V     V_3+5 0.498410 0.928130 0.490650 1.576500
V2    V     V_3+5 0.998410 0.071870 0.990650 1.654864
O15   O     O_R   0.587370 0.546990 0.593670 -0.525651
O16   O     O_R   0.087370 0.453010 0.093670 -0.534859
C5    C     C_R   0.612424 0.716631 0.619924 0.808766
C6    C     C_R   0.115839 0.281637 0.114912 0.812870
O17   O     O_R   0.440430 0.540520 0.569360 -0.495775
O18   O     O_R   0.940430 0.459480 0.069360 -0.536039
C7    C     C_R   0.424452 0.709884 0.590065 0.887905
C8    C     C_R   0.918966 0.290608 0.083787 0.955619
V3    V     V_3+5 0.501590 0.428960 0.509350 1.651110
V4    V     V_3+5 0.001590 0.571040 0.009350 1.632186
O19   O     O_3   0.491410 0.701330 0.449620 -0.413431
O20   O     O_3   0.991410 0.298670 0.949620 -0.377606
C9    C     C_R   0.345539 0.884822 0.749348 0.608396
C10   C     C_R   0.751981 0.189214 0.140868 0.516449
C11   C     C_R   0.386497 0.877132 0.697022 0.500666
C12   C     C_R   0.799791 0.202255 0.096747 0.448079
C13   C     C_R   0.381691 0.719437 0.646305 -0.514718
C14   C     C_R   0.869330 0.276376 0.131284 -0.502193
C15   C     C_R   0.335572 0.569391 0.650038 0.501636
C16   C     C_R   0.892125 0.324900 0.212223 0.470104
C17   C     C_R   0.293311 0.580058 0.700279 0.576284
C18   C     C_R   0.845978 0.300268 0.257869 0.609189
C19   C     C_R   0.297379 0.737368 0.750970 -0.289953
C20   C     C_R   0.774684 0.235465 0.222431 -0.241398
C21   C     C_R   0.229143 0.600041 0.838751 0.580830
C22   C     C_R   0.715261 0.387596 0.312952 0.481153
C23   C     C_R   0.163808 0.603500 0.857045 0.307638
C24   C     C_R   0.671935 0.384283 0.363630 0.268596
C25   C     C_R   0.134831 0.780397 0.870415 -0.275140
C26   C     C_R   0.631266 0.218623 0.366116 -0.214388
C27   C     C_R   0.154710 0.942724 0.835352 -0.315314
C28   C     C_R   0.638791 0.058487 0.321247 -0.412734
H1    H     H_    0.127619 0.077795 0.835495 0.218584
H2    H     H_    0.609939 0.929920 0.325243 0.180659
C29   C     C_R   0.202827 0.924365 0.790745 0.509545
C30   C     C_R   0.683608 0.061336 0.272060 0.459913
C31   C     C_R   0.245921 0.757150 0.798223 -0.080699
C32   C     C_R   0.723623 0.226441 0.269938 0.018285
C33   C     C_R   0.795354 0.611363 0.776394 -0.290671
C34   C     C_R   0.274609 0.395710 0.297797 -0.183927
C35   C     C_R   0.812480 0.781857 0.819302 -0.256006
C36   C     C_R   0.319608 0.231119 0.308820 -0.292984
C37   C     C_R   0.756010 0.918288 0.804621 0.563294
C38   C     C_R   0.300924 0.097678 0.246880 0.571727
C39   C     C_R   0.690986 0.897834 0.739964 0.505012
C40   C     C_R   0.233774 0.107987 0.185350 0.585395
C41   C     C_R   0.678517 0.734239 0.691129 -0.198124
C42   C     C_R   0.184562 0.260022 0.181724 -0.308511
C43   C     C_R   0.729927 0.588159 0.713545 -0.314464
C44   C     C_R   0.206929 0.405131 0.236854 -0.142209
C45   C     C_3   0.716870 0.392049 0.738456 0.532661
C46   C     C_3   0.213192 0.603781 0.211838 0.487251
C47   C     C_3   0.786459 0.415805 0.808956 0.850324
C48   C     C_3   0.288855 0.596757 0.273096 0.698724
H3    H     H_    0.720046 0.284093 0.693852 0.040581
H4    H     H_    0.212893 0.613711 0.148890 0.131671
F1    F     F_    0.352567 0.037715 0.798089 -0.521020
F2    F     F_    0.682688 0.138861 0.102921 -0.631458
F3    F     F_    0.636220 0.024870 0.731272 -0.571281
F4    F     F_    0.220090 0.979755 0.125222 -0.646556
F5    F     F_    0.653236 0.380532 0.756521 -0.609913
F6    F     F_    0.160050 0.720803 0.223362 -0.680168
O21   O     O_3   0.839200 0.274885 0.807430 -0.530595
C49   C     C_3   0.869748 0.294622 0.745550 0.028161
H5    H     H_    0.921715 0.366635 0.772006 0.170568
H6    H     H_    0.836487 0.378031 0.692753 0.097975
C50   C     C_3   0.881610 0.098047 0.714907 -0.739371
H7    H     H_    0.902061 0.113232 0.663555 0.196923
H8    H     H_    0.921505 0.013552 0.762445 0.214552
H9    H     H_    0.829748 0.020789 0.693920 0.203133
O22   O     O_3   0.336315 0.601633 0.226282 -0.560012
C51   C     C_3   0.410245 0.594102 0.269760 0.265049
H10   H     H_    0.426958 0.448444 0.292377 0.072290
H11   H     H_    0.423818 0.701550 0.317183 0.207569
C52   C     C_3   0.453230 0.638839 0.214183 -0.664734
H12   H     H_    0.441792 0.786865 0.190272 0.268348
H13   H     H_    0.511481 0.624015 0.248012 0.133741
H14   H     H_    0.439634 0.536892 0.163760 0.233187
O23   O     O_3   0.781892 0.420904 0.888376 -0.504048
C53   C     C_3   0.722833 0.522942 0.899827 0.236400
H15   H     H_    0.682834 0.418617 0.906778 0.247733
H16   H     H_    0.694657 0.622106 0.850835 0.112785
C54   C     C_3   0.748544 0.641195 0.975558 -0.630455
H17   H     H_    0.792115 0.738798 0.973549 0.233595
H18   H     H_    0.702899 0.728624 0.981417 0.224092
H19   H     H_    0.769004 0.547740 0.028747 0.202393
O24   O     O_3   0.305634 0.731325 0.337330 -0.553189
C55   C     C_3   0.247321 0.772508 0.366750 0.128851
H20   H     H_    0.209681 0.651214 0.360766 0.184730
H21   H     H_    0.217681 0.901898 0.335884 0.185835
C56   C     C_3   0.274214 0.816657 0.454521 -0.731619
H22   H     H_    0.312669 0.936289 0.466465 0.239695
H23   H     H_    0.228117 0.858407 0.474955 0.186890
H24   H     H_    0.299047 0.684845 0.486619 0.229815
F7    F     F_    0.431692 0.022987 0.696972 -0.545472
F8    F     F_    0.777091 0.149901 0.019037 -0.580114
F9    F     F_    0.328204 0.415148 0.601874 -0.619081
F10   F     F_    0.959974 0.389962 0.247695 -0.609427
F11   F     F_    0.245180 0.440042 0.695223 -0.617908
F12   F     F_    0.871170 0.338923 0.337063 -0.599459
F13   F     F_    0.265476 0.431323 0.844281 -0.555232
F14   F     F_    0.748830 0.550591 0.303750 -0.659562
O25   O     O_3   0.115962 0.454580 0.831116 -0.541310
C57   C     C_3   0.099089 0.443051 0.746659 0.122752
H25   H     H_    0.141313 0.358418 0.733203 0.264139
H26   H     H_    0.095413 0.585835 0.716790 0.081356
C58   C     C_3   0.028026 0.346196 0.707916 -0.787520
H27   H     H_    0.025691 0.292857 0.648203 0.200557
H28   H     H_    0.983873 0.453300 0.698305 0.207271
H29   H     H_    0.022037 0.224020 0.745217 0.231583
O26   O     O_3   0.666049 0.542894 0.408604 -0.554787
C59   C     C_3   0.733955 0.626995 0.446917 0.188023
H30   H     H_    0.742582 0.747268 0.409957 0.210453
H31   H     H_    0.780001 0.522764 0.459721 0.155663
C60   C     C_3   0.734477 0.708613 0.525954 -0.797716
H32   H     H_    0.725236 0.590587 0.563189 0.221347
H33   H     H_    0.787596 0.773633 0.556882 0.192298
H34   H     H_    0.691562 0.819840 0.516210 0.224031
O27   O     O_3   0.201760 0.059988 0.733428 -0.475990
C61   C     C_3   0.153672 0.997295 0.659507 0.041173
H35   H     H_    0.097066 0.002058 0.660396 0.109562
H36   H     H_    0.166282 0.848556 0.645453 0.096103
C62   C     C_3   0.159227 0.124878 0.591958 -0.519599
H37   H     H_    0.216151 0.130090 0.592596 0.269057
H38   H     H_    0.125520 0.066555 0.533863 0.161522
H39   H     H_    0.139437 0.271448 0.597814 0.236202
O28   O     O_3   0.694144 0.901878 0.230128 -0.497873
C63   C     C_3   0.629246 0.803265 0.193956 0.222741
H40   H     H_    0.581882 0.902122 0.170479 0.116600
H41   H     H_    0.619702 0.702319 0.237770 0.119794
C64   C     C_3   0.636414 0.686937 0.124442 -0.556977
H42   H     H_    0.685282 0.593539 0.144220 0.231999
H43   H     H_    0.588172 0.596197 0.100238 0.177744
H44   H     H_    0.640485 0.784053 0.076457 0.255444
F15   F     F_    0.758533 0.051384 0.860379 -0.569851
F16   F     F_    0.351336 0.971818 0.240746 -0.664250

loop_
_geom_bond_atom_site_label_1
_geom_bond_atom_site_label_2
_ccdc_geom_bond_type
C62   H39   S    
C40   C42   A    
C50   H7    S    
C37   C39   A    
C39   F3    S    
C60   H34   S    
O13   V3    S    
C16   F10   S    
C52   H12   S    
C49   C50   S    
O4    C2    A    
V1    O19   S    
C52   H14   S    
O25   C57   S    
C23   C25   A    
C21   C31   A    
C11   C13   A    
C63   H41   S    
O3    C1    A    
C4    C25   S    
O12   V4    S    
C62   H37   S    
C47   O23   S    
C29   O27   S    
C55   H20   S    
C34   C36   A    
C64   H44   S    
C5    C41   S    
O9    C5    A    
C43   C45   S    
O7    C3    A    
C51   H10   S    
C36   C38   A    
O28   C63   S    
C9    C11   A    
C48   O24   S    
O5    C7    A    
O7    V1    S    
O6    C8    A    
C56   H22   S    
O8    V2    S    
C59   H30   S    
C39   C41   A    
C26   C28   A    
C64   H42   S    
C61   C62   S    
C24   O26   S    
O3    V1    S    
O14   V4    S    
C34   C44   A    
V4    O20   S    
C33   C47   S    
O14   V2    S    
C46   H4    S    
C2    C35   S    
C16   C18   A    
C2    O12   A    
C60   H33   S    
C22   C32   A    
C64   H43   S    
C17   C19   A    
C56   H24   S    
C18   C20   A    
O1    V3    S    
C28   H2    S    
O11   V3    S    
C21   C23   A    
O15   C5    A    
O17   V3    S    
C13   C15   A    
C22   C24   A    
C33   C35   A    
C9    C19   A    
C60   H32   S    
C63   C64   S    
C10   C20   A    
C49   H5    S    
C46   C48   S    
O8    C4    A    
C20   C32   S    
O22   C51   S    
C45   C47   S    
C19   C31   S    
C1    O11   A    
C25   C27   A    
C15   F9    S    
O15   V3    S    
C53   C54   S    
C17   F11   S    
C27   H1    S    
C38   C40   A    
C48   O22   S    
C58   H28   S    
C1    C36   S    
C23   O25   S    
O21   C49   S    
C8    C14   S    
O24   C55   S    
O9    V1    S    
O10   V2    S    
C51   H11   S    
C56   H23   S    
C63   H40   S    
C11   F7    S    
C24   C26   A    
C33   C43   A    
C57   C58   S    
C42   C44   A    
O18   V4    S    
C50   H8    S    
C54   H18   S    
O16   C6    A    
O1    C3    A    
O26   C59   S    
C12   F8    S    
C40   F4    S    
C57   H26   S    
C53   H16   S    
V2    O20   S    
C62   H38   S    
C38   F16   S    
O16   V4    S    
C35   C37   A    
C22   F14   S    
C45   H3    S    
C61   H36   S    
O27   C61   S    
C52   H13   S    
O5    V1    S    
O17   C7    A    
O6    V2    S    
O10   C6    A    
O18   C8    A    
C55   C56   S    
O2    V4    S    
C21   F13   S    
C30   O28   S    
C29   C31   A    
C58   H29   S    
C37   F15   S    
V3    O19   S    
O23   C53   S    
C10   F2    S    
C12   C14   A    
C14   C16   A    
C9    F1    S    
C55   H21   S    
C7    C13   S    
C59   C60   S    
C61   H35   S    
C34   C48   S    
C53   H15   S    
O13   V1    S    
C10   C12   A    
C30   C32   A    
C54   H19   S    
C27   C29   A    
C51   C52   S    
O2    C4    A    
C6    C42   S    
C3    C26   S    
O4    V2    S    
C28   C30   A    
C15   C17   A    
C59   H31   S    
C50   H9    S    
C54   H17   S    
C18   F12   S    
C49   H6    S    
C44   C46   S    
C41   C43   A    
C47   O21   S    
C46   F6    S    
C58   H27   S    
C57   H25   S    
C45   F5    S    
