data_mof_unit_65430.cif
_audit_creation_date              2012-12-10T19:57:52-0500
_audit_creation_method            fapswitch 2.2
_symmetry_space_group_name_H-M    P1
_symmetry_Int_Tables_number       1
_space_group_crystal_system       triclinic
_cell_length_a                    39.069286
_cell_length_b                    32.092849
_cell_length_c                    21.804137
_cell_angle_alpha                 88.587128
_cell_angle_beta                  124.823362
_cell_angle_gamma                 90.700572
_cell_volume                      22436.1552641

loop_
_atom_site_label
_atom_site_type_symbol
_atom_type_description
_atom_site_fract_x
_atom_site_fract_y
_atom_site_fract_z
_atom_type_partial_charge
C1    C     C_R   0.419305 0.500034 0.419331 0.903675
C2    C     C_R   0.706609 0.500119 0.704495 0.145198
C3    C     C_2   0.001643 0.983715 0.186200 0.436880
C4    C     C_2   0.528063 0.520982 0.743825 -0.236925
C5    C     C_2   0.469626 0.485292 0.253632 -0.208747
C6    C     C_2   0.028064 0.020983 0.743825 -0.237350
C7    C     C_2   0.969619 0.985332 0.253624 -0.208842
C8    C     C_2   0.501602 0.496174 0.687180 0.447949
C9    C     C_2   0.500653 0.503808 0.315498 0.459956
C10   C     C_2   0.001604 0.996173 0.687182 0.448180
C11   C     C_2   0.000671 0.003804 0.315520 0.460140
C12   C     C_R   0.227606 0.483484 0.181242 -0.225059
C13   C     C_R   0.793383 0.000338 0.295253 0.144810
C14   C     C_R   0.772424 0.478278 0.815469 -0.225899
C15   C     C_R   0.727613 0.982754 0.181838 -0.225259
C16   C     C_R   0.272481 0.987321 0.822350 -0.225561
C17   C     C_R   0.206652 0.500684 0.209460 0.146663
C18   C     C_R   0.793341 0.500628 0.790424 0.146875
C19   C     C_R   0.706651 0.000696 0.209453 0.146691
C20   C     C_R   0.293339 0.000463 0.790325 0.146251
C21   C     C_R   0.228986 0.517974 0.281045 0.118444
C22   C     C_R   0.770966 0.523020 0.721963 0.119493
C23   C     C_R   0.728979 0.018729 0.280429 0.118400
C24   C     C_R   0.206609 0.000063 0.704545 0.146053
C25   C     C_R   0.270905 0.013621 0.714873 0.119309
C26   C     C_3   0.450358 0.567414 0.747225 -0.341015
C27   C     C_3   0.574082 0.471439 0.267006 -0.231546
C28   C     C_3   0.950387 0.067418 0.747121 -0.341343
C29   C     C_3   0.074062 0.971349 0.266955 -0.232469
C30   C     C_3   0.441613 0.456623 0.637344 -0.205362
C31   C     C_3   0.565970 0.535465 0.379209 -0.305320
C32   C     C_3   0.941621 0.956613 0.637354 -0.205201
C33   C     C_3   0.066036 0.035358 0.379303 -0.306112
C34   C     C_R   0.270965 0.483327 0.224106 -0.182132
C35   C     C_R   0.729065 0.478038 0.772541 -0.180813
C36   C     C_R   0.770972 0.982592 0.224706 -0.182220
C37   C     C_R   0.229124 0.987141 0.779489 -0.181238
C38   C     C_1   0.162150 0.500359 0.164280 -0.042864
C39   C     C_1   0.837845 0.500330 0.835652 -0.042971
C40   C     C_1   0.662150 0.000365 0.164278 -0.043034
C41   C     C_R   0.580693 0.499969 0.580627 0.904052
C42   C     C_1   0.337844 0.000240 0.835613 -0.043282
C43   C     C_1   0.337786 0.500197 0.338958 -0.058960
C44   C     C_1   0.662208 0.499976 0.660830 -0.059755
C45   C     C_1   0.837785 0.000197 0.338958 -0.059031
C46   C     C_1   0.162208 0.999956 0.660867 -0.059546
C47   C     C_1   0.375080 0.500109 0.375667 -0.194967
C48   C     C_1   0.624916 0.499928 0.624192 -0.195911
C49   C     C_1   0.875080 0.000108 0.375667 -0.195007
C50   C     C_1   0.124915 0.999924 0.624212 -0.195813
C51   C     C_1   0.124842 0.500143 0.126236 -0.175963
C52   C     C_R   0.919305 0.000034 0.419331 0.903639
C53   C     C_1   0.875155 0.500135 0.873737 -0.176132
C54   C     C_1   0.624842 0.000145 0.126236 -0.176154
C55   C     C_1   0.375154 0.000096 0.873729 -0.176354
C56   C     C_R   0.500035 0.419309 0.000074 0.923966
C57   C     C_R   0.000035 0.919309 0.000075 0.924092
C58   C     C_R   0.499542 0.503685 0.880566 0.814758
C59   C     C_R   0.500523 0.495608 0.119655 0.785199
C60   C     C_R   0.999542 0.003683 0.880565 0.814887
C61   C     C_R   0.000522 0.995606 0.119653 0.785081
C62   C     C_R   0.499961 0.580721 0.999883 0.908266
C63   C     C_R   0.080693 0.999969 0.580630 0.903826
C64   C     C_R   0.999961 0.080720 0.999885 0.908180
C65   C     C_R   0.500132 0.499239 0.619327 0.762232
C66   C     C_R   0.500170 0.500749 0.381160 0.769038
C67   C     C_R   0.000132 0.999239 0.619327 0.762089
C68   C     C_R   0.000173 0.000749 0.381164 0.768976
C69   C     C_R   0.000002 0.419417 0.000682 0.905117
C70   C     C_R   0.500002 0.919417 0.000683 0.905358
C71   C     C_R   0.080600 0.499981 0.080996 0.903810
C72   C     C_R   0.919398 0.499993 0.919002 0.903805
C73   C     C_R   0.580600 0.999980 0.080996 0.903615
C74   C     C_R   0.272684 0.517549 0.323911 -0.221689
C75   C     C_R   0.419398 0.999993 0.919001 0.903909
C76   C     C_R   0.999997 0.580642 0.999312 0.902358
C77   C     C_R   0.499999 0.080642 0.999314 0.901921
C78   C     C_R   0.964646 0.728030 0.982841 0.084107
C79   C     C_R   0.034890 0.728730 0.010643 0.083858
C80   C     C_R   0.466104 0.227929 0.989013 0.083905
C81   C     C_R   0.533350 0.228828 0.004577 0.083681
C82   C     C_R   0.999751 0.706720 0.996538 0.121490
C83   C     C_R   0.499708 0.206719 0.996583 0.121268
C84   C     C_R   0.533059 0.272444 0.004892 -0.218338
C85   C     C_R   0.727269 0.522477 0.678985 -0.224430
C86   C     C_R   0.466570 0.271537 0.989946 -0.218575
C87   C     C_R   0.034587 0.772347 0.010900 -0.218196
C88   C     C_R   0.965105 0.771637 0.983824 -0.218519
C89   C     C_R   0.499887 0.293473 0.997850 0.114809
C90   C     C_R   0.999910 0.793474 0.997796 0.114830
C91   C     C_1   0.999868 0.662147 0.996954 -0.011867
C92   C     C_1   0.499847 0.162147 0.996969 -0.012094
C93   C     C_1   0.500039 0.337847 0.998825 -0.038359
C94   C     C_1   0.000047 0.837848 0.998793 -0.038318
C95   C     C_1   0.500085 0.375114 0.999537 -0.182527
C96   C     C_R   0.772677 0.018293 0.323308 -0.221720
C97   C     C_1   0.000087 0.875114 0.999521 -0.182541
C98   C     C_2   0.531792 0.517409 0.814334 -0.255109
C99   C     C_2   0.467278 0.489886 0.184593 -0.207441
C100  C     C_2   0.031792 0.017413 0.814333 -0.255274
C101  C     C_2   0.967279 0.989929 0.184594 -0.207523
C102  C     C_1   0.999943 0.624858 0.997782 -0.174881
C103  C     C_1   0.499935 0.124858 0.997783 -0.174998
C104  C     C_R   0.976399 0.272735 0.934079 -0.180309
C105  C     C_R   0.022532 0.270754 0.069660 -0.182290
C106  C     C_R   0.472873 0.772643 0.935115 -0.180103
C107  C     C_R   0.227209 0.013203 0.672072 -0.223801
C108  C     C_R   0.526061 0.770841 0.068869 -0.182317
C109  C     C_R   0.999459 0.293377 0.002083 0.167817
C110  C     C_R   0.499459 0.793375 0.002207 0.167992
C111  C     C_R   0.526119 0.727418 0.068400 -0.179101
C112  C     C_R   0.472933 0.729231 0.934644 -0.186128
C113  C     C_R   0.022588 0.227330 0.069205 -0.179111
C114  C     C_R   0.976458 0.229322 0.933624 -0.186478
C115  C     C_R   0.499588 0.706696 0.001268 0.169669
C116  C     C_R   0.999585 0.206697 0.001179 0.169957
C117  C     C_1   0.999691 0.337811 0.002343 -0.069791
C118  C     C_R   0.293383 0.500336 0.295252 0.144859
C119  C     C_1   0.499692 0.837811 0.002394 -0.069469
C120  C     C_1   0.499750 0.662277 0.000706 -0.070914
C121  C     C_1   0.999749 0.162278 0.000663 -0.070988
C122  C     C_1   0.499865 0.624974 0.000258 -0.189480
C123  C     C_1   0.999865 0.124974 0.000243 -0.189568
C124  C     C_1   0.999861 0.375135 0.001953 -0.177227
C125  C     C_1   0.499861 0.875135 0.001964 -0.176909
C126  C     C_2   0.497296 0.515554 0.813831 0.445325
C127  C     C_2   0.501649 0.483712 0.186207 0.436622
C128  C     C_2   0.997296 0.015550 0.813829 0.445466
H1    H     H_    0.562706 0.514370 0.865926 0.138557
H2    H     H_    0.040458 0.286649 0.122420 0.142496
H3    H     H_    0.452264 0.790008 0.883370 0.141682
H4    H     H_    0.546725 0.786806 0.120912 0.142225
H5    H     H_    0.548134 0.542788 0.739496 0.117613
H6    H     H_    0.445043 0.468492 0.252835 0.107038
H7    H     H_    0.048132 0.042792 0.739491 0.117344
H8    H     H_    0.945010 0.968569 0.252795 0.107057
H9    H     H_    0.286996 0.469978 0.201872 0.146066
H10   H     H_    0.713065 0.460707 0.792340 0.147678
H11   H     H_    0.787007 0.968668 0.202939 0.146116
H12   H     H_    0.438580 0.502059 0.135215 0.129421
H13   H     H_    0.213170 0.976957 0.804685 0.146881
H14   H     H_    0.210388 0.470201 0.126092 0.152205
H15   H     H_    0.789673 0.461066 0.868218 0.152300
H16   H     H_    0.710399 0.968899 0.127155 0.152142
H17   H     H_    0.289775 0.977218 0.880467 0.152626
H18   H     H_    0.290520 0.530651 0.379232 0.135486
H19   H     H_    0.709402 0.539484 0.626055 0.132283
H20   H     H_    0.790507 0.031961 0.378168 0.135547
H21   H     H_    0.209296 0.023167 0.613826 0.131071
H22   H     H_    0.441036 0.288389 0.984443 0.144320
H23   H     H_    0.062706 0.014382 0.865927 0.138383
H24   H     H_    0.558684 0.289994 0.010979 0.144847
H25   H     H_    0.938418 0.788565 0.973660 0.144306
H26   H     H_    0.061355 0.789820 0.021652 0.144723
H27   H     H_    0.906797 0.725517 0.963845 0.182274
H28   H     H_    0.915083 0.691157 0.916944 0.183794
H29   H     H_    0.092714 0.727539 0.029532 0.182870
H30   H     H_    0.084421 0.690974 0.075873 0.184079
H31   H     H_    0.410966 0.225253 0.980330 0.182493
H32   H     H_    0.415826 0.190927 0.929035 0.184035
H33   H     H_    0.588465 0.227801 0.013172 0.182920
H34   H     H_    0.938594 0.002130 0.135227 0.129386
H35   H     H_    0.583586 0.191198 0.063864 0.184047
H36   H     H_    0.473552 0.586703 0.745105 0.163282
H37   H     H_    0.449831 0.576133 0.795791 0.159535
H38   H     H_    0.419160 0.574563 0.695720 0.194781
H39   H     H_    0.577658 0.505771 0.264452 0.176191
H40   H     H_    0.582122 0.454774 0.232778 0.175754
H41   H     H_    0.596911 0.461195 0.325877 0.165687
H42   H     H_    0.973555 0.086649 0.744826 0.163191
H43   H     H_    0.949937 0.076226 0.795730 0.159351
H44   H     H_    0.919165 0.074550 0.695662 0.194844
H45   H     H_    0.452346 0.713274 0.882559 0.137911
H46   H     H_    0.077689 0.005676 0.264466 0.176197
H47   H     H_    0.082056 0.954677 0.232669 0.175716
H48   H     H_    0.096890 0.961063 0.325802 0.165209
H49   H     H_    0.440866 0.437719 0.594648 0.161146
H50   H     H_    0.424586 0.486600 0.612054 0.150187
H51   H     H_    0.424619 0.438881 0.656356 0.189571
H52   H     H_    0.578979 0.504337 0.405923 0.147005
H53   H     H_    0.564669 0.556024 0.418036 0.187694
H54   H     H_    0.587846 0.550078 0.368107 0.174599
H55   H     H_    0.940876 0.937707 0.594661 0.161155
H56   H     H_    0.546800 0.710047 0.120102 0.142394
H57   H     H_    0.924590 0.986587 0.612059 0.150153
H58   H     H_    0.924630 0.938870 0.656371 0.189540
H59   H     H_    0.079002 0.004208 0.405947 0.146618
H60   H     H_    0.064757 0.055900 0.418172 0.187962
H61   H     H_    0.087934 0.049956 0.368242 0.174383
H62   H     H_    0.191945 0.562385 0.277896 0.183284
H63   H     H_    0.228359 0.544995 0.364688 0.178703
H64   H     H_    0.807871 0.570728 0.732427 0.182659
H65   H     H_    0.771534 0.558839 0.643315 0.176841
H66   H     H_    0.691923 0.063662 0.275802 0.183237
H67   H     H_    0.958609 0.213436 0.880845 0.137224
H68   H     H_    0.728341 0.047018 0.363121 0.178720
H69   H     H_    0.307629 0.054943 0.707187 0.183354
H70   H     H_    0.271384 0.033653 0.625293 0.176338
H71   H     H_    0.040531 0.209888 0.121629 0.142584
H72   H     H_    0.958529 0.290169 0.881635 0.141565
N1    N     N_3   0.929007 0.705200 0.968775 -0.449778
N2    N     N_3   0.070493 0.706622 0.024288 -0.449370
N3    N     N_3   0.431999 0.205000 0.981163 -0.449148
N4    N     N_3   0.567417 0.206821 0.011998 -0.449055
N5    N     N_3   0.207211 0.535478 0.309714 -0.450297
N6    N     N_3   0.792701 0.545807 0.696521 -0.451716
N7    N     N_3   0.707197 0.036994 0.308486 -0.450285
N8    N     N_3   0.292581 0.026959 0.682329 -0.451136
O1    O     O_R   0.439010 0.534430 0.439020 -0.609485
O2    O     O_R   0.939020 0.499970 0.990130 -0.616519
O3    O     O_R   0.560980 0.999970 0.009870 -0.616762
O4    O     O_R   0.439020 0.999970 0.990130 -0.616589
O5    O     O_R   0.000010 0.561020 0.051000 -0.613264
O6    O     O_R   0.999990 0.561020 0.949000 -0.614464
O7    O     O_R   0.500010 0.061020 0.051000 -0.613019
O8    O     O_R   0.499990 0.061020 0.949000 -0.614670
O9    O     O_R   0.439010 0.465570 0.438980 -0.618750
O10   O     O_R   0.560990 0.465570 0.561020 -0.606504
O11   O     O_R   0.939010 0.965570 0.438980 -0.618738
O12   O     O_R   0.560990 0.534430 0.560980 -0.621058
O13   O     O_R   0.060990 0.965570 0.561020 -0.606134
O14   O     O_R   0.500010 0.534430 0.590460 -0.635849
O15   O     O_R   0.499990 0.534430 0.409540 -0.611892
O16   O     O_R   0.000010 0.034430 0.590460 -0.635965
O17   O     O_R   0.999990 0.034430 0.409540 -0.611923
O18   O     O_R   0.500010 0.465570 0.590420 -0.604266
O19   O     O_R   0.499990 0.465570 0.409580 -0.625977
O20   O     O_R   0.000010 0.965570 0.590420 -0.604140
O21   O     O_R   0.999990 0.965570 0.409580 -0.625966
O22   O     O_R   0.534430 0.439010 0.034350 -0.615724
O23   O     O_R   0.939010 0.034430 0.439020 -0.609583
O24   O     O_R   0.465570 0.439010 0.965650 -0.613092
O25   O     O_R   0.034430 0.939010 0.034350 -0.615836
O26   O     O_R   0.965570 0.939010 0.965650 -0.613147
O27   O     O_R   0.534420 0.500000 0.943920 -0.652191
O28   O     O_R   0.465580 0.500000 0.056080 -0.637360
O29   O     O_R   0.034420 0.000000 0.943920 -0.652238
O30   O     O_R   0.965580 0.000000 0.056080 -0.637361
O31   O     O_R   0.465560 0.500000 0.875080 -0.583762
O32   O     O_R   0.534440 0.500000 0.124920 -0.630148
O33   O     O_R   0.965560 0.000000 0.875080 -0.583684
O34   O     O_R   0.060990 0.034430 0.560980 -0.620968
O35   O     O_R   0.034440 0.000000 0.124920 -0.630215
O36   O     O_R   0.534430 0.560990 0.034430 -0.615207
O37   O     O_R   0.465570 0.560990 0.965570 -0.616349
O38   O     O_R   0.034430 0.060990 0.034430 -0.615186
O39   O     O_R   0.965570 0.060990 0.965570 -0.616211
O40   O     O_R   0.000000 0.439050 0.051090 -0.615959
O41   O     O_R   1.000000 0.439050 0.948910 -0.615414
O42   O     O_R   0.500000 0.939050 0.051090 -0.615765
O43   O     O_R   0.500000 0.939050 0.948910 -0.615142
O44   O     O_3   0.458352 0.524510 0.749124 -0.573851
O45   O     O_R   0.060990 0.500040 0.112010 -0.612472
O46   O     O_3   0.533893 0.460022 0.246235 -0.600033
O47   O     O_3   0.958347 0.024496 0.749124 -0.573766
O48   O     O_3   0.033863 0.959993 0.246207 -0.599774
O49   O     O_3   0.483091 0.462575 0.699646 -0.582122
O50   O     O_3   0.526358 0.532457 0.310686 -0.599016
O51   O     O_3   0.983099 0.962571 0.699654 -0.582011
O52   O     O_3   0.026422 0.032413 0.310764 -0.598943
O53   O     O_R   0.939010 0.500040 0.887990 -0.612577
O54   O     O_R   0.560990 0.000040 0.112010 -0.612372
O55   O     O_R   0.439010 0.000040 0.887990 -0.612892
O56   O     O_R   0.060980 0.499970 0.009870 -0.616683
Zn1   Zn    Zn3+2 0.500000 0.545980 0.500000 0.959686
Zn2   Zn    Zn3+2 0.999990 0.500050 0.931820 0.973459
Zn3   Zn    Zn3+2 0.500010 0.000050 0.068180 0.974360
Zn4   Zn    Zn3+2 0.499990 0.000050 0.931820 0.973129
Zn5   Zn    Zn3+2 0.000000 0.045980 0.500000 0.959569
Zn6   Zn    Zn3+2 0.500000 0.454020 0.500000 0.973609
Zn7   Zn    Zn3+2 1.000000 0.954020 0.500000 0.974078
Zn8   Zn    Zn3+2 0.545980 0.500000 0.045940 0.944102
Zn9   Zn    Zn3+2 0.454020 0.500000 0.954060 0.975359
Zn10  Zn    Zn3+2 0.045980 1.000000 0.045940 0.943706
Zn11  Zn    Zn3+2 0.954020 1.000000 0.954060 0.975414
Zn12  Zn    Zn3+2 0.000010 0.500050 0.068180 0.974169

loop_
_geom_bond_atom_site_label_1
_geom_bond_atom_site_label_2
_ccdc_geom_bond_type
C2    C35   A    
C34   C118  A    
C56   C95   S    
C13   C45   S    
C26   H37   S    
C61   O35   A    
H27   N1    S    
C4    C98   S    
C30   O49   S    
C63   O13   A    
H33   N4    S    
C19   C23   A    
O29   Zn10  S    
C28   O47   S    
C29   H46   S    
C4    C8    D    
O37   Zn9   S    
C81   C84   A    
H32   N3    S    
C79   C87   A    
C57   O26   A    
C109  C117  S    
C106  C112  A    
C10   C67   S    
C73   O54   A    
C7    C11   D    
C83   C92   S    
C56   O24   A    
C72   O53   A    
O10   Zn6   S    
C37   H13   S    
C32   H57   S    
C61   O30   A    
C105  C113  A    
C101  H34   S    
C117  C124  T    
O42   Zn3   S    
O40   Zn12  S    
C86   H22   S    
C35   H10   S    
C104  C109  A    
C29   O48   S    
C80   N3    S    
C20   C25   A    
O12   Zn1   S    
C59   C127  S    
O9    Zn6   S    
C127  O46   S    
C128  O47   S    
C23   C96   A    
C22   N6    S    
C2    C85   A    
C33   H61   S    
O28   Zn9   S    
H63   N5    S    
C22   C85   A    
C21   N5    S    
C8    O49   S    
C14   C18   A    
C9    C66   S    
C71   O45   A    
C80   C86   A    
C32   H55   S    
C92   C103  T    
O16   Zn5   S    
C15   C19   A    
H31   N3    S    
C76   O5    A    
C28   H44   S    
C72   O2    A    
H62   N5    S    
C5    C99   S    
O4    Zn3   S    
C2    C44   S    
C12   C17   A    
O2    Zn12  S    
C30   H51   S    
C78   N1    S    
C90   C94   S    
C33   H60   S    
C25   N8    S    
C43   C47   T    
C70   O42   A    
O13   Zn7   S    
C69   O41   A    
C16   C37   A    
C113  C116  A    
C55   C75   S    
C3    C101  D    
C70   O43   A    
C112  H45   S    
C8    C65   S    
C93   C95   T    
C100  C128  D    
C9    O50   S    
C31   H53   S    
C50   C63   S    
C104  H72   S    
C5    H6    S    
C51   C71   S    
C29   H47   S    
C80   C83   A    
C96   H20   S    
H28   N1    S    
C65   O14   A    
C81   C83   A    
C120  C122  T    
C41   O10   A    
C81   N4    S    
C3    C61   S    
C100  H23   S    
C76   C102  S    
C106  H3    S    
C74   C118  A    
C126  O44   S    
C75   O55   A    
C75   O4    A    
C121  C123  T    
C116  C121  S    
O6    Zn2   S    
C13   C96   A    
H70   N8    S    
H35   N4    S    
O34   Zn5   S    
C60   C128  S    
C13   C36   A    
C58   O27   A    
C114  H67   S    
O54   Zn3   S    
O14   Zn1   S    
C68   O17   A    
C1    C47   S    
C62   O37   A    
C99   C127  D    
C38   C51   T    
C94   C97   T    
O27   Zn8   S    
C108  H4    S    
C63   O34   A    
C1    O1    A    
C21   C74   A    
C14   C35   A    
C36   H11   S    
C17   C21   A    
O26   Zn11  S    
C86   C89   A    
C16   H17   S    
O22   Zn8   S    
C29   H48   S    
C6    C100  S    
O41   Zn2   S    
C66   O19   A    
O1    Zn1   S    
C18   C39   S    
C5    C9    D    
C6    H7    S    
H66   N7    S    
C111  H56   S    
C42   C55   T    
C54   C73   S    
C111  C115  A    
C78   C82   A    
O19   Zn6   S    
C114  C116  A    
C12   H14   S    
O5    Zn12  S    
C45   C49   T    
C16   C20   A    
C79   N2    S    
C57   C97   S    
O55   Zn4   S    
C24   C37   A    
C30   H50   S    
C87   H26   S    
C56   O22   A    
C33   H59   S    
C24   C107  A    
O35   Zn10  S    
O17   Zn5   S    
C26   O44   S    
C104  C114  A    
C84   H24   S    
C70   C125  S    
C28   H42   S    
C98   H1    S    
C88   C90   A    
C58   C126  S    
C40   C54   T    
O31   Zn9   S    
C31   H54   S    
C41   C48   S    
H30   N2    S    
C99   H12   S    
C77   C103  S    
C84   C89   A    
C91   C102  T    
C12   C34   A    
O30   Zn11  S    
O56   Zn2   S    
C119  C125  T    
C15   C36   A    
C62   C122  S    
C41   O12   A    
C68   O21   A    
C77   O7    A    
C74   H18   S    
C106  C110  A    
C98   C126  D    
C78   C88   A    
C71   O56   A    
C27   H41   S    
C14   H15   S    
C26   H38   S    
C52   O11   A    
H65   N6    S    
C23   N7    S    
O36   Zn8   S    
H64   N6    S    
O24   Zn9   S    
C73   O3    A    
C32   O51   S    
C85   H19   S    
C49   C52   S    
O7    Zn3   S    
C66   O15   A    
O45   Zn12  S    
C110  C119  S    
C6    C10   D    
C79   C82   A    
C20   C42   S    
O20   Zn7   S    
C52   O23   A    
C62   O36   A    
C105  H2    S    
C60   O29   A    
C64   C123  S    
C46   C50   T    
C34   H9    S    
C69   C124  S    
C108  C111  A    
C32   H58   S    
C31   H52   S    
C3    O48   S    
C28   H43   S    
C24   C46   S    
C11   O52   S    
O32   Zn8   S    
H68   N7    S    
C18   C22   A    
C59   O32   A    
C7    H8    S    
C44   C48   T    
C60   O33   A    
C88   H25   S    
O38   Zn10  S    
C11   C68   S    
O21   Zn7   S    
O33   Zn11  S    
C39   C53   T    
C64   O39   A    
C105  C109  A    
C67   O20   A    
O25   Zn10  S    
O23   Zn5   S    
C33   O52   S    
C26   H36   S    
O3    Zn4   S    
C30   H49   S    
C108  C110  A    
C65   O18   A    
C31   O50   S    
O11   Zn7   S    
C17   C38   S    
C112  C115  A    
C89   C93   S    
C67   O16   A    
C27   O46   S    
O15   Zn1   S    
C19   C40   S    
C82   C91   S    
C43   C118  S    
C15   H16   S    
C107  H21   S    
C76   O6    A    
O53   Zn2   S    
C69   O40   A    
C64   O38   A    
C57   O25   A    
C77   O8    A    
O8    Zn4   S    
C115  C120  S    
C7    C101  S    
C87   C90   A    
C10   O51   S    
H69   N8    S    
C1    O9    A    
H29   N2    S    
C113  H71   S    
C59   O28   A    
C53   C72   S    
O39   Zn11  S    
O43   Zn4   S    
C25   C107  A    
O18   Zn6   S    
C58   O31   A    
C27   H40   S    
C27   H39   S    
C4    H5    S    
