data_mof_unit_9346.cif
_audit_creation_date              2012-10-26T20:25:26-0400
_audit_creation_method            fapswitch 2.2
_symmetry_space_group_name_H-M    P1
_symmetry_Int_Tables_number       1
_space_group_crystal_system       triclinic
_cell_length_a                    23.484609
_cell_length_b                    10.690496
_cell_length_c                    9.575773
_cell_angle_alpha                 90.228814
_cell_angle_beta                  90.912716
_cell_angle_gamma                 89.839151
_cell_volume                      2403.78060792

loop_
_atom_site_label
_atom_site_type_symbol
_atom_type_description
_atom_site_fract_x
_atom_site_fract_y
_atom_site_fract_z
_atom_type_partial_charge
C1    C     C_R   0.498719 0.260173 0.499284 0.578047
C2    C     C_R   0.700766 0.546927 0.386761 -0.093689
C3    C     C_R   0.239858 0.451556 0.611506 -0.041716
C4    C     C_R   0.760143 0.548443 0.388496 -0.041718
C5    C     C_R   0.209590 0.496233 0.494829 0.248236
C6    C     C_R   0.790410 0.503759 0.505171 0.248235
C7    C     C_3   0.548939 0.046561 0.554190 -0.116289
C8    C     C_3   0.451058 0.953440 0.445810 -0.116279
C9    C     C_3   0.543838 0.960010 0.424846 0.023069
C10   C     C_3   0.456159 0.039990 0.575153 0.023067
C11   C     C_3   0.501962 0.876629 0.502761 0.032658
C12   C     C_R   0.501280 0.739827 0.500716 0.578053
C13   C     C_3   0.498036 0.123371 0.497239 0.032653
C14   C     C_3   0.506517 0.962426 0.631891 -0.033931
C15   C     C_3   0.493480 0.037574 0.368110 -0.033934
C16   C     C_R   0.391342 0.499727 0.499203 0.577712
C17   C     C_R   0.608658 0.500272 0.500797 0.577718
C18   C     C_3   0.514626 0.607358 0.050673 0.041894
C19   C     C_3   0.485374 0.392642 0.949327 0.041897
C20   C     C_3   0.464834 0.582098 0.949747 0.085067
C21   C     C_3   0.535166 0.417902 0.050253 0.085068
C22   C     C_3   0.549659 0.525508 0.952436 0.082451
C23   C     C_R   0.238823 0.542584 0.379955 -0.056220
C24   C     C_3   0.450341 0.474492 0.047564 0.082452
C25   C     C_R   0.880145 0.608252 0.541968 0.396830
C26   C     C_R   0.119855 0.391739 0.458033 0.396831
C27   C     C_R   0.878741 0.395272 0.468075 0.394153
C28   C     C_R   0.121259 0.604719 0.531927 0.394153
C29   C     C_R   0.939002 0.389509 0.468427 0.025307
C30   C     C_R   0.060998 0.610482 0.531574 0.025307
C31   C     C_R   0.969856 0.500016 0.502572 -0.059876
C32   C     C_R   0.030144 0.499976 0.497430 -0.059875
C33   C     C_R   0.940424 0.609237 0.546627 0.024231
C34   C     C_R   0.761176 0.457404 0.620043 -0.056221
C35   C     C_R   0.059576 0.390755 0.453375 0.024230
C36   C     C_R   0.969055 0.278295 0.433054 0.007875
C37   C     C_R   0.030945 0.721696 0.566949 0.007874
C38   C     C_R   0.028145 0.283880 0.408794 0.008745
C39   C     C_R   0.971855 0.716111 0.591209 0.008746
C40   C     C_3   0.939861 0.151528 0.431291 -0.341852
C41   C     C_3   0.060139 0.848463 0.568713 -0.341852
C42   C     C_2   0.421733 0.678843 0.905700 0.188445
C43   C     C_2   0.578268 0.321159 0.094299 0.188440
C44   C     C_3   0.534618 0.733153 0.105547 -0.363025
C45   C     C_R   0.298161 0.543863 0.381327 -0.117898
C46   C     C_3   0.465381 0.266847 0.894453 -0.363031
C47   C     C_2   0.608029 0.557374 0.903219 0.247101
C48   C     C_2   0.391970 0.442627 0.096779 0.247097
C49   C     C_3   0.055687 0.180603 0.323428 -0.344989
C50   C     C_3   0.944313 0.819388 0.676577 -0.344990
C51   C     C_2   0.594623 0.918376 0.344683 0.227852
C52   C     C_2   0.405374 0.081628 0.655310 0.227858
C53   C     C_3   0.516991 0.924163 0.782493 -0.385259
C54   C     C_3   0.483004 0.075838 0.217510 -0.385265
C55   C     C_R   0.701838 0.456128 0.618670 -0.117902
C56   C     C_R   0.328825 0.498693 0.497711 0.041152
C57   C     C_R   0.671175 0.501305 0.502289 0.041152
C58   C     C_R   0.299234 0.453074 0.613242 -0.093690
Cu1   Cu    Cu3+1 0.500010 0.499990 0.643150 1.033478
Cu2   Cu    Cu3+1 0.499990 0.500010 0.356850 1.033482
H1    H     H_    0.215473 0.578364 0.290177 0.122205
H2    H     H_    0.410993 0.913988 0.401205 0.136241
H3    H     H_    0.912179 0.142103 0.523568 0.173697
H4    H     H_    0.914876 0.138942 0.332878 0.184932
H5    H     H_    0.970372 0.072804 0.441064 0.098318
H6    H     H_    0.087821 0.857890 0.476436 0.173698
H7    H     H_    0.029628 0.927187 0.558943 0.098318
H8    H     H_    0.085124 0.861048 0.667126 0.184932
H9    H     H_    0.402433 0.736938 0.985206 0.067655
H10   H     H_    0.597567 0.263062 0.014792 0.067655
H11   H     H_    0.550802 0.790625 0.019280 0.126522
H12   H     H_    0.784526 0.421620 0.709818 0.122206
H13   H     H_    0.498586 0.783642 0.153204 0.124919
H14   H     H_    0.569888 0.717899 0.181793 0.183501
H15   H     H_    0.449198 0.209375 0.980723 0.126522
H16   H     H_    0.430111 0.282100 0.818210 0.183484
H17   H     H_    0.501413 0.216358 0.846795 0.124920
H18   H     H_    0.643138 0.493571 0.923124 0.071782
H19   H     H_    0.356862 0.506429 0.076873 0.071778
H20   H     H_    0.024169 0.128210 0.258665 0.110766
H21   H     H_    0.085159 0.220997 0.246218 0.177220
H22   H     H_    0.078520 0.113854 0.393143 0.172621
H23   H     H_    0.319990 0.582373 0.292771 0.115012
H24   H     H_    0.975831 0.871778 0.741341 0.110766
H25   H     H_    0.921480 0.886137 0.606862 0.172620
H26   H     H_    0.914841 0.778992 0.753784 0.177221
H27   H     H_    0.600495 0.950600 0.238660 0.109160
H28   H     H_    0.399505 0.049424 0.761342 0.109148
H29   H     H_    0.528031 0.007064 0.847047 0.093243
H30   H     H_    0.478287 0.880948 0.824590 0.158969
H31   H     H_    0.553027 0.857192 0.787004 0.210839
H32   H     H_    0.471975 0.992934 0.152950 0.093237
H33   H     H_    0.446959 0.142786 0.212999 0.210831
H34   H     H_    0.680009 0.417615 0.707225 0.115010
H35   H     H_    0.521702 0.119082 0.175420 0.158988
H36   H     H_    0.321965 0.417741 0.704252 0.147456
H37   H     H_    0.678035 0.582264 0.295752 0.147464
H38   H     H_    0.217309 0.416290 0.700837 0.130756
H39   H     H_    0.782692 0.583712 0.299167 0.130757
H40   H     H_    0.589004 0.086011 0.598795 0.136238
N1    N     N_R   0.851431 0.502318 0.505803 -0.396697
N2    N     N_R   0.148569 0.497674 0.494198 -0.396698
N3    N     N_3   0.500040 0.499970 0.858290 -0.237552
N4    N     N_3   0.499960 0.500030 0.141710 -0.237552
O1    O     O_R   0.500030 0.316850 0.620870 -0.539623
O2    O     O_2   0.150134 0.287068 0.432114 -0.494328
O3    O     O_2   0.846982 0.297142 0.425024 -0.504308
O4    O     O_2   0.153018 0.702850 0.574977 -0.504308
O5    O     O_2   0.407575 0.693314 0.784062 -0.476180
O6    O     O_2   0.592428 0.306690 0.215936 -0.476184
O7    O     O_2   0.616521 0.655349 0.842221 -0.495316
O8    O     O_2   0.383478 0.344652 0.157779 -0.495315
O9    O     O_2   0.630175 0.850078 0.399215 -0.493601
O10   O     O_2   0.369817 0.149906 0.600763 -0.493588
O11   O     O_R   0.499970 0.683150 0.379130 -0.539618
O12   O     O_R   0.500000 0.316860 0.379090 -0.437960
O13   O     O_R   0.500000 0.683140 0.620910 -0.437960
O14   O     O_R   0.417890 0.499960 0.620920 -0.461122
O15   O     O_R   0.582110 0.500040 0.379080 -0.461116
O16   O     O_R   0.417870 0.499970 0.379140 -0.488683
O17   O     O_R   0.582130 0.500030 0.620860 -0.488684
O18   O     O_2   0.849866 0.712924 0.567886 -0.494330

loop_
_geom_bond_atom_site_label_1
_geom_bond_atom_site_label_2
_ccdc_geom_bond_type
Cu1   O17   S    
C7    C13   S    
C23   C45   A    
C27   C29   A    
C9    C51   S    
C10   C52   S    
C26   O2    S    
C46   H16   S    
C2    C57   A    
C50   H24   S    
C41   H7    S    
C38   C49   S    
C29   C36   A    
C33   C39   A    
C40   H3    S    
Cu2   O15   S    
C48   H19   S    
C19   C21   S    
C42   O5    D    
C16   O14   A    
C16   O16   A    
C11   C14   S    
C44   H11   S    
C6    N1    S    
C49   H21   S    
C58   H36   S    
C54   H33   S    
C50   H25   S    
C21   C43   S    
C21   N4    S    
C19   N3    S    
C7    C14   S    
C20   C24   S    
C45   C56   A    
C53   H31   S    
C31   C33   A    
C1    O12   A    
C25   O18   S    
C12   O11   A    
C22   C47   S    
C34   C55   A    
Cu1   O13   S    
C21   C22   S    
C45   H23   S    
C55   H34   S    
C46   H15   S    
C1    O1    A    
C41   H8    S    
C19   C46   S    
C7    H40   S    
C24   C48   S    
C32   C35   A    
C52   H28   S    
C35   C38   A    
C2    H37   S    
C4    C6    A    
C15   C54   S    
C10   C14   S    
C51   H27   S    
C20   N3    S    
C17   O15   A    
C18   N4    S    
C27   N1    A    
C42   H9    S    
C22   N3    S    
C6    C34   A    
C30   C37   A    
C24   N4    S    
C49   H22   S    
C2    C4    A    
C16   C56   S    
C54   H32   S    
C18   C44   S    
C31   C32   A    
C5    C23   A    
C27   O3    S    
C14   C53   S    
Cu1   O1    S    
C44   H14   S    
C9    C11   S    
C54   H35   S    
C17   O17   A    
C43   O6    D    
C8    H2    S    
C43   H10   S    
C40   H5    S    
C55   C57   A    
C53   H29   S    
Cu2   O12   S    
C1    C13   S    
C36   C38   A    
C34   H12   S    
C36   C40   S    
C23   H1    S    
C7    C9    S    
C5    N2    S    
C48   O8    D    
C18   C22   S    
C51   O9    D    
C8    C10   S    
C3    C5    A    
C10   C13   S    
C46   H17   S    
C20   C42   S    
C11   C12   S    
C41   H6    S    
C52   O10   D    
C8    C15   S    
C40   H4    S    
C49   H20   S    
Cu1   N3    S    
C13   C15   S    
C19   C24   S    
C9    C15   S    
C29   C31   A    
C26   N2    A    
C30   C32   A    
C3    H38   S    
C25   N1    A    
C28   O4    S    
C8    C11   S    
C47   O7    D    
C28   C30   A    
C56   C58   A    
Cu2   O16   S    
C18   C20   S    
C37   C41   S    
C44   H13   S    
C50   H26   S    
C12   O13   A    
C3    C58   A    
C28   N2    A    
C26   C35   A    
Cu1   Cu2   S    
C39   C50   S    
Cu1   O14   S    
C37   C39   A    
C4    H39   S    
C25   C33   A    
C53   H30   S    
Cu2   O11   S    
C47   H18   S    
Cu2   N4    S    
C17   C57   S    
