data_mof_unit_30900.cif
_audit_creation_date              2012-12-11T15:43:01-0500
_audit_creation_method            fapswitch 2.2
_symmetry_space_group_name_H-M    P1
_symmetry_Int_Tables_number       1
_space_group_crystal_system       triclinic
_cell_length_a                    18.991181
_cell_length_b                    10.993808
_cell_length_c                    18.758357
_cell_angle_alpha                 90.122239
_cell_angle_beta                  90.347011
_cell_angle_gamma                 90.082427
_cell_volume                      3916.38615568

loop_
_atom_site_label
_atom_site_type_symbol
_atom_type_description
_atom_site_fract_x
_atom_site_fract_y
_atom_site_fract_z
_atom_type_partial_charge
C1    C     C_R   0.730529 0.377002 0.146342 0.552408
C2    C     C_R   0.271426 0.375167 0.854957 0.545726
C3    C     C_R   0.230529 0.877000 0.146341 0.552411
C4    C     C_R   0.771427 0.875165 0.854958 0.545736
C5    C     C_R   0.529444 0.371604 0.924541 -0.140906
C6    C     C_R   0.504945 0.395917 0.069939 -0.139786
C7    C     C_R   0.029482 0.871562 0.924529 -0.140805
C8    C     C_R   0.004978 0.895919 0.069924 -0.139753
C9    C     C_R   0.035410 0.986445 0.956692 0.313047
C10   C     C_R   0.021366 0.000666 0.029351 0.308756
C11   C     C_R   0.535348 0.486498 0.956710 0.313100
C12   C     C_R   0.521312 0.500682 0.029374 0.308833
C13   C     C_R   0.761414 0.905250 0.928919 0.019782
C14   C     C_R   0.255505 0.924933 0.079278 0.012749
C15   C     C_R   0.261412 0.405252 0.928918 0.019777
C16   C     C_R   0.755502 0.424932 0.079278 0.012758
C17   C     C_R   0.695966 0.928999 0.958302 -0.030550
C18   C     C_R   0.302414 0.857718 0.037159 0.004633
C19   C     C_R   0.195964 0.429009 0.958300 -0.030519
C20   C     C_R   0.802405 0.357712 0.037158 0.004632
C21   C     C_R   0.689307 0.933870 0.031489 0.009884
C22   C     C_R   0.304989 0.875162 0.964293 0.002618
C23   C     C_R   0.189306 0.433887 0.031487 0.009895
C24   C     C_R   0.804977 0.375151 0.964291 0.002623
C25   C     C_R   0.814451 0.910027 0.047270 -0.164932
C26   C     C_R   0.223459 0.040981 0.975374 -0.122761
C27   C     C_R   0.314448 0.410028 0.047269 -0.164933
C28   C     C_R   0.723447 0.540969 0.975372 -0.122805
C29   C     C_R   0.821345 0.901817 0.973945 -0.138424
C30   C     C_R   0.221396 0.024966 0.048809 -0.148540
C31   C     C_R   0.321343 0.401814 0.973945 -0.138405
C32   C     C_R   0.721389 0.524960 0.048808 -0.148539
C33   C     C_3   0.627545 0.865557 0.948001 -0.255993
C34   C     C_3   0.311194 0.723243 0.028957 -0.236447
C35   C     C_3   0.127542 0.365567 0.948002 -0.256060
C36   C     C_3   0.811170 0.223235 0.028957 -0.236444
C37   C     C_3   0.622484 0.862345 0.028664 -0.225397
C38   C     C_3   0.314830 0.743232 0.949125 -0.275828
C39   C     C_3   0.122482 0.362364 0.028665 -0.225437
C40   C     C_3   0.814799 0.243221 0.949125 -0.275840
C41   C     C_R   0.747698 0.921020 0.076924 0.004970
C42   C     C_R   0.259519 0.957650 0.931779 0.020271
C43   C     C_R   0.247696 0.421030 0.076922 0.004958
C44   C     C_R   0.759510 0.457643 0.931777 0.020266
C45   C     C_R   0.529624 0.156461 0.148023 0.546643
C46   C     C_R   0.466400 0.154536 0.854743 0.539383
C47   C     C_R   0.029625 0.656461 0.148022 0.546642
C48   C     C_R   0.966400 0.654534 0.854743 0.539386
C49   C     C_R   0.485073 0.164477 0.570645 0.022588
C50   C     C_R   0.494961 0.165211 0.421058 0.021572
C51   C     C_R   0.985072 0.664477 0.570645 0.022589
C52   C     C_R   0.994960 0.665212 0.421058 0.021572
C53   C     C_R   0.476620 0.058762 0.530969 0.019883
C54   C     C_R   0.479004 0.058379 0.458067 0.016998
C55   C     C_R   0.976618 0.558762 0.530968 0.019887
C56   C     C_R   0.979002 0.558380 0.458066 0.017000
C57   C     C_R   0.491616 0.276003 0.458715 -0.168110
C58   C     C_R   0.488385 0.275544 0.533627 -0.167466
C59   C     C_R   0.991617 0.776004 0.458715 -0.168112
C60   C     C_R   0.988386 0.775544 0.533627 -0.167467
C61   C     C_3   0.512902 0.939707 0.538489 -0.273930
C62   C     C_3   0.512795 0.935405 0.458252 -0.247185
C63   C     C_3   0.012898 0.439706 0.538487 -0.273933
C64   C     C_3   0.012793 0.435406 0.458251 -0.247185
C65   C     C_R   0.746758 0.936731 0.582493 -0.014479
C66   C     C_R   0.252916 0.946978 0.415811 -0.011700
C67   C     C_R   0.246758 0.436733 0.582494 -0.014479
C68   C     C_R   0.752916 0.446976 0.415811 -0.011699
C69   C     C_R   0.784462 0.034738 0.552725 0.058374
C70   C     C_R   0.206115 0.027952 0.450028 0.057620
C71   C     C_R   0.284461 0.534740 0.552726 0.058358
C72   C     C_R   0.706115 0.527950 0.450028 0.057627
C73   C     C_R   0.778482 0.059136 0.480412 -0.018043
C74   C     C_R   0.213033 0.050233 0.522309 -0.022154
C75   C     C_R   0.278481 0.559138 0.480413 -0.018038
C76   C     C_R   0.713032 0.550231 0.522310 -0.022152
C77   C     C_R   0.694891 0.895387 0.466962 -0.165213
C78   C     C_R   0.321626 0.938608 0.524943 -0.130772
C79   C     C_R   0.194891 0.395389 0.466962 -0.165212
C80   C     C_R   0.821625 0.438604 0.524944 -0.130775
C81   C     C_R   0.698664 0.873054 0.539691 -0.171741
C82   C     C_R   0.314599 0.913851 0.451890 -0.152626
C83   C     C_R   0.198663 0.373057 0.539692 -0.171736
C84   C     C_R   0.814598 0.413848 0.451891 -0.152630
C85   C     C_3   0.862990 0.055455 0.551131 0.154058
C86   C     C_3   0.126964 0.022619 0.455939 0.145790
C87   C     C_3   0.362989 0.555462 0.551133 0.154052
C88   C     C_3   0.626964 0.522614 0.455941 0.145797
C89   C     C_R   0.741337 0.967442 0.148393 0.548515
C90   C     C_R   0.261030 0.978105 0.855585 0.555877
C91   C     C_R   0.241336 0.467444 0.148392 0.548519
C92   C     C_R   0.761028 0.478103 0.855584 0.555871
C93   C     C_3   0.855897 0.077681 0.472181 -0.197004
C94   C     C_3   0.135737 0.039615 0.535394 -0.205093
C95   C     C_3   0.355897 0.577685 0.472183 -0.197004
C96   C     C_3   0.635737 0.539612 0.535395 -0.205098
C97   C     C_R   0.735037 0.988598 0.436681 -0.002455
C98   C     C_R   0.268317 0.000577 0.561737 -0.000857
C99   C     C_R   0.235037 0.488599 0.436681 -0.002453
C100  C     C_R   0.768317 0.500575 0.561738 -0.000854
C101  C     C_R   0.730381 0.382304 0.351283 0.535147
C102  C     C_R   0.269626 0.381042 0.648699 0.538504
C103  C     C_R   0.230382 0.882304 0.351283 0.535145
C104  C     C_R   0.769626 0.881042 0.648699 0.538516
C105  C     C_R   0.531120 0.157076 0.352832 0.540790
C106  C     C_R   0.466296 0.157174 0.645468 0.544305
C107  C     C_R   0.031120 0.657076 0.352832 0.540792
C108  C     C_R   0.966296 0.657174 0.645468 0.544310
C109  C     C_R   0.728911 0.018492 0.361737 0.571140
C110  C     C_R   0.272088 0.021763 0.638567 0.576202
C111  C     C_R   0.228911 0.518492 0.361737 0.571139
C112  C     C_R   0.772087 0.521763 0.638567 0.576216
C113  C     C_R   0.486726 0.159987 0.930099 0.009822
C114  C     C_R   0.493828 0.170789 0.078923 0.008397
C115  C     C_R   0.986725 0.659977 0.930097 0.009825
C116  C     C_R   0.993832 0.670791 0.078921 0.008400
C117  C     C_R   0.506465 0.270136 0.963571 -0.046456
C118  C     C_R   0.501932 0.279257 0.038316 -0.026350
C119  C     C_R   0.006485 0.770115 0.963564 -0.046495
C120  C     C_R   0.001950 0.779251 0.038308 -0.026350
C121  C     C_R   0.470634 0.065052 0.045337 -0.159923
C122  C     C_R   0.467224 0.059601 0.972100 -0.145613
C123  C     C_R   0.970626 0.565059 0.045339 -0.159926
C124  C     C_R   0.967210 0.559603 0.972102 -0.145605
Cr1   Cr    Cr6+3 0.772010 0.169670 0.250090 0.993578
Cr2   Cr    Cr6+3 0.227990 0.169670 0.749910 1.002026
Cr3   Cr    Cr6+3 0.272010 0.669670 0.250090 0.993590
Cr4   Cr    Cr6+3 0.727990 0.669670 0.749910 1.001867
Cr5   Cr    Cr6+3 0.615000 0.323260 0.249260 0.965590
Cr6   Cr    Cr6+3 0.385000 0.323260 0.750740 0.964041
Cr7   Cr    Cr6+3 0.115000 0.823260 0.249260 0.965602
Cr8   Cr    Cr6+3 0.885000 0.823260 0.750740 0.964086
Cr9   Cr    Cr6+3 0.616710 0.010760 0.250840 0.987933
Cr10  Cr    Cr6+3 0.383290 0.010760 0.749160 0.981962
Cr11  Cr    Cr6+3 0.116710 0.510760 0.250840 0.987929
Cr12  Cr    Cr6+3 0.883290 0.510760 0.749160 0.981954
H1    H     H_    0.459772 0.983251 0.075540 0.136377
H2    H     H_    0.448871 0.975236 0.948496 0.155002
H3    H     H_    0.959756 0.483263 0.075545 0.136350
H4    H     H_    0.948845 0.475243 0.948500 0.154966
H5    H     H_    0.496623 0.361527 0.431035 0.116070
H6    H     H_    0.491049 0.360582 0.562461 0.114916
H7    H     H_    0.996625 0.861528 0.431035 0.116073
H8    H     H_    0.991052 0.860581 0.562462 0.114917
H9    H     H_    0.980218 0.367236 0.562120 0.165110
H10   H     H_    0.065851 0.435992 0.435661 0.175606
H11   H     H_    0.480224 0.867235 0.562125 0.165111
H12   H     H_    0.565852 0.935990 0.435660 0.175608
H13   H     H_    0.566010 0.949885 0.562681 0.144283
H14   H     H_    0.477036 0.864612 0.436689 0.136456
H15   H     H_    0.066006 0.449881 0.562681 0.144282
H16   H     H_    0.977035 0.364613 0.436685 0.136458
H17   H     H_    0.663744 0.834921 0.433952 0.183113
H18   H     H_    0.365846 0.901849 0.553619 0.174812
H19   H     H_    0.163743 0.334923 0.433953 0.183112
H20   H     H_    0.865844 0.401843 0.553620 0.174820
H21   H     H_    0.669245 0.797826 0.561001 0.143937
H22   H     H_    0.353953 0.860339 0.425135 0.118072
H23   H     H_    0.169243 0.297829 0.561002 0.143932
H24   H     H_    0.853952 0.360335 0.425136 0.118074
H25   H     H_    0.895098 0.973503 0.562119 0.120841
H26   H     H_    0.104180 0.932448 0.442826 0.122336
H27   H     H_    0.395099 0.473514 0.562123 0.120853
H28   H     H_    0.604181 0.432442 0.442828 0.122332
H29   H     H_    0.869729 0.171022 0.455883 0.151365
H30   H     H_    0.111290 0.123826 0.556352 0.156322
H31   H     H_    0.369727 0.671027 0.455885 0.151362
H32   H     H_    0.611290 0.623822 0.556353 0.156324
H33   H     H_    0.881085 0.005450 0.439477 0.109845
H34   H     H_    0.122086 0.956405 0.566052 0.109833
H35   H     H_    0.381086 0.505455 0.439480 0.109843
H36   H     H_    0.622086 0.456402 0.566054 0.109823
H37   H     H_    0.543564 0.362076 0.869087 0.135717
H38   H     H_    0.490321 0.405191 0.125103 0.120794
H39   H     H_    0.043595 0.862042 0.869071 0.135841
H40   H     H_    0.990354 0.905209 0.125086 0.120802
H41   H     H_    0.860935 0.909571 0.080833 0.126480
H42   H     H_    0.194572 0.115552 0.952606 0.174735
H43   H     H_    0.360930 0.409566 0.080833 0.126499
H44   H     H_    0.694555 0.615533 0.952603 0.174697
H45   H     H_    0.873553 0.887746 0.952743 0.151880
H46   H     H_    0.187646 0.082945 0.080375 0.141602
H47   H     H_    0.373549 0.387738 0.952743 0.151903
H48   H     H_    0.687640 0.582938 0.080374 0.141561
H49   H     H_    0.132824 0.275722 0.922371 0.199337
H50   H     H_    0.763346 0.172371 0.045132 0.162718
H51   H     H_    0.632829 0.775717 0.922365 0.199335
H52   H     H_    0.263372 0.672365 0.045126 0.162710
H53   H     H_    0.587776 0.925693 0.922566 0.143194
H54   H     H_    0.361542 0.690191 0.052373 0.169425
H55   H     H_    0.087773 0.425702 0.922565 0.143175
H56   H     H_    0.861517 0.190169 0.052367 0.169328
H57   H     H_    0.577458 0.913777 0.050050 0.168867
H58   H     H_    0.367639 0.723820 0.926653 0.146244
H59   H     H_    0.077456 0.413800 0.050049 0.168864
H60   H     H_    0.867602 0.223804 0.926649 0.146033
H61   H     H_    0.629201 0.769930 0.051283 0.174065
H62   H     H_    0.269792 0.702431 0.919323 0.138179
H63   H     H_    0.129201 0.269954 0.051288 0.174113
H64   H     H_    0.769756 0.202433 0.919328 0.138187
O1    O     O_R   0.787520 0.042810 0.170440 -0.529598
O2    O     O_R   0.212480 0.042810 0.829560 -0.505177
O3    O     O_R   0.287520 0.542810 0.170440 -0.529589
O4    O     O_R   0.712480 0.542810 0.829560 -0.505359
O5    O     O_R   0.556610 0.252880 0.323980 -0.522370
O6    O     O_R   0.443390 0.252880 0.676020 -0.513273
O7    O     O_R   0.056610 0.752880 0.323980 -0.522367
O8    O     O_R   0.943390 0.752880 0.676020 -0.513267
O9    O     O_R   0.545950 0.051210 0.330860 -0.539586
O10   O     O_R   0.454050 0.051210 0.669140 -0.544163
O11   O     O_R   0.045950 0.551210 0.330860 -0.539590
O12   O     O_R   0.954050 0.551210 0.669140 -0.544157
O13   O     O_R   0.681390 0.959480 0.325510 -0.513990
O14   O     O_R   0.318610 0.959480 0.674490 -0.512373
O15   O     O_R   0.181390 0.459480 0.325510 -0.513993
O16   O     O_R   0.818610 0.459480 0.674490 -0.512357
O17   O     O_3   0.667900 0.167900 0.250060 -0.251225
O18   O     O_3   0.332100 0.167900 0.749940 -0.259939
O19   O     O_3   0.167900 0.667900 0.250060 -0.251228
O20   O     O_3   0.832100 0.667900 0.749940 -0.259920
O21   O     O_R   0.765640 0.292100 0.175020 -0.501846
O22   O     O_R   0.234360 0.292100 0.824980 -0.505261
O23   O     O_R   0.265640 0.792100 0.175020 -0.501844
O24   O     O_R   0.734360 0.792100 0.824980 -0.505276
O25   O     O_R   0.670190 0.408840 0.168540 -0.528975
O26   O     O_R   0.329810 0.408840 0.831460 -0.539179
O27   O     O_R   0.170190 0.908840 0.168540 -0.528953
O28   O     O_R   0.829810 0.908840 0.831460 -0.539173
O29   O     O_R   0.556620 0.251410 0.175160 -0.506132
O30   O     O_R   0.443380 0.251410 0.824840 -0.509477
O31   O     O_R   0.056620 0.751410 0.175160 -0.506135
O32   O     O_R   0.943380 0.751410 0.824840 -0.509466
O33   O     O_R   0.545960 0.049620 0.170320 -0.526988
O34   O     O_R   0.454040 0.049620 0.829680 -0.528579
O35   O     O_R   0.045960 0.549620 0.170320 -0.526991
O36   O     O_R   0.954040 0.549620 0.829680 -0.528601
O37   O     O_R   0.681390 0.958010 0.176690 -0.495602
O38   O     O_R   0.318610 0.958010 0.823310 -0.500285
O39   O     O_R   0.181390 0.458010 0.176690 -0.495601
O40   O     O_R   0.818610 0.458010 0.823310 -0.500269
O41   O     O_R   0.787510 0.044390 0.330970 -0.521442
O42   O     O_R   0.212490 0.044390 0.669030 -0.521883
O43   O     O_R   0.287510 0.544390 0.330970 -0.521442
O44   O     O_R   0.712490 0.544390 0.669030 -0.521925
O45   O     O_R   0.765630 0.293570 0.323840 -0.513198
O46   O     O_R   0.234370 0.293570 0.676160 -0.517506
O47   O     O_R   0.265630 0.793570 0.323840 -0.513197
O48   O     O_R   0.734370 0.793570 0.676160 -0.517510
O49   O     O_R   0.670190 0.410420 0.329080 -0.554503
O50   O     O_R   0.329810 0.410420 0.670920 -0.553702
O51   O     O_R   0.170190 0.910420 0.329080 -0.554508
O52   O     O_R   0.829810 0.910420 0.670920 -0.553689
O53   O     O_3   0.884710 0.163208 0.586441 -0.580695
C125  C     C_3   0.901739 0.138840 0.658382 0.002995
H65   H     H_    0.932612 0.053443 0.665113 0.139447
H66   H     H_    0.852480 0.134563 0.690024 0.173903
C126  C     C_3   0.947047 0.240902 0.688121 -0.369188
H67   H     H_    0.924174 0.329481 0.673543 0.218196
H68   H     H_    0.948854 0.235074 0.746967 0.067652
H69   H     H_    0.001343 0.234691 0.666730 0.118113
O54   O     O_3   0.092664 0.125292 0.426036 -0.579135
C127  C     C_3   0.072213 0.102512 0.354725 0.006059
H70   H     H_    0.048707 0.010433 0.347480 0.146321
H71   H     H_    0.118296 0.114207 0.319159 0.167761
C128  C     C_3   0.016575 0.193774 0.331979 -0.387366
H72   H     H_    0.038873 0.287099 0.332936 0.167948
H73   H     H_    0.998518 0.173122 0.276994 0.067611
H74   H     H_    0.970477 0.187782 0.367851 0.145611
O55   O     O_3   0.384708 0.663216 0.586442 -0.580704
C129  C     C_3   0.401712 0.638858 0.658391 0.002983
H75   H     H_    0.432585 0.553464 0.665135 0.139453
H76   H     H_    0.352441 0.634579 0.690014 0.173909
C130  C     C_3   0.447006 0.740926 0.688144 -0.369194
H77   H     H_    0.424158 0.829500 0.673521 0.218232
H78   H     H_    0.448759 0.735145 0.746993 0.067735
H79   H     H_    0.501320 0.734682 0.666802 0.118023
O56   O     O_3   0.592663 0.625287 0.426038 -0.579130
C131  C     C_3   0.572203 0.602502 0.354730 0.006060
H80   H     H_    0.548700 0.510420 0.347488 0.146315
H81   H     H_    0.618280 0.614200 0.319157 0.167753
C132  C     C_3   0.516558 0.693756 0.331992 -0.387371
H82   H     H_    0.538855 0.787083 0.332939 0.167933
H83   H     H_    0.498488 0.673095 0.277014 0.067613
H84   H     H_    0.470469 0.687767 0.367876 0.145620
O57   O     O_3   0.058890 0.086662 0.919113 -0.562161
C133  C     C_3   0.016542 0.106920 0.858353 -0.115137
H85   H     H_    0.959369 0.093555 0.869047 0.111293
H86   H     H_    0.033706 0.048490 0.813328 0.114263
H87   H     H_    0.024022 0.202861 0.841986 0.128038
O58   O     O_3   0.023055 0.119787 0.055489 -0.563295
C134  C     C_3   0.015518 0.129608 0.129908 -0.163040
H88   H     H_    0.056698 0.076610 0.158554 0.129216
H89   H     H_    0.961523 0.102934 0.146385 0.113563
H90   H     H_    0.022743 0.226422 0.145114 0.136013
O59   O     O_3   0.558812 0.586773 0.919165 -0.562154
C135  C     C_3   0.516737 0.606732 0.858183 -0.115442
H91   H     H_    0.459540 0.593022 0.868578 0.111347
H92   H     H_    0.534265 0.548408 0.813266 0.114503
H93   H     H_    0.524106 0.702703 0.841831 0.128029
O60   O     O_3   0.522979 0.619794 0.055526 -0.563223
C136  C     C_3   0.515529 0.629581 0.129952 -0.163040
H94   H     H_    0.556736 0.576566 0.158542 0.129244
H95   H     H_    0.461554 0.602904 0.146485 0.113570
H96   H     H_    0.522774 0.726387 0.145164 0.136016

loop_
_geom_bond_atom_site_label_1
_geom_bond_atom_site_label_2
_ccdc_geom_bond_type
Cr10  O10   S    
Cr2   O46   S    
C134  H88   S    
C102  O46   A    
C73   C93   S    
Cr4   O24   S    
C75   C95   S    
C136  H94   S    
Cr2   O2    S    
C132  H84   S    
C45   O29   A    
C64   H16   S    
C79   C99   A    
C16   C20   A    
C111  O15   A    
C22   C38   S    
C130  H79   S    
C23   C43   A    
C33   H53   S    
C125  H66   S    
C113  C122  A    
C70   C74   A    
C96   H32   S    
C88   O56   S    
C107  O7    A    
C44   C92   S    
C26   H42   S    
C59   C60   A    
C30   H46   S    
C47   O35   A    
C25   C29   A    
C47   C116  S    
Cr5   O49   S    
C90   O38   A    
C27   C31   A    
C7    C119  A    
C28   C32   A    
C68   C101  S    
C25   C41   A    
C6    H38   S    
C39   H59   S    
C28   C44   A    
C17   C21   A    
C37   H57   S    
C19   C23   A    
C66   C82   A    
C110  O42   A    
C68   C72   A    
Cr1   O1    S    
C28   H44   S    
C135  H91   S    
Cr12  O40   S    
Cr4   O44   S    
C129  H76   S    
O60   C136  S    
C2    O26   A    
C136  H96   S    
C111  O43   A    
C62   H14   S    
C133  H87   S    
C64   H10   S    
C50   C57   A    
C66   C103  S    
C27   H43   S    
C106  O6    A    
C49   C106  S    
C76   C100  A    
C9    O57   S    
C103  O51   A    
C19   C35   S    
C76   C96   S    
C133  H86   S    
C66   C70   A    
C49   C53   A    
C51   C55   A    
Cr9   O17   S    
C79   H19   S    
C112  O44   A    
Cr6   O26   S    
C8    C10   A    
C42   C90   S    
C61   H13   S    
C94   H34   S    
Cr2   O18   S    
C90   O2    A    
C106  O10   A    
C41   C89   S    
C67   C83   A    
C104  O52   A    
C116  C123  A    
Cr9   O9    S    
C108  O8    A    
Cr7   O7    S    
C123  C124  A    
C74   C98   A    
C53   C54   A    
C11   O59   S    
C46   O34   A    
C1    O21   A    
C134  H89   S    
O54   C127  S    
C82   H22   S    
C123  H3    S    
C126  H67   S    
C121  H1    S    
Cr6   O18   S    
C77   H17   S    
Cr12  O12   S    
C53   C61   S    
C45   C114  S    
C135  H93   S    
C55   C63   S    
Cr2   O42   S    
C50   C105  S    
C38   H62   S    
C77   C97   A    
C9    C10   A    
Cr4   O20   S    
C59   H7    S    
C62   H12   S    
O56   C131  S    
Cr9   O37   S    
C108  O12   A    
Cr7   O51   S    
C34   H54   S    
Cr3   O43   S    
C21   C41   A    
C125  C126  S    
C88   H28   S    
C116  C120  A    
C87   C95   S    
Cr8   O20   S    
Cr6   O6    S    
Cr7   O27   S    
C97   C109  S    
C99   C111  S    
C75   C99   A    
Cr10  O34   S    
C114  C118  A    
C128  H73   S    
C113  C117  A    
C26   C30   A    
C115  C119  A    
C69   C85   S    
C26   C42   A    
Cr7   O31   S    
C39   H63   S    
C92   O40   A    
C35   H55   S    
C46   C113  S    
C36   H56   S    
C5    H37   S    
C101  O49   A    
C95   H31   S    
C8    H40   S    
C15   C31   A    
C127  H70   S    
Cr1   O21   S    
C16   C32   A    
C13   C17   A    
C126  H69   S    
C117  C118  A    
C57   C58   A    
C95   H35   S    
Cr12  O36   S    
C130  H78   S    
C112  O16   A    
C61   C62   S    
C63   C64   S    
Cr5   O25   S    
C131  H80   S    
C51   C60   A    
C63   H9    S    
Cr11  O11   S    
C55   C56   A    
C88   C96   S    
C98   C110  S    
C85   H25   S    
C74   C94   S    
Cr1   O45   S    
C80   C84   A    
C101  O45   A    
C94   H30   S    
C127  C128  S    
C84   H24   S    
Cr3   O19   S    
C15   C19   A    
C93   H33   S    
C50   C54   A    
C13   C29   A    
C45   O33   A    
C5    C11   A    
Cr8   O28   S    
C6    C12   A    
C25   H41   S    
C107  O11   A    
Cr6   O30   S    
C2    O22   A    
C105  O9    A    
O58   C134  S    
Cr4   O4    S    
Cr5   O17   S    
C114  C121  A    
C52   C107  S    
C104  O48   A    
C131  C132  S    
C3    O23   A    
C69   C73   A    
C92   O4    A    
C135  H92   S    
C102  O50   A    
O55   C129  S    
C46   O30   A    
C129  C130  S    
C17   C33   S    
C136  H95   S    
C81   H21   S    
C68   C84   A    
C89   O37   A    
C122  H2    S    
C10   O58   S    
O59   C135  S    
C78   H18   S    
C54   C62   S    
Cr10  O18   S    
C33   C37   S    
C38   H58   S    
C35   C39   S    
O57   C133  S    
Cr5   O5    S    
C58   H6    S    
C65   C81   A    
C109  O41   A    
C1    C16   S    
Cr9   O33   S    
C2    C15   S    
C63   H15   S    
C121  C122  A    
C3    C14   S    
C71   C87   S    
C100  C112  S    
C24   C44   A    
Cr11  O35   S    
C132  H83   S    
C3    O27   A    
C1    O25   A    
C115  C124  A    
C110  O14   A    
C124  H4    S    
C119  C120  A    
C105  O5    A    
Cr12  O20   S    
C40   H64   S    
Cr10  O14   S    
C57   H5    S    
C18   C22   A    
C61   H11   S    
C60   H8    S    
C79   C83   A    
O53   C125  S    
C65   C69   A    
C67   C71   A    
C4    O28   A    
C103  O47   A    
Cr10  O38   S    
C20   C36   S    
C27   C43   A    
C21   C37   S    
C77   C81   A    
C129  H75   S    
Cr3   O3    S    
C91   O3    A    
Cr1   O17   S    
C87   H27   S    
C14   C18   A    
C72   C76   A    
C73   C97   A    
C125  H65   S    
C29   H45   S    
C109  O13   A    
C133  H85   S    
C47   O31   A    
Cr5   O29   S    
Cr7   O19   S    
C4    C13   S    
C78   C82   A    
C86   C94   S    
Cr11  O15   S    
C20   C24   A    
C51   C108  S    
C7    H39   S    
C78   C98   A    
Cr1   O41   S    
C86   H26   S    
C37   H61   S    
C128  H72   S    
C86   O54   S    
Cr3   O23   S    
C93   H29   S    
C12   O60   S    
C80   C100  A    
C85   C93   S    
C14   C30   A    
Cr8   O32   S    
C72   C88   S    
C80   H20   S    
Cr6   O50   S    
Cr4   O48   S    
C36   C40   S    
C134  H90   S    
C127  H71   S    
C132  H82   S    
C4    O24   A    
C43   C91   S    
C49   C58   A    
C5    C117  A    
C126  H68   S    
C52   C59   A    
C35   H49   S    
Cr11  O19   S    
C56   C64   S    
C130  H77   S    
C83   H23   S    
C33   H51   S    
C34   H52   S    
C18   C34   S    
C48   O36   A    
C48   C115  S    
Cr8   O8    S    
C131  H81   S    
C70   C86   S    
Cr8   O52   S    
C40   H60   S    
C7    C9    A    
C8    C120  A    
C31   H47   S    
C34   C38   S    
C32   H48   S    
C11   C12   A    
Cr2   O22   S    
C89   O1    A    
C85   O53   S    
Cr9   O13   S    
C87   O55   S    
C71   C75   A    
C22   C42   A    
C23   C39   S    
C24   C40   S    
Cr11  O39   S    
C36   H50   S    
C128  H74   S    
C48   O32   A    
Cr3   O47   S    
C96   H36   S    
C91   O39   A    
C65   C104  S    
C6    C118  A    
C52   C56   A    
C67   C102  S    
Cr12  O16   S    
