data_mof_unit_16265.cif
_audit_creation_date              2012-12-10T17:55:06-0500
_audit_creation_method            fapswitch 2.2
_symmetry_space_group_name_H-M    P1
_symmetry_Int_Tables_number       1
_space_group_crystal_system       triclinic
_cell_length_a                    8.728469
_cell_length_b                    10.819701
_cell_length_c                    9.518568
_cell_angle_alpha                 89.681493
_cell_angle_beta                  97.928102
_cell_angle_gamma                 90.380298
_cell_volume                      890.306672969

loop_
_atom_site_label
_atom_site_type_symbol
_atom_type_description
_atom_site_fract_x
_atom_site_fract_y
_atom_site_fract_z
_atom_type_partial_charge
C1    C     C_R   0.501315 0.262258 0.500586 0.829755
C2    C     C_R   0.498474 0.737872 0.499252 0.852689
C3    C     C_R   0.203721 0.499781 0.463723 0.886788
C4    C     C_R   0.796267 0.499667 0.536306 0.868254
C5    C     C_2   0.037884 0.499695 0.443757 -0.362080
C6    C     C_2   0.962085 0.498984 0.556359 -0.375850
C7    C     C_R   0.437901 0.066238 0.379297 -0.346038
C8    C     C_R   0.564605 0.934302 0.620248 -0.346338
C9    C     C_R   0.438364 0.937782 0.374827 0.447068
C10   C     C_R   0.570480 0.062459 0.621947 0.450542
C11   C     C_R   0.499383 0.871814 0.497745 -0.175077
C12   C     C_R   0.503738 0.128540 0.501331 -0.181373
C13   C     C_R   0.394101 0.431482 0.061406 -0.027408
C14   C     C_R   0.606257 0.568160 0.938629 -0.042619
C15   C     C_R   0.394197 0.431457 0.912611 0.000995
C16   C     C_R   0.606468 0.567881 0.087464 -0.027316
Cu1   Cu    Cu3+1 0.500000 0.500020 0.640660 0.948160
Cu2   Cu    Cu3+1 0.500000 0.499980 0.359340 0.950122
H1    H     H_    0.977931 0.500500 0.335750 0.172174
H2    H     H_    0.021998 0.498024 0.664386 0.171361
H3    H     H_    0.382229 0.117336 0.288260 0.173679
H4    H     H_    0.613518 0.883820 0.714358 0.173606
H5    H     H_    0.309444 0.376379 0.107049 0.118425
H6    H     H_    0.690867 0.623293 0.892978 0.121071
H7    H     H_    0.309603 0.376322 0.846207 0.119301
H8    H     H_    0.691275 0.622781 0.153887 0.117865
N1    N     N_R   0.500040 0.500030 0.852080 -0.159307
N2    N     N_R   0.499960 0.499970 0.147920 -0.158611
O1    O     O_R   0.499990 0.319660 0.618740 -0.538864
O2    O     O_R   0.500010 0.680340 0.381260 -0.553167
O3    O     O_R   0.499990 0.319630 0.381170 -0.596975
O4    O     O_R   0.500010 0.680370 0.618830 -0.596364
O5    O     O_R   0.274840 0.500010 0.591370 -0.586976
O6    O     O_R   0.725160 0.499990 0.408630 -0.584761
O7    O     O_R   0.274830 0.499980 0.353800 -0.587040
O8    O     O_R   0.725170 0.500020 0.646200 -0.598249
O9    O     O_3   0.361243 0.877045 0.257858 -0.567428
C17   C     C_3   0.446065 0.890050 0.142356 0.085357
H9    H     H_    0.561700 0.846087 0.167476 0.138681
H10   H     H_    0.461715 0.988838 0.113940 0.140252
C18   C     C_3   0.358239 0.826375 0.013233 -0.747823
H11   H     H_    0.245999 0.873284 0.980983 0.236035
H12   H     H_    0.427268 0.830422 0.923605 0.203674
H13   H     H_    0.335652 0.728156 0.038249 0.257549
O10   O     O_3   0.634965 0.122197 0.744221 -0.565702
C19   C     C_3   0.793335 0.143778 0.736563 0.081638
H14   H     H_    0.857045 0.054734 0.739510 0.133143
H15   H     H_    0.810239 0.195760 0.638307 0.124408
C20   C     C_3   0.861926 0.220944 0.863226 -0.764768
H16   H     H_    0.850890 0.170649 0.963426 0.240219
H17   H     H_    0.986309 0.239497 0.857764 0.182891
H18   H     H_    0.800269 0.310468 0.862856 0.264430

loop_
_geom_bond_atom_site_label_1
_geom_bond_atom_site_label_2
_ccdc_geom_bond_type
C16   N2    A    
C8    H4    S    
C4    O8    A    
C13   N2    A    
O9    C17   S    
C5    H1    S    
Cu1   O8    S    
C14   N1    A    
C18   H12   S    
C18   H11   S    
C15   N1    A    
C13   C15   A    
C3    O7    A    
C2    O2    A    
C20   H18   S    
C10   O10   S    
C9    O9    S    
Cu1   Cu2   S    
Cu2   N2    S    
O10   C19   S    
C17   H10   S    
C9    C11   A    
C19   C20   S    
C5    C6    D    
C1    C12   S    
Cu1   O5    S    
C8    C11   A    
Cu2   O2    S    
C2    C11   S    
C10   C12   A    
C1    O1    A    
C4    O6    A    
Cu2   O6    S    
C16   H8    S    
C7    C12   A    
C18   H13   S    
C14   C16   A    
C15   H7    S    
C4    C6    S    
C3    O5    A    
Cu1   N1    S    
C19   H15   S    
Cu1   O1    S    
C1    O3    A    
C6    H2    S    
C13   H5    S    
C17   C18   S    
C2    O4    A    
C20   H16   S    
Cu2   O7    S    
C14   H6    S    
C7    C9    A    
Cu1   O4    S    
C19   H14   S    
Cu2   O3    S    
C3    C5    S    
C7    H3    S    
C8    C10   A    
C20   H17   S    
C17   H9    S    
