data_mof_unit_34973.cif
_audit_creation_date              2012-12-10T17:56:42-0500
_audit_creation_method            fapswitch 2.2
_symmetry_space_group_name_H-M    P1
_symmetry_Int_Tables_number       1
_space_group_crystal_system       triclinic
_cell_length_a                    10.877402
_cell_length_b                    9.662969
_cell_length_c                    11.020321
_cell_angle_alpha                 93.85215
_cell_angle_beta                  86.601595
_cell_angle_gamma                 87.342433
_cell_volume                      1152.19952803

loop_
_atom_site_label
_atom_site_type_symbol
_atom_type_description
_atom_site_fract_x
_atom_site_fract_y
_atom_site_fract_z
_atom_type_partial_charge
C1    C     C_R   0.262464 0.501405 0.498000 0.822858
C2    C     C_R   0.737616 0.497842 0.498711 0.889650
C3    C     C_R   0.931328 0.621460 0.485533 -0.050267
C4    C     C_R   0.058501 0.622908 0.483127 0.001224
C5    C     C_R   0.413137 0.084735 0.567481 0.367228
C6    C     C_R   0.592095 0.063161 0.438338 0.397813
C7    C     C_R   0.405585 0.939247 0.555964 0.447612
C8    C     C_R   0.590005 0.915828 0.435093 0.371992
C9    C     C_R   0.500811 0.495403 0.262207 0.852363
C10   C     C_R   0.491573 0.504662 0.738093 0.895943
C11   C     C_R   0.282598 0.595923 0.152683 0.191211
C12   C     C_R   0.268973 0.591366 0.908854 0.268699
C13   C     C_R   0.175446 0.546760 0.104485 0.235347
C14   C     C_R   0.164354 0.557907 0.979868 0.314156
C15   C     C_R   0.386570 0.558898 0.951082 -0.115530
C16   C     C_R   0.391577 0.556090 0.079292 -0.084857
C17   C     C_R   0.491952 0.487194 0.128276 -0.188733
C18   C     C_R   0.492127 0.511761 0.873198 -0.179157
C19   C     C_R   0.580381 0.410432 0.047655 0.255410
C20   C     C_R   0.591706 0.441678 0.924466 0.308007
C21   C     C_R   0.068422 0.376229 0.511446 -0.097013
C22   C     C_R   0.940996 0.374176 0.511816 -0.050940
C23   C     C_R   0.871662 0.496789 0.498364 -0.008576
C24   C     C_R   0.128183 0.501003 0.497513 -0.028890
Cu1   Cu    Cu3+1 0.500000 0.640660 0.500000 1.156932
Cu2   Cu    Cu3+1 0.500000 0.359340 0.500000 1.134681
H1    H     H_    0.119661 0.279579 0.521818 0.216758
H2    H     H_    0.897186 0.277309 0.523697 0.210031
H3    H     H_    0.880414 0.718340 0.475610 0.206932
H4    H     H_    0.101595 0.718635 0.467184 0.240071
N1    N     N_R   0.500000 0.852070 0.500000 -0.276200
N2    N     N_R   0.500000 0.147940 0.500000 -0.279011
O1    O     O_R   0.319640 0.618740 0.499990 -0.509450
O2    O     O_R   0.680360 0.618740 0.500010 -0.574326
O3    O     O_R   0.319620 0.381170 0.499990 -0.571590
O4    O     O_R   0.680380 0.381170 0.500010 -0.528289
O5    O     O_R   0.500000 0.618810 0.319650 -0.503190
O6    O     O_R   0.500000 0.618810 0.680350 -0.521378
O7    O     O_R   0.499970 0.381240 0.319640 -0.533088
O8    O     O_R   0.500030 0.381240 0.680360 -0.525944
S1    S     S_3+6 0.654362 0.255685 0.091934 0.140895
O9    O     O_2   0.762114 0.294998 0.163739 -0.138661
O10   O     O_2   0.565584 0.177895 0.167945 -0.231823
O11   O     O_3   0.704478 0.146298 0.972181 -0.410789
H5    H     H_    0.628626 0.115922 0.934934 0.369871
S2    S     S_3+6 0.732870 0.400028 0.835440 0.074303
O12   O     O_2   0.716616 0.280859 0.743860 -0.304886
O13   O     O_2   0.768122 0.524929 0.769758 -0.278819
O14   O     O_3   0.847853 0.355532 0.922653 -0.370120
H6    H     H_    0.908492 0.298958 0.867143 0.398658
S3    S     S_3+6 0.264428 0.775549 0.200755 0.094970
O15   O     O_2   0.329015 0.807341 0.314220 -0.219439
O16   O     O_2   0.319289 0.859993 0.103378 -0.192526
O17   O     O_3   0.114464 0.825339 0.228563 -0.450146
H7    H     H_    0.082675 0.838801 0.147615 0.411683
S4    S     S_3+6 0.244639 0.736363 0.826332 0.104776
O18   O     O_2   0.362035 0.806821 0.798334 -0.230718
O19   O     O_2   0.186100 0.684214 0.714032 -0.273621
O20   O     O_3   0.145030 0.851797 0.905866 -0.449103
H8    H     H_    0.126690 0.923801 0.848737 0.413397
Cl1   Cl    Cl    0.046175 0.515966 0.200218 -0.471152
Cl2   Cl    Cl    0.017078 0.572549 0.922621 -0.347994
Cl3   Cl    Cl    0.309477 0.182016 0.673758 -0.530496
Cl4   Cl    Cl    0.724098 0.131663 0.372065 -0.401639
Cl5   Cl    Cl    0.253852 0.890810 0.569963 -0.438429
Cl6   Cl    Cl    0.694582 0.817998 0.330418 -0.426681

loop_
_geom_bond_atom_site_label_1
_geom_bond_atom_site_label_2
_ccdc_geom_bond_type
Cu1   N1    S    
C15   C18   A    
C6    N2    A    
S4    O20   S    
Cu2   N2    S    
C13   C14   A    
Cu1   O6    S    
C7    Cl5   S    
C13   Cl1   S    
C11   C13   A    
C11   C16   A    
C3    C23   A    
C19   C20   A    
C12   C15   A    
Cu1   O2    S    
C10   O6    A    
S3    O17   S    
C2    O2    A    
Cu1   O1    S    
C9    O5    A    
C21   H1    S    
C1    O1    A    
O20   H8    S    
C22   H2    S    
C21   C22   A    
S4    O18   D    
C8    Cl6   S    
S1    O10   D    
S2    O14   S    
Cu2   O8    S    
C12   S4    S    
C10   C18   S    
Cu2   O4    S    
C17   C19   A    
C12   C14   A    
C18   C20   A    
C2    O4    A    
C22   C23   A    
C4    C24   A    
S1    O11   S    
S2    O13   D    
Cu2   O7    S    
C7    N1    A    
C15   C16   A    
C6    Cl4   S    
S3    O15   D    
C14   Cl2   S    
C19   S1    S    
Cu2   O3    S    
C9    O7    A    
C3    H3    S    
C11   S3    S    
O11   H5    S    
C5    Cl3   S    
C1    C24   S    
C10   O8    A    
O14   H6    S    
S1    O9    D    
C21   C24   A    
C9    C17   S    
C2    C23   S    
C5    C7    A    
C1    O3    A    
O17   H7    S    
C6    C8    A    
Cu1   O5    S    
Cu1   Cu2   S    
S2    O12   D    
C8    N1    A    
C5    N2    A    
C4    H4    S    
C3    C4    A    
S4    O19   D    
C16   C17   A    
S3    O16   D    
C20   S2    S    
