data_mof_unit_68487.cif
_audit_creation_date              2013-03-05T15:41:24-0500
_audit_creation_method            fapswitch 2.2
_symmetry_space_group_name_H-M    P1
_symmetry_Int_Tables_number       1
_space_group_crystal_system       triclinic
_cell_length_a                    8.310791
_cell_length_b                    15.011212
_cell_length_c                    15.021193
_cell_angle_alpha                 97.849155
_cell_angle_beta                  99.539347
_cell_angle_gamma                 98.032897
_cell_volume                      1805.27776163

loop_
_atom_site_label
_atom_site_type_symbol
_atom_site_description
_atom_site_fract_x
_atom_site_fract_y
_atom_site_fract_z
_atom_type_partial_charge
P1    P     P_3+3 0.004160 0.709210 0.580280 0.480386
O1    O     O_2   0.174040 0.723040 0.553850 -0.304294
O2    O     O_3   0.901550 0.609570 0.550800 -0.443628
O3    O     O_3   0.370320 0.665070 0.388210 -0.358584
O4    O     O_2   0.294004 0.822786 0.455593 -0.382739
O5    O     O_3   0.038967 0.742049 0.699434 -0.583005
O6    O     O_3   0.325128 0.810220 0.285945 -0.493379
C1    C     C_3   0.421309 0.893878 0.173113 -0.746673
P2    P     P_3+3 0.305010 0.425580 0.290930 0.478863
P3    P     P_3+3 0.886652 0.614840 0.222764 0.564919
O7    O     O_2   0.134800 0.452800 0.278160 -0.331641
O8    O     O_3   0.937630 0.618610 0.340820 -0.358766
O9    O     O_2   0.006028 0.560053 0.178707 -0.306663
O10   O     O_3   0.279301 0.305594 0.270133 -0.629542
O11   O     O_3   0.934454 0.725077 0.198503 -0.452890
C2    C     C_3   0.911917 0.787334 0.272410 0.493947
H1    H     H_    0.012615 0.791278 0.332163 0.143052
C3    C     C_3   0.916954 0.881488 0.245177 -0.828714
H2    H     H_    0.042207 0.907204 0.233438 0.278957
C4    C     C_3   0.653708 0.299407 0.252707 0.252685
C5    C     C_3   0.553410 0.236948 0.165401 -0.679116
H3    H     H_    0.631681 0.226253 0.113002 0.183291
Ba1   Ba    Ba6+2 0.154720 0.543770 0.458160 1.608301
C6    C     C_3   0.145833 0.692908 0.746495 0.325999
H4    H     H_    0.227951 0.664355 0.703545 0.121620
C7    C     C_3   0.252105 0.758481 0.829046 -0.618048
H5    H     H_    0.331418 0.721133 0.872288 0.231672
C8    C     C_3   0.115553 0.262977 0.262294 0.420594
C9    C     C_3   0.029221 0.247627 0.161757 -0.784772
P4    P     P_3+3 0.806120 0.290780 0.419650 0.496733
O12   O     O_2   0.636250 0.276900 0.446120 -0.368367
O13   O     O_3   0.908740 0.390420 0.449120 -0.342326
O14   O     O_3   0.439970 0.334920 0.611710 -0.364052
O15   O     O_3   0.763812 0.252543 0.300586 -0.599674
P5    P     P_3+3 0.916747 0.375144 0.774697 0.455846
O16   O     O_3   0.402050 0.547860 0.609740 -0.338350
O17   O     O_3   0.872650 0.381380 0.659100 -0.390639
O18   O     O_2   0.805313 0.434006 0.821137 -0.350414
O19   O     O_3   0.844382 0.263141 0.786917 -0.548587
Ba2   Ba    Ba6+2 0.655440 0.456220 0.541760 1.597850
P6    P     P_3+3 0.407323 0.784439 0.393567 0.486398
C10   C     C_3   0.445873 0.817190 0.230070 0.442219
O20   O     O_3   0.408230 0.452130 0.390190 -0.379002
C11   C     C_3   0.696476 0.735007 0.795829 0.390501
H6    H     H_    0.786468 0.700953 0.763849 0.095219
C12   C     C_3   0.731247 0.834237 0.781672 -0.736247
H7    H     H_    0.714753 0.838166 0.707550 0.232918
P7    P     P_3+3 0.501703 0.577178 0.725425 0.451348
O21   O     O_2   0.675480 0.547140 0.721810 -0.394759
O22   O     O_3   0.532216 0.697219 0.753194 -0.555597
H8    H     H_    0.887642 0.929783 0.300560 0.224096
C13   C     C_3   0.886498 0.203505 0.716897 0.299781
H9    H     H_    0.801740 0.202660 0.651200 0.168828
H10   H     H_    0.015323 0.224616 0.708051 0.002767
C14   C     C_3   0.869813 0.106563 0.739151 -0.730908
P8    P     P_3+3 0.395226 0.215894 0.601486 0.447921
C15   C     C_3   0.397395 0.192358 0.771600 0.167966
O23   O     O_2   0.489543 0.176239 0.529709 -0.387664
O24   O     O_3   0.488406 0.179123 0.700919 -0.550590
H11   H     H_    0.313814 0.119386 0.875544 0.189080
C16   C     C_3   0.395421 0.110222 0.824624 -0.446188
C17   C     C_R   0.627589 0.831238 0.449969 0.144862
C18   C     C_R   0.888288 0.793104 0.524536 0.229877
C19   C     C_R   0.076364 0.234606 0.523104 -0.505762
C20   C     C_R   0.174936 0.173493 0.555320 0.242826
C21   C     C_R   0.111785 0.080672 0.544232 -0.315870
C22   C     C_R   0.946258 0.045941 0.500928 0.060865
C23   C     C_R   0.848064 0.109045 0.464475 0.036627
C24   C     C_R   0.875141 0.950825 0.492959 0.031502
C25   C     C_R   0.705062 0.922074 0.451580 0.009526
C26   C     C_R   0.614875 0.984969 0.414456 -0.228272
C27   C     C_R   0.686407 0.074869 0.417481 -0.068122
C28   C     C_R   0.965624 0.883447 0.525763 -0.248211
C29   C     C_R   0.716731 0.771646 0.494642 -0.477787
C30   C     C_R   0.914462 0.204612 0.476014 0.223190
H12   H     H_    0.195582 0.037516 0.569737 0.147223
H13   H     H_    0.609682 0.117634 0.384555 0.158799
C31   C     C_R   0.233452 0.460568 0.763644 -0.456460
C32   C     C_R   0.139881 0.418728 0.820692 0.161121
C33   C     C_R   0.213963 0.416557 0.911758 -0.113824
C34   C     C_R   0.367569 0.475619 0.951837 0.165072
C35   C     C_R   0.449155 0.524634 0.893245 -0.258992
C36   C     C_R   0.387722 0.513908 0.799669 0.218274
C37   C     C_R   0.607556 0.534787 0.086619 -0.311210
C38   C     C_R   0.669072 0.560999 0.180436 0.193058
C39   C     C_R   0.414048 0.484750 0.212556 0.267068
C40   C     C_R   0.344559 0.470891 0.119538 -0.120321
C41   C     C_R   0.440526 0.492626 0.053453 0.122650
C42   C     C_R   0.570293 0.537414 0.243446 -0.406407
H14   H     H_    0.693211 0.547269 0.041324 0.165115
H15   H     H_    0.214451 0.444540 0.101471 0.136390
H16   H     H_    0.561129 0.572533 0.918866 0.124445
H17   H     H_    0.620663 0.552882 0.316051 0.162184
C43   C     C_2   0.437599 0.728524 0.168421 0.571586
H18   H     H_    0.533523 0.720137 0.128503 -0.029007
O25   O     O_2   0.321969 0.666621 0.161120 -0.495841
C44   C     C_2   0.486089 0.144753 0.183760 0.707433
H19   H     H_    0.569902 0.103217 0.214091 0.036292
O26   O     O_2   0.338508 0.114694 0.162196 -0.622493
H20   H     H_    0.450838 0.270294 0.135340 0.247908
C45   C     C_2   0.044158 0.615820 0.775849 0.369254
H21   H     H_    0.973705 0.561359 0.723527 0.112920
O27   O     O_2   0.040122 0.612605 0.856319 -0.583248
H22   H     H_    0.332087 0.812482 0.805329 0.251785
H23   H     H_    0.172452 0.791741 0.871345 0.235007
H24   H     H_    0.049617 0.303260 0.306625 0.121587
C46   C     C_2   0.118980 0.173132 0.295838 0.527730
H25   H     H_    0.232100 0.159858 0.335650 0.037164
O28   O     O_2   0.994268 0.115675 0.281845 -0.605330
C47   C     C_2   0.262366 0.878853 0.103679 0.714164
H26   H     H_    0.239798 0.930747 0.061630 0.066910
O29   O     O_2   0.158807 0.810247 0.093243 -0.501568
H27   H     H_    0.019953 0.313874 0.138163 0.208348
H28   H     H_    0.902942 0.208315 0.152514 0.230280
H29   H     H_    0.099667 0.208837 0.118091 0.295882
H30   H     H_    0.572547 0.836596 0.270790 -0.067987
H31   H     H_    0.526235 0.905100 0.136459 0.173110
C48   C     C_2   0.724572 0.730529 0.896604 0.455206
H32   H     H_    0.816963 0.692932 0.925608 0.082211
O30   O     O_2   0.644488 0.768808 0.946578 -0.577018
H33   H     H_    0.646200 0.874892 0.812262 0.267774
H34   H     H_    0.861239 0.864282 0.813491 0.259345
H35   H     H_    0.425206 0.957627 0.220801 0.185673
H36   H     H_    0.920362 0.062397 0.689008 0.195465
C49   C     C_2   0.961596 0.104626 0.833460 0.741025
H37   H     H_    0.055176 0.161505 0.868832 0.026119
O31   O     O_2   0.934077 0.038149 0.870440 -0.548368
H38   H     H_    0.737062 0.078180 0.733066 0.217898
H39   H     H_    0.266148 0.194981 0.744749 -0.017613
C50   C     C_2   0.469751 0.283068 0.831275 0.580276
H40   H     H_    0.483614 0.343400 0.799424 0.063183
O32   O     O_2   0.514312 0.290407 0.913980 -0.603728
C51   C     C_2   0.562710 0.103285 0.877353 0.610508
H41   H     H_    0.670419 0.152702 0.876641 0.086823
O33   O     O_2   0.577750 0.043263 0.923932 -0.559938
C52   C     C_2   0.327843 0.022282 0.759520 0.578678
H42   H     H_    0.393477 0.000040 0.705963 0.033345
O34   O     O_2   0.200237 0.974952 0.766698 -0.577774
C53   C     C_2   0.623697 0.695405 0.525836 0.699901
H43   H     H_    0.627717 0.625708 0.498145 0.052727
O35   O     O_2   0.529085 0.711321 0.577484 -0.518380
H44   H     H_    0.485659 0.965893 0.383438 0.167058
H45   H     H_    0.095085 0.899793 0.555915 0.178388
H46   H     H_    0.129614 0.305818 0.530294 0.177347
C54   C     C_2   0.139724 0.343568 0.956659 0.386598
H47   H     H_    0.006992 0.328832 0.952456 0.086653
O36   O     O_2   0.226833 0.296926 0.996717 -0.589624
H48   H     H_    0.791262 0.767135 0.292771 -0.082283
H49   H     H_    0.181066 0.457171 0.692102 0.153532
H50   H     H_    0.824869 0.878410 0.181724 0.254506
H51   H     H_    0.568484 0.324684 0.295089 0.151597
C55   C     C_2   0.753326 0.378050 0.227146 0.421861
H52   H     H_    0.761516 0.382892 0.156509 0.018869
O37   O     O_2   0.830805 0.437632 0.287975 -0.497099

loop_
_geom_bond_atom_site_label_1
_geom_bond_atom_site_label_2
_geom_bond_distance
_ccdc_geom_bond_type
C40   C41   1.416373 A    
P3    C38   1.843206 S    
C45   H21   1.080317 S    
C40   H15   1.073877 S    
C53   O35   1.217088 D    
O2    Ba1   2.918035 S    
O19   C13   1.408035 S    
C9    H28   1.106870 S    
C54   H47   1.083817 S    
C16   C51   1.506369 S    
C13   H9    1.110814 S    
C23   C30   1.439338 A    
O8    Ba1   2.770781 S    
C7    H5    1.109748 S    
C15   H39   1.106581 S    
C8    C9    1.532370 S    
P5    O17   1.732406 S    
C6    C7    1.532070 S    
C6    C45   1.495681 S    
O17   Ba2   2.771383 S    
P1    O2    1.580485 S    
P3    O11   1.748701 S    
P4    O12   1.523491 D    
C15   O24   1.410449 S    
O3    P6    1.763591 S    
C8    C46   1.505071 S    
O11   C2    1.405495 S    
C35   H16   1.072295 S    
O12   Ba2   2.843067 S    
C17   C25   1.419462 A    
P1    O1    1.523278 D    
O6    C10   1.412859 S    
O7    Ba1   2.825383 S    
C48   H32   1.084113 S    
C9    H27   1.108641 S    
C7    H22   1.110245 S    
C44   O26   1.219255 D    
C47   H26   1.084859 S    
C31   C36   1.393755 A    
Ba2   O20   2.790089 S    
C14   C49   1.499611 S    
O6    P6    1.763113 S    
C11   C12   1.527768 S    
C2    H1    1.110024 S    
C1    H31   1.111463 S    
C46   H25   1.086144 S    
C12   H33   1.111200 S    
C24   C28   1.434277 A    
C25   C26   1.402569 A    
C13   C14   1.529853 S    
C4    O15   1.396207 S    
O14   P8    1.753483 S    
P7    O22   1.765579 S    
C21   C22   1.413397 A    
C9    H29   1.109176 S    
O5    C6    1.396463 S    
C45   O27   1.222076 D    
C5    H3    1.110327 S    
C46   O28   1.220969 D    
C43   H18   1.084806 S    
C37   H14   1.078354 S    
P6    C17   1.877857 S    
P7    C36   1.852334 S    
P1    C18   1.890534 S    
C7    H23   1.111905 S    
C54   O36   1.220134 D    
C13   H10   1.108237 S    
C3    H8    1.108527 S    
C44   H19   1.084116 S    
C47   O29   1.220398 D    
P2    O20   1.560776 S    
O14   Ba2   2.803779 S    
P4    O15   1.762537 S    
C22   C23   1.439692 A    
C15   C50   1.509425 S    
O16   Ba2   2.916929 S    
P5    O18   1.549027 D    
C6    H4    1.103579 S    
C52   O34   1.220384 D    
C8    H24   1.101341 S    
O3    Ba1   2.804438 S    
C38   C42   1.401050 A    
C39   C40   1.395945 A    
P2    Ba1   3.385247 S    
C19   H46   1.081963 S    
C35   C36   1.392736 A    
C34   C35   1.418080 A    
C4    C55   1.477335 S    
C39   C42   1.392705 A    
H11   C16   1.110512 S    
C22   C24   1.447862 A    
C50   O32   1.221229 D    
P2    O10   1.761803 S    
C27   H13   1.076997 S    
C1    C47   1.509775 S    
P2    C39   1.846708 S    
C5    C44   1.497800 S    
P8    C20   1.835960 S    
C11   C48   1.505178 S    
C23   C27   1.400219 A    
C21   H12   1.075599 S    
C4    C5    1.541803 S    
P4    Ba2   3.389174 S    
C37   C38   1.398464 A    
C43   O25   1.219287 D    
P2    O7    1.515850 D    
P3    O8    1.744787 S    
C26   H44   1.078931 S    
C10   H30   1.104298 S    
C33   C54   1.478803 S    
C55   O37   1.212553 D    
O2    Ba2   2.829785 S    
P1    Ba1   3.388687 S    
C49   H37   1.081538 S    
O1    Ba1   2.842515 S    
C11   H6    1.100140 S    
C51   O33   1.221336 D    
C28   H45   1.075782 S    
C11   O22   1.410700 S    
C5    H20   1.111100 S    
O4    P6    1.543447 D    
C12   H7    1.109751 S    
P7    O21   1.579036 D    
C10   C43   1.500148 S    
Ba1   O20   2.917715 S    
C17   C29   1.408446 A    
C37   C41   1.419445 A    
C1    C10   1.541319 S    
C33   C34   1.435729 A    
P3    O9    1.547776 D    
C53   H43   1.079002 S    
C4    H51   1.099778 S    
C1    H35   1.107403 S    
C15   C16   1.556187 S    
C18   C29   1.399342 A    
C18   C28   1.413604 A    
C29   C53   1.465082 S    
P8    O24   1.759686 S    
C2    H48   1.110388 S    
C19   C20   1.395264 A    
C50   H40   1.081595 S    
C26   C27   1.388060 A    
C20   C21   1.395667 A    
Ba1   O13   2.829137 S    
P4    O13   1.580504 S    
P4    C30   1.890130 S    
C31   C32   1.401754 A    
Ba2   O21   2.825618 S    
C51   H41   1.082332 S    
P5    O19   1.749409 S    
P5    C32   1.859314 S    
C19   C30   1.393465 A    
P8    O23   1.538319 D    
O16   P7    1.763950 S    
O13   Ba2   2.918954 S    
C42   H17   1.082099 S    
C24   C25   1.426739 A    
C48   O30   1.221200 D    
C34   C41   1.518627 S    
C32   C33   1.410668 A    
C14   H38   1.109796 S    
C31   H49   1.082018 S    
C2    C3    1.521098 S    
Ba1   O16   2.790789 S    
C14   H36   1.108910 S    
P1    O5    1.754352 S    
C49   O31   1.219178 D    
C3    H2    1.109422 S    
C12   H34   1.110311 S    
C55   H52   1.085983 S    
O10   C8    1.399317 S    
C3    H50   1.110239 S    
C52   H42   1.085920 S    
Ba1   Ba2   4.601689 S    
C16   C52   1.507496 S    
