data_mof_unit_17391.cif
_audit_creation_date              2012-12-10T18:46:13-0500
_audit_creation_method            fapswitch 2.2
_symmetry_space_group_name_H-M    P1
_symmetry_Int_Tables_number       1
_space_group_crystal_system       triclinic
_cell_length_a                    9.859958
_cell_length_b                    10.717471
_cell_length_c                    13.063489
_cell_angle_alpha                 89.911963
_cell_angle_beta                  69.307142
_cell_angle_gamma                 89.542808
_cell_volume                      1291.3696974

loop_
_atom_site_label
_atom_site_type_symbol
_atom_type_description
_atom_site_fract_x
_atom_site_fract_y
_atom_site_fract_z
_atom_type_partial_charge
C1    C     C_R   0.500418 0.739950 0.498434 0.880854
C2    C     C_R   0.422287 0.468702 0.989135 -0.054554
C3    C     C_R   0.446648 0.431152 0.880862 0.085456
C4    C     C_R   0.538379 0.452552 0.028756 0.049741
C5    C     C_R   0.661371 0.378112 0.969940 0.129073
C6    C     C_R   0.669427 0.321185 0.870485 -0.127571
C7    C     C_R   0.555484 0.340236 0.830884 -0.068604
C8    C     C_R   0.538580 0.513844 0.123147 -0.257430
C9    C     C_R   0.752043 0.399910 0.120291 -0.032837
C10   C     C_R   0.363242 0.487985 0.824934 -0.069106
C11   C     C_R   0.629919 0.936161 0.459262 -0.166774
C12   C     C_R   0.418823 0.496415 0.705122 0.908783
C13   C     C_R   0.627827 0.063961 0.462856 -0.194161
C14   C     C_R   0.495430 0.127299 0.508549 -0.082410
C15   C     C_R   0.362914 0.062564 0.553254 -0.012989
C16   C     C_R   0.367049 0.934480 0.543844 -0.156031
C17   C     C_R   0.499303 0.872269 0.499114 -0.070335
C18   C     C_R   0.955227 0.410928 0.444192 -0.005893
C19   C     C_R   0.099422 0.411820 0.443024 -0.027069
C20   C     C_R   0.040963 0.583538 0.562547 0.079298
C21   C     C_R   0.898358 0.585081 0.560388 -0.062472
C22   C     C_R   0.498483 0.260004 0.503162 0.875535
C23   C     C_R   0.581322 0.498211 0.294607 0.870246
C24   C     C_R   0.768551 0.355390 0.016320 -0.187636
C25   C     C_R   0.632657 0.477237 0.175924 -0.099780
C26   C     C_R   0.236070 0.552686 0.883468 -0.276399
C27   C     C_R   0.191709 0.564152 0.996568 0.023004
C28   C     C_R   0.282748 0.519994 0.051930 -0.032934
H1    H     H_    0.729498 0.113229 0.428327 0.163617
H2    H     H_    0.267488 0.882787 0.575495 0.201108
H3    H     H_    0.921682 0.338043 0.401768 0.135529
H4    H     H_    0.175550 0.340924 0.397693 0.123068
H5    H     H_    0.819275 0.652091 0.609349 0.137255
H6    H     H_    0.860703 0.295292 0.976183 0.190806
H7    H     H_    0.460104 0.586221 0.161012 0.170793
H8    H     H_    0.170578 0.593958 0.840874 0.183286
H9    H     H_    0.732773 0.887532 0.423865 0.173002
N1    N     N_R   0.142790 0.500030 0.500030 -0.099413
N2    N     N_R   0.857180 0.499940 0.500010 -0.089653
O1    O     O_R   0.385370 0.683250 0.500010 -0.618619
O2    O     O_R   0.614700 0.683220 0.500010 -0.617006
O3    O     O_R   0.328400 0.499990 0.653620 -0.601195
O4    O     O_R   0.557730 0.499960 0.653620 -0.626630
O5    O     O_R   0.385300 0.316780 0.499990 -0.648872
O6    O     O_R   0.614630 0.316750 0.499990 -0.633236
O7    O     O_R   0.442270 0.500040 0.346380 -0.612445
O8    O     O_R   0.671600 0.500010 0.346380 -0.587462
Zn1   Zn    Zn3+2 0.346870 0.500020 0.500000 0.979743
Zn2   Zn    Zn3+2 0.653130 0.499980 0.500000 0.975420
C29   C     C_1   0.855742 0.358451 0.168105 0.206678
N3    N     N_1   0.940520 0.323938 0.204450 -0.226669
C30   C     C_2   0.221336 0.123747 0.615025 0.484016
H10   H     H_    0.216893 0.213864 0.653635 0.157536
O9    O     O_2   0.106992 0.072516 0.625444 -0.576353
C31   C     C_1   0.073171 0.664543 0.638195 0.210739
N4    N     N_1   0.096212 0.729350 0.700768 -0.216055
C32   C     C_2   0.795138 0.241502 0.807241 0.371867
H11   H     H_    0.778182 0.147991 0.782678 0.090524
O10   O     O_2   0.918281 0.282150 0.778406 -0.555455
C33   C     C_2   0.223534 0.507507 0.173189 0.376082
H12   H     H_    0.261218 0.431559 0.211445 0.076017
O11   O     O_2   0.135839 0.582181 0.231228 -0.563976
C34   C     C_1   0.052893 0.623227 0.052703 0.283781
N5    N     N_1   0.941848 0.670796 0.097370 -0.178866
C35   C     C_2   0.539378 0.253294 0.747557 0.383232
H13   H     H_    0.633540 0.214311 0.684050 0.076813
O12   O     O_2   0.419041 0.220446 0.752379 -0.616012

loop_
_geom_bond_atom_site_label_1
_geom_bond_atom_site_label_2
_ccdc_geom_bond_type
C1    O2    A    
C2    C4    A    
C31   N4    T    
C9    C24   A    
C6    C7    A    
C19   N1    A    
C7    C35   S    
C20   N1    A    
C1    C17   S    
C21   N2    A    
O6    Zn2   S    
C4    C8    A    
C10   C26   A    
C23   C25   S    
C2    C3    A    
C32   H11   S    
C9    C25   A    
O8    Zn2   S    
C23   O7    A    
O3    Zn1   S    
C13   C14   A    
C20   C21   A    
C2    C28   A    
C8    C25   A    
C11   C13   A    
C6    C32   S    
C14   C22   S    
C26   C27   A    
C4    C5    A    
C5    C24   A    
C10   C12   S    
C33   H12   S    
C20   C31   S    
C19   H4    S    
O2    Zn2   S    
N2    Zn2   S    
C30   O9    D    
C22   O5    A    
C35   H13   S    
C12   O4    A    
C3    C7    A    
C28   C33   S    
C5    C6    A    
O7    Zn1   S    
C32   O10   D    
C23   O8    A    
C15   C16   A    
C16   H2    S    
C34   N5    T    
C26   H8    S    
C22   O6    A    
C21   H5    S    
C30   H10   S    
C33   O11   D    
C18   C19   A    
C13   H1    S    
C27   C28   A    
C3    C10   A    
C18   N2    A    
O1    Zn1   S    
C14   C15   A    
O4    Zn2   S    
C12   O3    A    
C18   H3    S    
C27   C34   S    
C1    O1    A    
C29   N3    T    
C15   C30   S    
N1    Zn1   S    
C11   H9    S    
C11   C17   A    
C9    C29   S    
O5    Zn1   S    
C16   C17   A    
C35   O12   D    
C8    H7    S    
C24   H6    S    
