data_mof_unit_65197.cif
_audit_creation_date              2012-12-10T18:20:33-0500
_audit_creation_method            fapswitch 2.2
_symmetry_space_group_name_H-M    P1
_symmetry_Int_Tables_number       1
_space_group_crystal_system       triclinic
_cell_length_a                    21.531274
_cell_length_b                    21.49869
_cell_length_c                    21.922199
_cell_angle_alpha                 118.80622
_cell_angle_beta                  118.85662
_cell_angle_gamma                 90.840487
_cell_volume                      7372.69564861

loop_
_atom_site_label
_atom_site_type_symbol
_atom_type_description
_atom_site_fract_x
_atom_site_fract_y
_atom_site_fract_z
_atom_type_partial_charge
C1    C     C_R   0.498531 0.119197 0.496090 0.941774
C2    C     C_3   0.209468 0.792297 0.949924 -0.405820
C3    C     C_3   0.723213 0.154883 0.951784 0.097005
C4    C     C_3   0.256501 0.842450 0.047780 0.085361
C5    C     C_1   0.836555 0.336334 0.173990 -0.021478
C6    C     C_1   0.162576 0.663565 0.826020 -0.000892
C7    C     C_1   0.662375 0.161495 0.825806 -0.058196
C8    C     C_1   0.337202 0.838740 0.174175 -0.064394
C9    C     C_1   0.625238 0.124767 0.750798 -0.169211
C10   C     C_1   0.374677 0.875411 0.249187 -0.170839
C11   C     C_3   0.417420 0.184455 0.440898 0.437379
C12   C     C_R   0.501606 0.880926 0.504167 0.940774
C13   C     C_3   0.581470 0.807644 0.544634 0.435091
C14   C     C_3   0.419495 0.257730 0.444356 -0.550427
C15   C     C_3   0.577937 0.733381 0.538808 -0.529365
C16   C     C_R   0.580930 0.080937 0.661942 0.935036
C17   C     C_R   0.419064 0.919117 0.338052 0.937021
C18   C     C_3   0.535104 0.254489 0.587114 -0.699018
C19   C     C_3   0.450481 0.744930 0.412370 -0.696683
C20   C     C_3   0.546851 0.197764 0.463235 0.441290
C21   C     C_3   0.466645 0.811178 0.553153 0.437613
C22   C     C_3   0.499161 0.187083 0.495583 -0.013934
C23   C     C_3   0.707280 0.206123 0.917422 0.120530
C24   C     C_3   0.500677 0.813054 0.504754 -0.013637
C25   C     C_3   0.501380 0.310126 0.500202 -0.019483
C26   C     C_3   0.496996 0.689963 0.500089 -0.025755
C27   C     C_3   0.538587 0.328080 0.591018 0.096105
C28   C     C_3   0.445857 0.671551 0.409030 0.093319
C29   C     C_3   0.543295 0.268329 0.460870 -0.458806
C30   C     C_3   0.470724 0.740747 0.555866 -0.454159
C31   C     C_3   0.722819 0.576603 0.517459 0.361358
C32   C     C_3   0.265773 0.416910 0.462277 0.372413
C33   C     C_3   0.821185 0.492052 0.571744 -0.423177
C34   C     C_3   0.291565 0.794005 0.082519 0.136537
C35   C     C_3   0.182811 0.517175 0.434859 -0.424439
C36   C     C_3   0.747740 0.485858 0.567033 -0.433393
C37   C     C_3   0.257252 0.523916 0.440879 -0.429279
C38   C     C_3   0.689854 0.498890 0.499740 -0.029183
C39   C     C_3   0.309816 0.499881 0.499423 0.036182
C40   C     C_3   0.744788 0.433507 0.415240 -0.460892
C41   C     C_3   0.255570 0.560472 0.586811 -0.469400
C42   C     C_3   0.671704 0.433140 0.412372 0.405234
C43   C     C_3   0.328498 0.560715 0.589533 0.384405
C44   C     C_R   0.879549 0.500434 0.501473 0.880524
C45   C     C_3   0.715310 0.306166 0.049378 -0.559834
C46   C     C_R   0.120023 0.499156 0.497731 0.883939
C47   C     C_R   0.919138 0.419009 0.337969 0.900538
C48   C     C_R   0.080822 0.580989 0.662030 0.901435
C49   C     C_R   0.378295 0.500607 0.499959 0.922660
C50   C     C_R   0.621584 0.497302 0.499975 0.892242
C51   C     C_R   0.500423 0.378411 0.500240 0.926289
C52   C     C_R   0.497973 0.621552 0.499824 0.915701
C53   C     C_3   0.811294 0.499969 0.501333 0.037278
C54   C     C_3   0.188247 0.499528 0.497943 0.063703
C55   C     C_3   0.794638 0.574250 0.516327 -0.414729
C56   C     C_3   0.290041 0.710164 0.950609 -0.572877
C57   C     C_3   0.200948 0.422252 0.475170 -0.491280
C58   C     C_3   0.667551 0.260070 0.951586 0.447252
C59   C     C_3   0.339156 0.757031 0.048234 0.451827
C60   C     C_3   0.783949 0.254184 0.949380 -0.633953
C61   C     C_3   0.226156 0.730566 0.051106 -0.661880
C62   C     C_3   0.830194 0.308282 0.046329 0.440619
C63   C     C_3   0.178405 0.678626 0.952934 0.448222
C64   C     C_1   0.874361 0.374414 0.249032 -0.192795
C65   C     C_1   0.125193 0.625562 0.750971 -0.186285
C66   C     C_3   0.681004 0.622681 0.419097 -0.865758
C67   C     C_3   0.790677 0.289733 0.082560 0.123332
C68   C     C_3   0.362314 0.414450 0.589255 -0.937429
C69   C     C_3   0.929806 0.258767 0.088629 -0.292190
C70   C     C_3   0.069055 0.708888 0.946193 -0.301252
C71   C     C_3   0.664543 0.039824 0.928867 -0.823126
C72   C     C_3   0.284904 0.965156 0.068527 -0.807830
C73   C     C_3   0.546205 0.261176 0.912013 -0.347428
C74   C     C_3   0.462352 0.784983 0.086665 -0.345901
C75   C     C_3   0.304369 0.094549 0.318406 -0.332177
C76   C     C_3   0.699790 0.897779 0.651078 -0.320148
C77   C     C_3   0.576866 0.124726 0.367934 -0.305913
C78   C     C_3   0.208022 0.710055 0.917548 0.135293
C79   C     C_3   0.460082 0.894619 0.665966 -0.315423
C80   C     C_3   0.644735 0.422752 0.735729 -0.792593
C81   C     C_3   0.324333 0.582702 0.277469 -0.786736
C82   C     C_3   0.764829 0.715303 0.624905 -0.826878
C83   C     C_3   0.258037 0.310212 0.333211 -0.783590
C84   C     C_3   0.589327 0.311102 0.306588 -0.340653
C85   C     C_3   0.413245 0.680566 0.703612 -0.335647
C86   C     C_3   0.769678 0.205223 0.049467 -0.418003
H1    H     H_    0.757404 0.122681 0.931964 0.120267
H2    H     H_    0.602369 0.805899 0.506077 0.064348
H3    H     H_    0.268313 0.550312 0.253850 0.234793
H4    H     H_    0.351833 0.542248 0.254961 0.241843
H5    H     H_    0.317003 0.617840 0.251955 0.232623
H6    H     H_    0.777942 0.634025 0.649243 0.225671
H7    H     H_    0.773010 0.754284 0.686529 0.236281
H8    H     H_    0.721151 0.724657 0.579454 0.259655
H9    H     H_    0.818225 0.729489 0.631197 0.228492
H10   H     H_    0.178625 0.366392 0.330394 0.218639
H11   H     H_    0.238903 0.295706 0.269640 0.231140
H12   H     H_    0.234379 0.259751 0.327093 0.212574
H13   H     H_    0.391600 0.244474 0.379610 0.229315
H14   H     H_    0.319908 0.327515 0.371048 0.277806
H15   H     H_    0.617775 0.303677 0.273716 0.155007
H16   H     H_    0.539440 0.328201 0.280557 0.173861
H17   H     H_    0.569446 0.256049 0.294635 0.190966
H18   H     H_    0.461890 0.661152 0.727189 0.169656
H19   H     H_    0.383463 0.684600 0.734414 0.152880
H20   H     H_    0.435184 0.737637 0.721087 0.188160
H21   H     H_    0.616957 0.744161 0.602006 0.237335
H22   H     H_    0.738473 0.437893 0.364083 0.118330
H23   H     H_    0.259545 0.550059 0.633478 0.117797
H24   H     H_    0.387288 0.286301 0.469971 0.150657
H25   H     H_    0.596495 0.698777 0.498018 0.126625
H26   H     H_    0.501701 0.249117 0.611407 0.186384
H27   H     H_    0.474072 0.744110 0.376688 0.179356
H28   H     H_    0.504921 0.355961 0.615238 0.157700
H29   H     H_    0.218397 0.862237 0.068446 0.114194
H30   H     H_    0.468409 0.637117 0.372293 0.158806
H31   H     H_    0.606346 0.207356 0.509791 0.057085
H32   H     H_    0.406237 0.806140 0.516477 0.060540
H33   H     H_    0.513811 0.252124 0.394822 0.227966
H34   H     H_    0.510614 0.757759 0.621713 0.229441
H35   H     H_    0.600843 0.305402 0.494513 0.133691
H36   H     H_    0.415210 0.709787 0.535025 0.135240
H37   H     H_    0.591996 0.254859 0.628309 0.200217
H38   H     H_    0.393693 0.749945 0.381404 0.206757
H39   H     H_    0.633350 0.443540 0.363850 0.094908
H40   H     H_    0.736549 0.195496 0.072219 0.203941
H41   H     H_    0.364912 0.547129 0.634808 0.089368
H42   H     H_    0.837057 0.441281 0.565478 0.203552
H43   H     H_    0.170659 0.570785 0.448526 0.203125
H44   H     H_    0.866871 0.541528 0.634195 0.170276
H45   H     H_    0.136011 0.472254 0.369890 0.167466
H46   H     H_    0.755962 0.379854 0.403963 0.212405
H47   H     H_    0.247482 0.616256 0.604792 0.211280
H48   H     H_    0.790336 0.580163 0.467149 0.197102
H49   H     H_    0.212853 0.414439 0.525888 0.190777
H50   H     H_    0.759194 0.525350 0.630234 0.173962
H51   H     H_    0.234004 0.813184 0.926058 0.199344
H52   H     H_    0.245632 0.489390 0.376825 0.195713
H53   H     H_    0.724853 0.429183 0.550288 0.214734
H54   H     H_    0.284054 0.582521 0.465264 0.210427
H55   H     H_    0.844177 0.621685 0.576883 0.171192
H56   H     H_    0.148430 0.375711 0.418009 0.167282
H57   H     H_    0.725560 0.366997 0.074839 0.131547
H58   H     H_    0.292055 0.651783 0.925837 0.130535
H59   H     H_    0.664945 0.299827 0.931908 0.047572
H60   H     H_    0.356381 0.718068 0.068769 0.048510
H61   H     H_    0.814528 0.217427 0.928033 0.209672
H62   H     H_    0.683897 0.292335 0.071736 0.223298
H63   H     H_    0.193790 0.755906 0.077949 0.199954
H64   H     H_    0.774895 0.287530 0.921372 0.165647
H65   H     H_    0.249233 0.696313 0.076621 0.162777
H66   H     H_    0.826438 0.364289 0.058478 0.099427
H67   H     H_    0.191123 0.625051 0.938048 0.094842
H68   H     H_    0.616475 0.587440 0.450798 0.224275
H69   H     H_    0.634258 0.643243 0.393169 0.229104
H70   H     H_    0.686069 0.582662 0.367019 0.244100
H71   H     H_    0.733204 0.671355 0.468478 0.254620
H72   H     H_    0.280102 0.324935 0.471349 0.237907
H73   H     H_    0.313107 0.733288 0.927223 0.223799
H74   H     H_    0.381028 0.371473 0.601539 0.236716
H75   H     H_    0.334839 0.439742 0.622759 0.240297
H76   H     H_    0.413597 0.455624 0.614233 0.266540
H77   H     H_    0.891304 0.203379 0.029755 0.140279
H78   H     H_    0.936917 0.261881 0.143738 0.165650
H79   H     H_    0.985442 0.263854 0.097794 0.179784
H80   H     H_    0.100074 0.767611 0.976372 0.140211
H81   H     H_    0.066313 0.702085 0.992023 0.167951
H82   H     H_    0.010806 0.697017 0.896412 0.180364
H83   H     H_    0.610730 0.082891 0.858948 0.272935
H84   H     H_    0.819188 0.188214 0.075804 0.138102
H85   H     H_    0.610378 0.006828 0.908627 0.243118
H86   H     H_    0.706146 0.060656 0.995519 0.240804
H87   H     H_    0.683362 0.002404 0.889472 0.246704
H88   H     H_    0.359381 0.931711 0.139906 0.281191
H89   H     H_    0.261771 0.991378 0.107049 0.228419
H90   H     H_    0.240714 0.940997 0.001590 0.237535
H91   H     H_    0.331377 0.009304 0.088930 0.253121
H92   H     H_    0.534833 0.271412 0.863030 0.158925
H93   H     H_    0.568853 0.315227 0.973240 0.154574
H94   H     H_    0.492079 0.229152 0.892674 0.195698
H95   H     H_    0.151870 0.795884 0.923518 0.153792
H96   H     H_    0.445773 0.733556 0.025761 0.152746
H97   H     H_    0.484488 0.773646 0.136487 0.159585
H98   H     H_    0.508248 0.828087 0.104887 0.195107
H99   H     H_    0.278294 0.139355 0.321332 0.143187
H100  H     H_    0.292842 0.069790 0.347705 0.164223
H101  H     H_    0.277993 0.049460 0.251291 0.188710
H102  H     H_    0.696627 0.923988 0.617040 0.174055
H103  H     H_    0.726651 0.853577 0.637956 0.143182
H104  H     H_    0.735715 0.941967 0.719304 0.189317
H105  H     H_    0.619385 0.110194 0.409247 0.158576
H106  H     H_    0.387244 0.181798 0.469702 0.067528
H107  H     H_    0.603844 0.175844 0.377215 0.151353
H108  H     H_    0.552152 0.077666 0.301941 0.197287
H109  H     H_    0.435245 0.846862 0.663259 0.150338
H110  H     H_    0.415286 0.911783 0.630376 0.162663
H111  H     H_    0.494545 0.942748 0.732638 0.196193
H112  H     H_    0.653261 0.354592 0.634989 0.222994
H113  H     H_    0.701993 0.461386 0.771613 0.232895
H114  H     H_    0.647404 0.386131 0.758746 0.231347
H115  H     H_    0.608664 0.457074 0.746924 0.239530
H116  H     H_    0.340088 0.659228 0.392416 0.221920
N1    N     N_2   0.664567 0.584478 0.451691 -0.310998
N2    N     N_2   0.311067 0.379078 0.499657 -0.313210
N3    N     N_2   0.654652 0.101532 0.918832 -0.242246
N4    N     N_2   0.313033 0.908134 0.079773 -0.240050
N5    N     N_2   0.615869 0.377952 0.647269 -0.265055
N6    N     N_2   0.368527 0.629417 0.368260 -0.273950
N7    N     N_2   0.742512 0.638752 0.600369 -0.281716
N8    N     N_2   0.232368 0.370560 0.370935 -0.303071
O1    O     O_R   0.447710 0.092600 0.500010 -0.647174
O2    O     O_R   0.447720 0.907400 0.500040 -0.635319
O3    O     O_R   0.509140 0.061430 0.622880 -0.612801
O4    O     O_R   0.490860 0.938570 0.377120 -0.611063
O5    O     O_R   0.613710 0.061430 0.622840 -0.627954
O6    O     O_R   0.386290 0.938570 0.377160 -0.627517
O7    O     O_R   0.907580 0.552300 0.500030 -0.637646
O8    O     O_R   0.092420 0.447700 0.499970 -0.633202
O9    O     O_R   0.907560 0.447760 0.500050 -0.626710
O10   O     O_R   0.092440 0.552240 0.499950 -0.630287
O11   O     O_R   0.938770 0.490850 0.377130 -0.615488
O12   O     O_R   0.552290 0.907400 0.499990 -0.647328
O13   O     O_R   0.061230 0.509150 0.622870 -0.614082
O14   O     O_R   0.938740 0.386300 0.377150 -0.622600
O15   O     O_R   0.061260 0.613700 0.622850 -0.620514
O16   O     O_R   0.372700 0.465280 0.430600 -0.618310
O17   O     O_R   0.627300 0.534720 0.569400 -0.622865
O18   O     O_3   0.908641 0.319744 0.086344 -0.591900
O19   O     O_3   0.098568 0.656024 0.908904 -0.591289
O20   O     O_3   0.594983 0.218142 0.918549 -0.578701
O21   O     O_3   0.402231 0.813191 0.079990 -0.576854
O22   O     O_3   0.382122 0.121671 0.356763 -0.543199
O23   O     O_R   0.441990 0.534630 0.569310 -0.629668
O24   O     O_3   0.628105 0.869036 0.630073 -0.542795
O25   O     O_3   0.519194 0.133500 0.381938 -0.542413
O26   O     O_3   0.506589 0.877137 0.635845 -0.547949
O27   O     O_3   0.638706 0.363445 0.394024 -0.608135
O28   O     O_3   0.364687 0.632909 0.615337 -0.603977
O29   O     O_R   0.558010 0.465370 0.430690 -0.627948
O30   O     O_R   0.465370 0.372730 0.430660 -0.637141
O31   O     O_R   0.534630 0.627270 0.569340 -0.619819
O32   O     O_R   0.534650 0.442080 0.569370 -0.611124
O33   O     O_R   0.465350 0.557920 0.430630 -0.622589
O34   O     O_R   0.552280 0.092600 0.499960 -0.626390
Zn1   Zn    Zn3+2 0.430180 0.000000 0.500030 0.935028
Zn2   Zn    Zn3+2 0.569820 0.000000 0.499970 0.935692
Zn3   Zn    Zn3+2 0.000200 0.569810 0.499990 0.931735
Zn4   Zn    Zn3+2 0.999800 0.430190 0.500010 0.933177
Zn5   Zn    Zn3+2 0.453740 0.453690 0.407380 0.937985
Zn6   Zn    Zn3+2 0.546260 0.546310 0.592620 0.946340

loop_
_geom_bond_atom_site_label_1
_geom_bond_atom_site_label_2
_ccdc_geom_bond_type
C33   H44   S    
O15   Zn3   S    
O16   Zn5   S    
C47   O14   A    
C11   O22   S    
C82   H8    S    
C86   H40   S    
C45   H62   S    
H72   N2    S    
C4    H29   S    
C3    C23   S    
C84   O27   S    
C69   H78   S    
C5    C67   S    
C59   O21   S    
C41   H47   S    
H68   N1    S    
H6    N7    S    
C58   H59   S    
C79   H109  S    
C14   H13   S    
C68   H75   S    
C29   H33   S    
C5    C64   T    
C62   H66   S    
C57   H56   S    
C79   H111  S    
C72   H91   S    
O9    Zn4   S    
C50   O29   A    
C35   C37   S    
C9    C16   S    
C18   H26   S    
C79   O26   S    
C38   C42   S    
C56   H73   S    
C26   C52   S    
C70   H80   S    
H83   N3    S    
C66   H69   S    
C11   C14   S    
C62   O18   S    
C6    C78   S    
C21   O26   S    
C74   H98   S    
C19   H27   S    
C10   C17   S    
C80   H114  S    
C77   O25   S    
C33   C36   S    
C84   H16   S    
C60   C62   S    
C11   H106  S    
C72   H89   S    
C15   H21   S    
C61   C63   S    
C77   H107  S    
C73   O20   S    
C49   O23   A    
C76   H103  S    
C28   H30   S    
C42   H39   S    
C73   H94   S    
C44   C53   S    
O14   Zn4   S    
C6    C65   T    
C30   H36   S    
O34   Zn2   S    
C37   H54   S    
C29   H35   S    
C45   C67   S    
C56   H58   S    
C51   O30   A    
C60   H61   S    
C48   C65   S    
C17   O6    A    
C35   H43   S    
O33   Zn5   S    
C31   N1    S    
C76   H102  S    
C18   H37   S    
C40   H22   S    
C82   N7    S    
C81   H3    S    
C68   N2    S    
C40   C42   S    
C47   O11   A    
O30   Zn5   S    
C82   H7    S    
H116  N6    S    
C35   C54   S    
C33   C53   S    
C84   H15   S    
C41   C43   S    
C50   O17   A    
C75   H99   S    
C44   O9    A    
C32   C57   S    
C16   O3    A    
C85   H19   S    
C36   H50   S    
C20   H31   S    
C36   H53   S    
C42   O27   S    
O23   Zn6   S    
C44   O7    A    
C20   C29   S    
C53   C55   S    
C25   C29   S    
C23   C60   S    
C45   C58   S    
C4    C34   S    
C19   H38   S    
C46   O10   A    
O31   Zn6   S    
H88   N4    S    
C3    H1    S    
C77   H105  S    
C15   H25   S    
C59   H60   S    
C1    O34   A    
H10   N8    S    
C63   H67   S    
C76   O24   S    
C52   O33   A    
C43   H41   S    
C47   C64   S    
C74   O21   S    
C15   C26   S    
C72   N4    S    
C74   H97   S    
O11   Zn3   S    
C56   C78   S    
O6    Zn1   S    
C80   H113  S    
C83   H12   S    
C33   H42   S    
C79   H110  S    
C71   H87   S    
C13   C24   S    
C2    H95   S    
C3    N3    S    
C32   N2    S    
C16   O5    A    
C2    C4    S    
C77   H108  S    
C25   C51   S    
C21   H32   S    
C58   O20   S    
C43   O28   S    
C70   H82   S    
C32   N8    S    
C1    C22   S    
C80   H115  S    
C31   N7    S    
C71   N3    S    
C20   O25   S    
C46   C54   S    
O4    Zn2   S    
C8    C34   S    
O3    Zn1   S    
C19   C28   S    
C61   H65   S    
C12   O12   A    
C60   H64   S    
C85   H18   S    
C81   N6    S    
C74   H96   S    
C81   H4    S    
C62   C67   S    
C39   C49   S    
O10   Zn3   S    
C20   C22   S    
C26   C30   S    
C37   H52   S    
O17   Zn6   S    
C34   C59   S    
C28   N6    S    
C71   H85   S    
O29   Zn5   S    
C75   H100  S    
C73   H92   S    
C17   O4    A    
C69   O18   S    
C35   H45   S    
C66   N1    S    
C2    C78   S    
C45   H57   S    
C14   H24   S    
C67   C86   S    
C82   H9    S    
H112  N5    S    
C18   C22   S    
C2    H51   S    
C51   O32   A    
C75   H101  S    
C18   C27   S    
C69   H77   S    
C73   H93   S    
O2    Zn1   S    
C39   C43   S    
C12   O2    A    
C56   C59   S    
C4    N4    S    
C38   C50   S    
C48   O13   A    
C68   H76   S    
O13   Zn4   S    
C25   C27   S    
C55   H48   S    
C21   C30   S    
C12   C24   S    
C11   C22   S    
C26   C28   S    
C31   C38   S    
C63   O19   S    
C83   H14   S    
O1    Zn1   S    
C13   C15   S    
C19   C24   S    
O32   Zn6   S    
C37   C39   S    
C68   H74   S    
C70   H81   S    
C66   H70   S    
C1    O1    A    
O12   Zn2   S    
C30   H34   S    
C86   H84   S    
C7    C23   S    
C55   H55   S    
C13   H2    S    
C36   C38   S    
O7    Zn3   S    
C23   C58   S    
C27   N5    S    
C34   C61   S    
C14   C25   S    
C40   H46   S    
C75   O22   S    
C72   H90   S    
C69   H79   S    
C41   C54   S    
C70   O19   S    
C83   N8    S    
C76   H104  S    
C81   H5    S    
C27   H28   S    
C7    C9    T    
C85   O28   S    
C80   N5    S    
C48   O15   A    
O5    Zn2   S    
C8    C10   T    
C40   C53   S    
C83   H11   S    
C21   C24   S    
C32   C39   S    
C84   H17   S    
C71   H86   S    
C57   H49   S    
C41   H23   S    
C31   C55   S    
C49   O16   A    
C52   O31   A    
C61   H63   S    
C46   O8    A    
C54   C57   S    
C66   H71   S    
C85   H20   S    
O8    Zn4   S    
C13   O24   S    
C3    C86   S    
C63   C78   S    
