data_mof_unit_56080.cif
_audit_creation_date              2012-12-11T16:53:38-0500
_audit_creation_method            fapswitch 2.2
_symmetry_space_group_name_H-M    P1
_symmetry_Int_Tables_number       1
_space_group_crystal_system       triclinic
_cell_length_a                    15.153195
_cell_length_b                    14.880326
_cell_length_c                    17.027885
_cell_angle_alpha                 108.329737
_cell_angle_beta                  106.860283
_cell_angle_gamma                 108.49895
_cell_volume                      3115.51727978

loop_
_atom_site_label
_atom_site_type_symbol
_atom_type_description
_atom_site_fract_x
_atom_site_fract_y
_atom_site_fract_z
_atom_type_partial_charge
C1    C     C_R   0.083527 0.291735 0.087221 0.430974
C2    C     C_R   0.021290 0.563504 0.736171 -0.010150
C3    C     C_R   0.760720 0.195517 0.728154 0.045165
C4    C     C_R   0.351080 0.543980 0.046009 -0.056841
C5    C     C_R   0.275747 0.686000 0.249750 0.513104
C6    C     C_R   0.712929 0.516160 0.930029 -0.015544
C7    C     C_R   0.891670 0.460117 0.188888 0.497045
C8    C     C_R   0.082140 0.801036 0.004970 0.350144
C9    C     C_R   0.913558 0.717104 0.928129 0.438615
C10   C     C_R   0.064134 0.542327 0.265358 0.466410
C11   C     C_R   0.276486 0.787645 0.179231 -0.097300
C12   C     C_R   0.933194 0.507091 0.741420 -0.136700
C13   C     C_R   0.703485 0.417695 0.004828 0.012733
C14   C     C_R   0.332074 0.783898 0.257053 -0.086720
C15   C     C_R   0.654160 0.464315 0.963062 -0.013889
C16   C     C_R   0.973395 0.535242 0.274405 -0.152635
C17   C     C_R   0.997786 0.812155 0.958834 -0.005548
C18   C     C_R   0.508848 0.604266 0.027630 -0.061000
C19   C     C_R   0.433568 0.526575 0.032764 0.183055
C20   C     C_R   0.420530 0.421609 0.998467 -0.146009
C21   C     C_R   0.489221 0.398087 0.968191 -0.112958
C22   C     C_R   0.569926 0.479358 0.971657 0.115193
C23   C     C_R   0.778204 0.202420 0.814713 -0.099465
C24   C     C_R   0.576466 0.580938 0.997221 -0.086126
C25   C     C_3   0.664595 0.689134 0.062831 0.661304
C26   C     C_3   0.589602 0.713896 0.098907 0.277833
C27   C     C_R   0.967888 0.590367 0.361174 -0.141017
C28   C     C_R   0.028988 0.592791 0.662598 -0.041241
C29   C     C_R   0.135472 0.638024 0.585191 0.575111
C30   C     C_R   0.119438 0.607662 0.650597 -0.253747
C31   C     C_R   0.949833 0.603406 0.603437 0.497185
C32   C     C_R   0.957520 0.613280 0.526033 -0.144568
C33   C     C_R   0.052951 0.637073 0.520029 -0.204285
C34   C     C_R   0.300963 0.590587 0.004090 0.452947
C35   C     C_R   0.058427 0.646528 0.442722 0.537429
C36   C     C_R   0.875470 0.582271 0.368509 0.527490
C37   C     C_R   0.871837 0.597294 0.452546 -0.143300
C38   C     C_R   0.714993 0.097818 0.643618 0.082311
C39   C     C_R   0.436731 0.859880 0.328023 0.077394
C40   C     C_R   0.595355 0.021545 0.393558 0.479165
C41   C     C_R   0.502224 0.942707 0.318596 -0.173312
C42   C     C_R   0.468343 0.852130 0.410082 -0.109592
C43   C     C_R   0.561996 0.925672 0.482749 0.073454
C44   C     C_R   0.623106 0.015976 0.477971 0.002149
C45   C     C_R   0.781624 0.296457 0.735364 -0.097952
C46   C     C_R   0.702033 0.102066 0.559927 -0.145559
C47   C     C_R   0.666313 0.000679 0.643991 -0.126043
C48   C     C_R   0.589296 0.914820 0.563549 -0.058990
C49   C     C_R   0.076870 0.130577 0.165616 0.165924
C50   C     C_R   0.990071 0.142460 0.122689 -0.141074
C51   C     C_R   0.906404 0.107350 0.146645 0.360113
C52   C     C_R   0.907854 0.049340 0.199046 0.394596
C53   C     C_R   0.992106 0.029193 0.230793 0.063061
C54   C     C_R   0.079128 0.078873 0.220284 0.022285
C55   C     C_3   0.146949 0.036541 0.191726 -0.365175
C56   C     C_R   0.287287 0.484180 0.071011 -0.110350
C57   C     C_3   0.143038 0.091211 0.129480 -0.335371
C58   C     C_R   0.103511 0.599008 0.819241 0.454620
C59   C     C_R   0.914271 0.205661 0.005986 -0.149841
C60   C     C_R   0.996122 0.202653 0.066526 0.026524
H1    H     H_    0.670675 0.360435 0.026913 0.176382
H2    H     H_    0.357231 0.357642 0.994495 0.139644
H3    H     H_    0.799788 0.587570 0.456803 0.231607
H4    H     H_    0.744916 0.175522 0.559825 0.167093
H5    H     H_    0.544964 0.843404 0.566145 0.179949
H6    H     H_    0.416537 0.793586 0.421321 0.201164
H7    H     H_    0.107851 0.948866 0.155470 0.188212
H8    H     H_    0.305025 0.441716 0.109228 0.220557
H9    H     H_    0.833585 0.155799 0.982371 0.196094
N1    N     N_R   0.055640 0.348550 0.045600 -0.093591
N2    N     N_R   0.798340 0.505430 0.954400 -0.053283
N3    N     N_R   0.931580 0.439470 0.128350 -0.124807
N4    N     N_R   0.051950 0.704140 0.002340 -0.114011
N5    N     N_R   0.944360 0.651450 0.954400 -0.127183
N6    N     N_R   0.039170 0.492150 0.176290 -0.115715
N7    N     N_R   0.188710 0.696600 0.128350 -0.073891
N8    N     N_R   0.794820 0.447010 0.002340 -0.063904
N9    N     N_R   0.960830 0.507850 0.823710 -0.087131
N10   N     N_R   0.811290 0.303400 0.871650 -0.052469
N11   N     N_R   0.205180 0.552990 0.997660 -0.101406
N12   N     N_R   0.814810 0.361830 0.823710 -0.048077
N13   N     N_R   0.201660 0.494570 0.045600 -0.080825
N14   N     N_R   0.068420 0.560530 0.871650 -0.102064
N15   N     N_R   0.948050 0.295860 0.997660 -0.085804
N16   N     N_R   0.185190 0.638170 0.176290 -0.106661
Ni1   Ni    Ni4+2 0.119330 0.493420 0.109950 0.325517
Ni2   Ni    Ni4+2 0.880670 0.506580 0.890050 0.268326
Ni3   Ni    Ni4+2 0.872590 0.372590 0.000000 0.262973
Ni4   Ni    Ni4+2 0.127410 0.627410 0.000000 0.318224
Cl1   Cl    Cl    0.199785 0.350596 0.186092 -0.559134
H10   H     H_    0.691027 0.552156 0.886962 0.196267
Cl2   Cl    Cl    0.778534 0.363254 0.176336 -0.495058
Cl3   Cl    Cl    0.208309 0.888833 0.034478 -0.547249
Cl4   Cl    Cl    0.797332 0.675768 0.835455 -0.516208
Cl5   Cl    Cl    0.167039 0.543279 0.347006 -0.433078
H11   H     H_    0.306949 0.843802 0.155508 0.223456
H12   H     H_    0.482244 0.318441 0.946201 0.147008
Cl6   Cl    Cl    0.773723 0.692050 0.143094 -0.487849
H13   H     H_    0.854518 0.478270 0.693884 0.198985
Cl7   Cl    Cl    0.702221 0.763552 0.003906 -0.544835
Cl8   Cl    Cl    0.614157 0.731223 0.213596 -0.416178
H14   H     H_    0.574426 0.777408 0.086185 0.188477
Cl9   Cl    Cl    0.162933 0.754876 0.454578 -0.530982
Cl10  Cl    Cl    0.769130 0.569743 0.280958 -0.440514
Cl11  Cl    Cl    0.253984 0.657319 0.579328 -0.438844
H15   H     H_    0.178808 0.594868 0.692250 0.210613
Cl12  Cl    Cl    0.845545 0.611212 0.627240 -0.557435
H16   H     H_    0.770065 0.139852 0.835172 0.112906
H17   H     H_    0.678498 0.992926 0.706752 0.143996
Cl13  Cl    Cl    0.671288 0.127746 0.379953 -0.500067
H18   H     H_    0.479844 0.948745 0.254794 0.200321
Cl14  Cl    Cl    0.800393 0.135411 0.116500 -0.453789
Cl15  Cl    Cl    0.803262 0.996821 0.223426 -0.395369
H19   H     H_    0.224716 0.071879 0.249115 0.225348
H20   H     H_    0.219405 0.155978 0.150221 0.248622
Cl16  Cl    Cl    0.368680 0.719792 0.021224 -0.544936
H21   H     H_    0.100813 0.035522 0.055107 0.201528
H22   H     H_    0.772441 0.319094 0.680529 0.115257
Cl17  Cl    Cl    0.214760 0.717482 0.863183 -0.469101
Cl18  Cl    Cl    0.336252 0.611524 0.282132 -0.488106

loop_
_geom_bond_atom_site_label_1
_geom_bond_atom_site_label_2
_ccdc_geom_bond_type
N9    Ni2   S    
C45   H22   S    
C1    Cl1   S    
N4    N5    A    
C3    C23   A    
C19   C20   A    
C18   C26   S    
C2    C12   A    
C10   C16   A    
C57   H20   S    
N16   Ni1   S    
C51   Cl14  S    
C18   C24   A    
C36   C37   A    
C35   Cl9   S    
C11   N7    A    
C26   Cl8   S    
C11   C14   A    
C7    Cl2   S    
C34   Cl16  S    
C49   C54   A    
C29   C33   A    
C49   C57   S    
C18   C19   A    
N11   Ni4   S    
C11   H11   S    
C8    N4    A    
C12   H13   S    
C25   Cl7   S    
C34   N11   A    
C14   C39   S    
C4    C19   S    
N9    N14   A    
C15   C22   S    
C47   C48   A    
N8    Ni3   S    
C12   N9    A    
C48   H5    S    
N1    N15   A    
C43   C48   A    
N7    Ni4   S    
C5    N16   A    
C16   C27   S    
C6    C15   A    
C59   C60   A    
C21   C22   A    
C30   H15   S    
C29   Cl11  S    
N3    N6    A    
N10   Ni3   S    
C37   H3    S    
C44   C46   A    
C39   C42   A    
C4    C34   A    
C6    N2    A    
N14   Ni4   S    
C13   N8    A    
C5    Cl18  S    
C51   C52   A    
C24   C25   S    
C3    C38   S    
C39   C41   A    
C1    C60   A    
C7    N3    A    
N10   N12   A    
C40   Cl13  S    
C27   C35   A    
C25   C26   S    
C47   H17   S    
C3    C45   A    
C46   H4    S    
C43   C44   A    
C29   C30   A    
C21   H12   S    
C10   N6    A    
N6    Ni1   S    
C31   C32   A    
C50   C51   A    
C5    C14   A    
C32   C37   A    
C59   N15   A    
C56   N13   A    
C38   C47   A    
N12   Ni2   S    
C59   H9    S    
N2    Ni2   S    
C9    C17   A    
C7    C16   A    
C55   C57   S    
C41   H18   S    
N5    Ni2   S    
C22   C24   A    
C42   C43   A    
N1    Ni1   S    
N2    N8    A    
C52   C53   A    
C57   H21   S    
C54   C55   S    
C40   C41   A    
C31   Cl12  S    
C28   C31   A    
C45   N12   A    
C8    Cl3   S    
N15   Ni3   S    
C55   H7    S    
C2    C58   A    
C53   C54   A    
C55   H19   S    
C27   C36   A    
C1    N1    A    
C36   Cl10  S    
C50   C60   S    
C32   C33   A    
C13   C15   A    
N4    Ni4   S    
C56   H8    S    
C58   N14   A    
C26   H14   S    
C8    C17   A    
N13   Ni1   S    
C10   Cl5   S    
C52   Cl15  S    
C23   H16   S    
N7    N16   A    
C28   C30   A    
C58   Cl17  S    
C33   C35   A    
N11   N13   A    
C20   H2    S    
C38   C46   A    
C25   Cl6   S    
C40   C44   A    
C13   H1    S    
C20   C21   A    
C49   C50   A    
C9    N5    A    
C42   H6    S    
C2    C28   S    
C23   N10   A    
N3    Ni3   S    
C9    Cl4   S    
C4    C56   A    
C6    H10   S    
