data_mof_unit_25713.cif
_audit_creation_date              2012-12-10T17:47:15-0500
_audit_creation_method            fapswitch 2.2
_symmetry_space_group_name_H-M    P1
_symmetry_Int_Tables_number       1
_space_group_crystal_system       triclinic
_cell_length_a                    11.689732
_cell_length_b                    14.815614
_cell_length_c                    14.802269
_cell_angle_alpha                 64.445087
_cell_angle_beta                  104.320098
_cell_angle_gamma                 102.556952
_cell_volume                      2222.91246223

loop_
_atom_site_label
_atom_site_type_symbol
_atom_type_description
_atom_site_fract_x
_atom_site_fract_y
_atom_site_fract_z
_atom_type_partial_charge
C1    C     C_R   0.483458 0.120196 0.311918 0.814212
C2    C     C_R   0.519710 0.880041 0.687652 0.803480
C3    C     C_R   0.435988 0.320995 0.995586 0.045455
C4    C     C_R   0.468858 0.672954 0.985899 0.049058
C5    C     C_R   0.451979 0.463936 0.040930 -0.096855
C6    C     C_R   0.456819 0.531287 0.938454 -0.099677
C7    C     C_R   0.426658 0.489867 0.863142 0.396541
C8    C     C_R   0.430251 0.501834 0.107882 0.409312
C9    C     C_R   0.417934 0.385856 0.892875 -0.210160
C10   C     C_R   0.441621 0.605278 0.080461 -0.217986
C11   C     C_R   0.666064 0.266353 0.690952 0.004041
C12   C     C_R   0.258054 0.691233 0.385385 0.005697
C13   C     C_R   0.664843 0.203149 0.642451 0.258516
C14   C     C_R   0.313785 0.786842 0.380342 0.296691
C15   C     C_R   0.500378 0.276814 0.520014 0.558468
C16   C     C_R   0.486617 0.713699 0.489295 0.516421
C17   C     C_R   0.526522 0.362721 0.547337 -0.167419
C18   C     C_R   0.439483 0.619930 0.479873 -0.065710
C19   C     C_R   0.617007 0.357105 0.633203 0.001381
C20   C     C_R   0.330064 0.615460 0.414317 -0.034530
C21   C     C_R   0.466128 0.451667 0.496129 0.025510
C22   C     C_R   0.497418 0.530748 0.531899 0.087698
C23   C     C_R   0.284401 0.999971 0.500215 0.808562
C24   C     C_R   0.715648 0.999847 0.500081 0.799859
C25   C     C_R   0.584781 0.518701 0.618768 -0.110038
C26   C     C_R   0.378147 0.466836 0.408628 -0.199023
C27   C     C_R   0.654364 0.440722 0.660670 0.139771
C28   C     C_R   0.304184 0.542411 0.371660 0.152789
C29   C     C_1   0.162643 0.000035 0.500290 -0.186073
C30   C     C_1   0.837429 0.999621 0.500203 -0.164336
C31   C     C_1   0.060021 0.999877 0.500290 -0.004399
C32   C     C_1   0.940049 0.999667 0.500274 0.002657
C33   C     C_R   0.473289 0.189463 0.202693 -0.104687
C34   C     C_R   0.518338 0.811149 0.794669 -0.078858
C35   C     C_R   0.426086 0.216750 0.024092 -0.182042
C36   C     C_R   0.476843 0.776790 0.959356 -0.179127
C37   C     C_R   0.439891 0.151520 0.126589 -0.271235
C38   C     C_R   0.495809 0.845033 0.862591 -0.282078
C39   C     C_R   0.497173 0.294901 0.173608 0.379188
C40   C     C_R   0.526120 0.708160 0.825977 0.366103
C41   C     C_R   0.461055 0.360345 0.070898 -0.050789
C42   C     C_R   0.483461 0.636802 0.915561 -0.040389
Cu1   Cu    Cu3+1 0.469550 0.918260 0.475690 0.961660
Cu2   Cu    Cu3+1 0.530450 0.081740 0.524310 0.998683
H1    H     H_    0.394652 0.355565 0.834866 0.158908
H2    H     H_    0.426567 0.632931 0.132894 0.145483
H3    H     H_    0.602499 0.570453 0.655465 0.213432
H4    H     H_    0.366084 0.422209 0.365516 0.249042
H5    H     H_    0.490421 0.923880 0.840252 0.162639
H6    H     H_    0.427567 0.071555 0.145674 0.161728
H7    H     H_    0.404111 0.185380 0.967052 0.141104
H8    H     H_    0.462046 0.804887 0.011551 0.140610
N1    N     N_R   0.576230 0.204580 0.560790 -0.207910
N2    N     N_R   0.423770 0.795420 0.439210 -0.245687
O1    O     O_R   0.459870 0.022090 0.338120 -0.607846
O2    O     O_R   0.540130 0.977910 0.661880 -0.594711
O3    O     O_R   0.511290 0.160150 0.379180 -0.465773
O4    O     O_R   0.488710 0.839850 0.620820 -0.556611
O5    O     O_R   0.311490 0.930960 0.479480 -0.577591
O6    O     O_R   0.688510 0.069040 0.520520 -0.588074
O7    O     O_R   0.362910 0.069020 0.520540 -0.530056
O8    O     O_R   0.637090 0.930980 0.479460 -0.556887
O9    O     O_3   0.581516 0.680996 0.770756 -0.738865
H9    H     H_    0.616796 0.618152 0.816823 0.327091
O10   O     O_3   0.562556 0.331833 0.244824 -0.675882
H10   H     H_    0.607809 0.397822 0.209173 0.326512
O11   O     O_3   0.392430 0.546198 0.760903 -0.721501
H11   H     H_    0.354736 0.603176 0.753896 0.336550
O12   O     O_3   0.386403 0.440716 0.196055 -0.727573
H12   H     H_    0.336783 0.380991 0.186677 0.335113
C43   C     C_3   0.774661 0.455853 0.725307 -0.447214
C44   C     C_3   0.850905 0.552470 0.667424 -0.788158
H13   H     H_    0.859945 0.552721 0.594370 0.255317
H14   H     H_    0.811177 0.620375 0.651958 0.274411
H15   H     H_    0.941044 0.556422 0.713686 0.236380
H16   H     H_    0.760899 0.459198 0.795412 0.199519
H17   H     H_    0.828184 0.393889 0.747590 0.210232
C45   C     C_3   0.213926 0.551853 0.275246 -0.415725
C46   C     C_3   0.117252 0.460861 0.292889 -0.820998
H18   H     H_    0.155370 0.392301 0.307870 0.260603
H19   H     H_    0.075585 0.446084 0.358428 0.245560
H20   H     H_    0.047249 0.475327 0.223886 0.243279
H21   H     H_    0.172439 0.622361 0.241092 0.190731
H22   H     H_    0.260548 0.556773 0.216281 0.233537
O13   O     O_3   0.603932 0.727722 0.531721 -0.747660
H23   H     H_    0.607227 0.758811 0.579243 0.384954
O14   O     O_3   0.397273 0.260609 0.457753 -0.688666
H24   H     H_    0.331532 0.268886 0.483928 0.290766
C47   C     C_3   0.275927 0.873558 0.280716 -0.355050
C48   C     C_3   0.186140 0.933903 0.282397 -0.750287
H25   H     H_    0.128004 0.887495 0.339312 0.250170
H26   H     H_    0.231863 0.001321 0.296809 0.252752
H27   H     H_    0.128370 0.962064 0.206556 0.210904
H28   H     H_    0.354903 0.922800 0.251168 0.201861
H29   H     H_    0.235012 0.843395 0.221272 0.148156
C49   C     C_3   0.779098 0.157107 0.667778 -0.334453
C50   C     C_3   0.777912 0.048006 0.746680 -0.754528
H30   H     H_    0.712713 0.028776 0.797285 0.249294
H31   H     H_    0.759046 0.994353 0.709556 0.252660
H32   H     H_    0.867330 0.037077 0.794976 0.208846
H33   H     H_    0.809230 0.167893 0.598350 0.212384
H34   H     H_    0.852684 0.202745 0.699600 0.152354
C51   C     C_3   0.685649 0.221736 0.806914 -0.400169
C52   C     C_3   0.576671 0.149271 0.845043 -0.840045
H35   H     H_    0.498870 0.191298 0.820583 0.244759
H36   H     H_    0.554274 0.090237 0.814362 0.249074
H37   H     H_    0.594472 0.112560 0.929407 0.240243
H38   H     H_    0.765933 0.182007 0.839896 0.209153
H39   H     H_    0.697956 0.278996 0.838727 0.208513
C53   C     C_3   0.123671 0.668308 0.377564 -0.397369
C54   C     C_3   0.085627 0.667645 0.469578 -0.804591
H40   H     H_    0.986993 0.656469 0.459400 0.237770
H41   H     H_    0.120616 0.604835 0.539835 0.258569
H42   H     H_    0.119031 0.739414 0.479416 0.258337
H43   H     H_    0.078754 0.723981 0.306312 0.206060
H44   H     H_    0.090544 0.592657 0.377550 0.228176

loop_
_geom_bond_atom_site_label_1
_geom_bond_atom_site_label_2
_ccdc_geom_bond_type
C21   C26   A    
C4    C36   A    
C9    H1    S    
C49   H34   S    
C54   H40   S    
O14   H24   S    
C52   H36   S    
C50   H30   S    
C1    C33   S    
C39   C41   A    
C38   H5    S    
O13   H23   S    
C23   O5    A    
C11   C19   A    
C8    O12   S    
C33   C39   A    
C40   O9    S    
C34   C40   A    
C15   N1    A    
C35   C37   A    
C53   H44   S    
C5    C6    A    
C7    C9    A    
C47   H28   S    
C53   C54   S    
Cu1   O4    S    
Cu2   N1    S    
C22   C25   A    
C10   H2    S    
C51   H38   S    
C28   C45   S    
C25   H3    S    
C36   H8    S    
C26   H4    S    
C2    C34   S    
C40   C42   A    
C34   C38   A    
C49   H33   S    
C39   O10   S    
C44   H15   S    
C45   H21   S    
C12   C53   S    
C52   H35   S    
C50   H31   S    
C13   N1    A    
C13   C49   S    
O11   H11   S    
C44   H14   S    
C46   H19   S    
C45   C46   S    
C20   C28   A    
C33   C37   A    
C46   H18   S    
C27   C43   S    
C47   H29   S    
Cu1   Cu2   S    
C14   C47   S    
C3    C9    A    
C1    O3    A    
C5    C8    A    
Cu2   O2    S    
Cu1   N2    S    
C48   H26   S    
C31   C32   S    
C3    C35   A    
Cu2   O3    S    
C24   O6    A    
C49   C50   S    
C12   C20   A    
C54   H41   S    
C16   C18   A    
Cu1   O1    S    
C14   N2    A    
C12   C14   A    
C35   H7    S    
C16   O13   S    
C4    C10   A    
C23   C29   S    
C43   H17   S    
C50   H32   S    
C19   C27   A    
C48   H27   S    
C15   O14   S    
C15   C17   A    
C5    C41   A    
C3    C41   A    
C24   O8    A    
C18   C22   A    
C44   H13   S    
C46   H20   S    
C2    O4    A    
C6    C7    A    
Cu1   O5    S    
Cu2   O7    S    
C25   C27   A    
C26   C28   A    
C51   H39   S    
C16   N2    A    
C36   C38   A    
C1    O1    A    
C43   C44   S    
C29   C31   T    
C2    O2    A    
C30   C32   T    
C37   H6    S    
C11   C13   A    
C48   H25   S    
C43   H16   S    
C4    C42   A    
Cu2   O6    S    
C17   C19   A    
C54   H42   S    
C18   C20   A    
O12   H12   S    
C24   C30   S    
C7    O11   S    
O9    H9    S    
C45   H22   S    
C23   O7    A    
C8    C10   A    
O10   H10   S    
C6    C42   A    
C51   C52   S    
C11   C51   S    
C47   C48   S    
C21   C22   A    
C53   H43   S    
C52   H37   S    
Cu1   O8    S    
C17   C21   A    
