data_mof_unit_10088.cif
_audit_creation_date              2013-03-05T15:52:31-0500
_audit_creation_method            fapswitch 2.2
_symmetry_space_group_name_H-M    P1
_symmetry_Int_Tables_number       1
_space_group_crystal_system       triclinic
_cell_length_a                    6.950226
_cell_length_b                    20.479192
_cell_length_c                    24.389313
_cell_angle_alpha                 89.77571
_cell_angle_beta                  90.484989
_cell_angle_gamma                 89.426677
_cell_volume                      3471.12726026

loop_
_atom_site_label
_atom_site_type_symbol
_atom_site_description
_atom_site_fract_x
_atom_site_fract_y
_atom_site_fract_z
_atom_type_partial_charge
O1    O     O_R   0.507310 0.423620 0.460450 -0.590823
O2    O     O_R   0.170760 0.556060 0.437190 -0.582355
O3    O     O_R   0.004040 0.576380 0.539550 -0.588993
C1    C     C_R   0.338705 0.576200 0.421237 0.975652
O4    O     O_R   0.177350 0.422870 0.454070 -0.589583
O5    O     O_R   0.010680 0.442240 0.556560 -0.591983
C2    C     C_R   0.346103 0.398884 0.443396 0.925972
O6    O     O_R   0.500670 0.557760 0.443440 -0.591019
O7    O     O_3   0.340380 0.506510 0.533610 -0.270590
V1    V     V_3+5 0.064130 0.498790 0.493770 1.180193
O8    O     O_R   0.681170 0.443940 0.562810 -0.591670
C3    C     C_R   0.850935 0.423916 0.578707 0.976769
O9    O     O_R   0.674570 0.577130 0.545930 -0.589965
C4    C     C_R   0.842581 0.601069 0.556662 0.964884
V2    V     V_3+5 0.564560 0.501210 0.506230 1.176225
O10   O     O_3   0.838170 0.493490 0.466390 -0.270255
C5    C     C_R   0.977036 0.837927 0.911367 -0.146906
C6    C     C_R   0.846173 0.662015 0.588720 -0.175364
C7    C     C_R   0.034733 0.721009 0.908008 0.417200
C8    C     C_R   0.023384 0.779339 0.937411 -0.273238
C9    C     C_R   0.934858 0.838338 0.855124 -0.193644
C10   C     C_R   0.947448 0.780311 0.823186 0.053655
C11   C     C_R   0.011570 0.721670 0.849838 -0.166005
C12   C     C_R   0.902697 0.779261 0.765492 0.100666
C13   C     C_R   0.934559 0.721164 0.734292 0.034796
C14   C     C_R   0.019749 0.667140 0.761112 -0.297873
C15   C     C_R   0.058644 0.666866 0.817177 0.501009
C16   C     C_R   0.824395 0.834308 0.738106 -0.206248
C17   C     C_R   0.781837 0.833315 0.682454 -0.142020
C18   C     C_R   0.809375 0.776867 0.651254 0.014390
C19   C     C_R   0.884662 0.719397 0.676882 0.109255
C20   C     C_R   0.758408 0.776475 0.594951 0.482395
C21   C     C_R   0.776005 0.719311 0.564562 -0.241319
C22   C     C_R   0.901153 0.661957 0.644262 -0.227277
H1    H     H_    0.947498 0.615651 0.661102 0.121198
H2    H     H_    0.731620 0.719265 0.521841 0.156067
H3    H     H_    0.722557 0.877521 0.664357 0.188671
H4    H     H_    0.046806 0.778782 0.981421 0.153880
H5    H     H_    0.901090 0.885313 0.837314 0.097687
H6    H     H_    0.064000 0.624193 0.739047 0.173422
H7    H     H_    0.790343 0.879283 0.758710 0.128871
C23   C     C_3   0.849219 0.275614 0.812314 0.361920
C24   C     C_3   0.124803 0.219954 0.764853 -0.472114
C25   C     C_3   0.106059 0.269756 0.716696 -0.392131
H8    H     H_    0.914891 0.368830 0.772110 0.172187
H9    H     H_    0.954107 0.295775 0.842384 0.110375
H10   H     H_    0.184828 0.173030 0.749293 0.184036
H11   H     H_    0.228513 0.238679 0.795881 0.221534
H12   H     H_    0.199912 0.312383 0.725009 0.180572
H13   H     H_    0.158042 0.246628 0.678272 0.166827
C26   C     C_1   0.863607 0.378619 0.624550 -0.275167
C27   C     C_3   0.926470 0.208230 0.791866 0.231981
C28   C     C_3   0.827486 0.324734 0.763485 -0.449025
C29   C     C_3   0.894170 0.293051 0.709092 0.326252
C30   C     C_3   0.768184 0.232152 0.698604 -0.385912
C31   C     C_3   0.788277 0.182318 0.746690 -0.356521
C32   C     C_1   0.876555 0.340310 0.662641 -0.047781
C33   C     C_1   0.946462 0.160349 0.837874 0.017664
C34   C     C_1   0.960425 0.121681 0.875678 -0.240883
H14   H     H_    0.643948 0.172564 0.764113 0.195236
H15   H     H_    0.844169 0.135036 0.730688 0.157064
H16   H     H_    0.614547 0.247209 0.693848 0.166419
H17   H     H_    0.675427 0.341603 0.758939 0.209876
H18   H     H_    0.811869 0.208263 0.659670 0.163311
C35   C     C_3   0.598953 0.729970 0.287658 -0.467593
C36   C     C_3   0.335116 0.675522 0.234380 0.360811
C37   C     C_3   0.361031 0.725667 0.186616 -0.441323
H19   H     H_    0.736764 0.759706 0.210934 0.196530
H20   H     H_    0.696083 0.687070 0.281895 0.215786
H21   H     H_    0.433857 0.633282 0.227478 0.101825
H22   H     H_    0.465293 0.705472 0.156564 0.173746
H23   H     H_    0.222892 0.733642 0.164057 0.211456
C38   C     C_1   0.475727 0.878214 0.124656 -0.250173
C39   C     C_3   0.386583 0.707130 0.290661 0.222608
C40   C     C_3   0.627051 0.779315 0.239667 -0.376938
C41   C     C_3   0.434600 0.792045 0.208537 0.297163
C42   C     C_3   0.285293 0.818146 0.250306 -0.366998
C43   C     C_3   0.258765 0.769018 0.298511 -0.353240
C44   C     C_1   0.460046 0.839655 0.162527 -0.028790
C45   C     C_1   0.363188 0.659978 0.337180 0.021481
C46   C     C_1   0.348347 0.621673 0.375264 -0.246497
H24   H     H_    0.297512 0.793180 0.337820 0.171324
H25   H     H_    0.104655 0.755384 0.301363 0.197664
H26   H     H_    0.333168 0.865930 0.266847 0.178236
H27   H     H_    0.641637 0.753322 0.326996 0.190986
H28   H     H_    0.683296 0.826032 0.256191 0.174983
H29   H     H_    0.144317 0.826685 0.229354 0.170515
C47   C     C_R   0.470015 0.162025 0.088567 -0.151267
C48   C     C_R   0.349587 0.338075 0.411135 -0.109246
C49   C     C_R   0.519026 0.278492 0.093045 -0.136700
C50   C     C_R   0.513545 0.220980 0.062879 -0.136346
C51   C     C_R   0.427528 0.161328 0.144844 -0.135447
C52   C     C_R   0.416927 0.220078 0.175689 0.147383
C53   C     C_R   0.475671 0.278287 0.149181 0.148991
C54   C     C_R   0.362247 0.222722 0.232490 -0.083720
C55   C     C_R   0.400914 0.280946 0.263533 0.019110
C56   C     C_R   0.467613 0.336454 0.235222 -0.140967
C57   C     C_R   0.497301 0.335590 0.179051 -0.190161
C58   C     C_R   0.262963 0.171286 0.259215 0.449486
C59   C     C_R   0.237438 0.172321 0.315713 -0.291543
C60   C     C_R   0.288756 0.226274 0.346988 0.100768
C61   C     C_R   0.365208 0.282545 0.321494 0.114474
C62   C     C_R   0.250457 0.225688 0.403397 -0.119185
C63   C     C_R   0.278669 0.281224 0.434944 -0.164099
C64   C     C_R   0.396608 0.338489 0.355100 -0.213579
H30   H     H_    0.544556 0.379947 0.159058 0.152779
H31   H     H_    0.449335 0.383844 0.338890 0.105476
H32   H     H_    0.239459 0.280488 0.477853 0.109200
H33   H     H_    0.164755 0.131773 0.335080 0.183294
H34   H     H_    0.560391 0.323218 0.072570 0.150294
H35   H     H_    0.548580 0.222151 0.019678 0.147473
H36   H     H_    0.416325 0.114173 0.164192 0.166001
H37   H     H_    0.494782 0.382303 0.255095 0.134562
H38   H     H_    0.191172 0.182752 0.422845 0.125090
O11   O     O_R   0.323590 0.942280 0.056590 -0.587061
O12   O     O_R   0.647030 0.077140 0.045940 -0.583839
O13   O     O_R   0.813570 0.057750 0.943430 -0.585846
C65   C     C_R   0.478036 0.101077 0.056664 0.953313
O14   O     O_R   0.653510 0.943950 0.062820 -0.588857
O15   O     O_R   0.820100 0.923600 0.960440 -0.592199
C66   C     C_R   0.485542 0.923840 0.078792 0.985287
O16   O     O_R   0.317060 0.076430 0.039590 -0.577573
O17   O     O_3   0.483830 0.993520 0.966410 -0.277423
V3    V     V_3+5 0.760140 0.001200 0.006230 1.200687
O18   O     O_R   0.149560 0.922820 0.954030 -0.593038
C67   C     C_R   0.981462 0.898952 0.943269 0.945055
O19   O     O_R   0.143080 0.056020 0.937150 -0.592631
C68   C     C_R   0.973304 0.076105 0.921307 0.970013
V4    V     V_3+5 0.259690 0.998730 0.993720 1.195151
O20   O     O_3   0.986120 0.006480 0.033580 -0.259137
Cl1   Cl    Cl    0.193536 0.598939 0.841538 -0.527227
Cl2   Cl    Cl    0.666074 0.846096 0.560492 -0.651827
Cl3   Cl    Cl    0.625441 0.268280 0.847997 -0.681963
Cl4   Cl    Cl    0.095671 0.643405 0.233397 -0.688935
Cl5   Cl    Cl    0.126786 0.111383 0.224763 -0.680624
N1    N     N_R   0.052600 0.661421 0.938793 0.266812
O21   O     O_R   0.173899 0.657370 0.979636 -0.340676
O22   O     O_R   0.921412 0.616911 0.933577 -0.294588

loop_
_geom_bond_atom_site_label_1
_geom_bond_atom_site_label_2
_geom_bond_distance
_ccdc_geom_bond_type
C25   H12   1.113192 S    
C13   C19   1.440327 A    
C30   C31   1.556093 S    
C52   C53   1.419115 A    
O11   C66   1.297064 A    
C55   C61   1.437763 A    
C54   C55   1.441255 A    
C15   Cl1   1.767790 S    
C4    C6    1.475713 S    
O2    C1    1.303863 A    
C7    C8    1.397581 A    
C41   C44   1.496452 S    
C63   H32   1.083731 S    
C1    O6    1.297147 A    
C21   H2    1.084154 S    
C56   C57   1.387292 A    
O17   V3    2.152117 S    
C42   C43   1.557751 S    
H19   C40   1.113058 S    
C64   H31   1.076881 S    
C14   C15   1.391585 A    
C60   C61   1.417455 A    
C23   Cl3   1.795972 S    
C16   C17   1.387004 A    
O13   V3    1.956884 S    
C22   H1    1.077181 S    
C23   C28   1.561250 S    
O5    C3    1.296992 A    
C18   C19   1.423385 A    
C54   C58   1.423866 A    
C24   C27   1.553254 S    
C17   H3    1.081884 S    
C53   C57   1.392416 A    
V2    O10   2.147529 S    
C36   C39   1.560255 S    
C30   H16   1.113462 S    
C16   H7    1.076162 S    
C5    C8    1.389114 A    
C61   C64   1.428754 A    
C37   H23   1.112832 S    
C65   O16   1.298081 A    
C50   H35   1.083650 S    
C59   C60   1.392762 A    
C36   Cl4   1.795575 S    
C27   C31   1.554005 S    
O8    V2    1.971305 S    
C43   H25   1.112269 S    
C1    C46   1.457148 S    
C47   C51   1.406464 A    
C26   C32   1.215771 T    
C11   C15   1.416089 A    
C24   H11   1.112595 S    
O16   V4    1.990396 S    
C36   C37   1.562683 S    
H8    C28   1.113146 S    
C59   H33   1.085002 S    
C60   C62   1.403525 A    
C39   C45   1.497944 S    
O9    C4    1.296028 A    
O17   V4    1.701954 S    
C13   C14   1.406126 A    
C49   C53   1.404383 A    
O14   V3    1.962346 S    
O14   C66   1.303945 A    
V3    O20   1.705783 S    
C62   H38   1.084072 S    
C41   C42   1.552870 S    
N1    O22   1.301530 A    
O4    C2    1.295886 A    
C51   H36   1.076951 S    
C42   H26   1.112840 S    
C7    N1    1.434066 S    
C28   C29   1.551401 S    
C5    C9    1.400254 A    
C35   C39   1.555046 S    
C31   H14   1.112340 S    
O15   C67   1.298542 A    
O13   C68   1.296855 A    
C7    C11   1.426475 A    
C40   C41   1.551710 S    
O19   V4    1.971376 S    
C55   C56   1.411983 A    
C17   C18   1.398902 A    
C25   C29   1.552867 S    
C8    H4    1.084279 S    
C43   H24   1.112887 S    
C40   H28   1.112833 S    
C58   C59   1.391004 A    
C9    H5    1.076893 S    
C47   C50   1.395097 A    
C30   H18   1.112993 S    
C38   C44   1.219144 T    
C19   C22   1.426894 A    
C58   Cl5   1.767676 S    
C31   H15   1.113034 S    
C12   C13   1.431189 A    
C6    C22   1.404362 A    
O3    C4    1.298972 A    
C27   C33   1.491958 S    
O1    V2    1.987176 S    
O6    V2    1.961602 S    
C38   C66   1.457177 S    
O9    V2    1.990605 S    
C24   C25   1.556307 S    
C23   H9    1.113158 S    
O18   C67   1.296151 A    
C10   C12   1.438810 A    
C33   C34   1.215664 T    
C49   H34   1.084010 S    
C56   H37   1.075998 S    
O19   C68   1.300830 A    
O2    V1    1.962419 S    
C20   Cl2   1.764704 S    
C3    C26   1.451534 S    
O11   V4    1.961938 S    
V4    O20   2.147549 S    
O7    V1    2.152029 S    
C25   H13   1.113032 S    
C29   C30   1.551826 S    
O12   V3    1.993698 S    
O1    C2    1.300031 A    
C12   C16   1.410255 A    
C45   C46   1.219137 T    
C57   H30   1.084471 S    
O5    V1    1.956719 S    
O8    C3    1.300770 A    
C35   H27   1.113012 S    
C35   C40   1.558166 S    
C20   C21   1.392914 A    
C34   C68   1.451274 S    
O4    V1    1.993561 S    
C48   C63   1.395228 A    
O3    V1    1.988578 S    
V1    O10   1.705968 S    
C18   C20   1.415305 A    
C28   H17   1.113088 S    
C14   H6    1.076485 S    
C49   C50   1.391835 A    
C36   H21   1.113033 S    
C24   H10   1.113108 S    
C35   H20   1.112689 S    
C51   C52   1.423102 A    
O12   C65   1.297292 A    
C37   H22   1.112991 S    
O7    V2    1.702996 S    
C5    C67   1.475196 S    
C6    C21   1.392855 A    
O18   V4    1.990646 S    
C42   H29   1.113172 S    
C52   C54   1.440701 A    
C39   C43   1.553842 S    
C48   C64   1.407904 A    
C62   C63   1.390236 A    
C10   C11   1.428843 A    
N1    O21   1.301399 A    
C37   C41   1.552457 S    
C9    C10   1.425801 A    
C47   C65   1.474243 S    
O15   V3    1.988696 S    
C23   C27   1.560902 S    
C29   C32   1.490580 S    
C2    C48   1.475776 S    
