data_mof_unit_18204.cif
_audit_creation_date              2013-03-05T15:52:28-0500
_audit_creation_method            fapswitch 2.2
_symmetry_space_group_name_H-M    P1
_symmetry_Int_Tables_number       1
_space_group_crystal_system       triclinic
_cell_length_a                    27.817987
_cell_length_b                    10.805992
_cell_length_c                    9.591345
_cell_angle_alpha                 90.705354
_cell_angle_beta                  89.986503
_cell_angle_gamma                 93.543441
_cell_volume                      2877.4369473

loop_
_atom_site_label
_atom_site_type_symbol
_atom_site_description
_atom_site_fract_x
_atom_site_fract_y
_atom_site_fract_z
_atom_type_partial_charge
O1    O     O_R   0.500000 0.319640 0.618810 -0.564097
O2    O     O_R   0.500000 0.319660 0.381240 -0.579859
C1    C     C_R   0.497303 0.262229 0.499021 0.864161
O3    O     O_R   0.430260 0.500010 0.618770 -0.590221
O4    O     O_R   0.430270 0.500030 0.381200 -0.584314
C2    C     C_R   0.407714 0.504741 0.500108 0.817842
Cu1   Cu    Cu3+1 0.500000 0.499990 0.640660 0.933535
Cu2   Cu    Cu3+1 0.500000 0.500010 0.359340 0.935555
O5    O     O_R   0.500000 0.680340 0.618760 -0.609235
O6    O     O_R   0.500000 0.680360 0.381190 -0.589084
O7    O     O_R   0.569730 0.499970 0.618800 -0.598297
O8    O     O_R   0.569740 0.499990 0.381230 -0.601121
C3    C     C_R   0.498892 0.737200 0.501032 0.764884
C4    C     C_R   0.592484 0.500956 0.499997 0.793816
C5    C     C_R   0.176464 0.412795 0.542338 0.530493
O9    O     O_2   0.199139 0.311168 0.579008 -0.544445
N1    N     N_R   0.202781 0.517574 0.502723 -0.468259
C6    C     C_R   0.180900 0.621653 0.463780 0.533537
C7    C     C_R   0.279640 0.515590 0.627969 -0.104451
C8    C     C_R   0.329651 0.512580 0.627464 -0.246105
C9    C     C_R   0.329404 0.515112 0.374505 -0.229612
C10   C     C_R   0.279372 0.518411 0.375345 -0.109393
C11   C     C_R   0.254331 0.517988 0.501999 0.362389
C12   C     C_R   0.102538 0.516128 0.504340 -0.044021
C13   C     C_R   0.125955 0.410192 0.544082 -0.018317
C14   C     C_R   0.098626 0.303767 0.583581 -0.148735
C15   C     C_R   0.130440 0.622824 0.463741 -0.021211
C16   C     C_R   0.354982 0.511328 0.500635 -0.036890
H1    H     H_    0.347944 0.514358 0.275239 0.158437
H2    H     H_    0.259957 0.519914 0.277601 0.139901
H3    H     H_    0.115753 0.220538 0.612961 0.186742
C17   C     C_R   0.645472 0.503001 0.499810 -0.066116
C18   C     C_R   0.972799 0.408034 0.553728 0.041829
C19   C     C_R   0.977174 0.619754 0.457834 0.042187
C20   C     C_R   0.949728 0.513278 0.505664 0.068720
C21   C     C_R   0.943687 0.306757 0.605754 -0.206725
C22   C     C_R   0.893795 0.307028 0.605792 -0.146987
C23   C     C_R   0.870782 0.408340 0.554903 -0.019974
C24   C     C_R   0.898548 0.511948 0.505298 -0.044177
C25   C     C_R   0.874989 0.614210 0.455363 -0.029559
C26   C     C_R   0.824444 0.610807 0.455428 0.578746
N2    N     N_R   0.798232 0.508336 0.502252 -0.456126
C27   C     C_R   0.820334 0.408376 0.552477 0.512016
C28   C     C_R   0.721252 0.501830 0.372106 0.304285
C29   C     C_R   0.670885 0.501793 0.373213 -0.293904
C30   C     C_R   0.671080 0.506411 0.626043 -0.224265
C31   C     C_R   0.721169 0.508028 0.625764 -0.162259
C32   C     C_R   0.746543 0.505681 0.499670 0.336503
O10   O     O_2   0.793520 0.308658 0.598288 -0.544441
C33   C     C_R   0.023880 0.407496 0.548997 0.042722
C34   C     C_R   0.051370 0.515307 0.505074 0.067526
C35   C     C_R   0.028350 0.622244 0.461760 0.041745
C36   C     C_R   0.048696 0.302048 0.585730 -0.207132
H4    H     H_    0.651710 0.499323 0.274794 0.164552
H5    H     H_    0.873271 0.226838 0.646261 0.187917
H6    H     H_    0.958163 0.225694 0.649443 0.139926
H7    H     H_    0.030730 0.215153 0.614826 0.138631
O11   O     O_2   0.207912 0.723865 0.426099 -0.537995
C37   C     C_R   0.107542 0.728450 0.424985 -0.146028
H8    H     H_    0.348371 0.510113 0.726283 0.152684
H9    H     H_    0.260456 0.515512 0.726222 0.138812
H10   H     H_    0.128183 0.812236 0.394946 0.188271
C38   C     C_R   0.952190 0.720119 0.406645 -0.204744
C39   C     C_R   0.902216 0.717259 0.405917 -0.148144
O12   O     O_2   0.801644 0.709347 0.409840 -0.536675
C40   C     C_R   0.057625 0.728559 0.424241 -0.206034
H11   H     H_    0.970023 0.802363 0.363986 0.139132
H12   H     H_    0.652474 0.508178 0.725197 0.171154
H13   H     H_    0.884966 0.796633 0.365609 0.186126
H14   H     H_    0.740450 0.511505 0.723967 0.155374
H15   H     H_    0.043288 0.814831 0.395276 0.138896
H16   H     H_    0.554092 0.120315 0.358356 0.155523
C41   C     C_R   0.415491 0.111832 0.629826 0.230532
C42   C     C_R   0.384612 0.042635 0.718816 -0.174338
H17   H     H_    0.353737 0.083834 0.764870 0.147209
C43   C     C_R   0.390368 0.917474 0.737986 -0.169210
H18   H     H_    0.365089 0.863545 0.802290 0.155969
C44   C     C_R   0.426199 0.859316 0.666043 -0.181378
H19   H     H_    0.426139 0.760060 0.675945 0.171002
C45   C     C_R   0.459962 0.928118 0.582407 0.054267
C46   C     C_R   0.456456 0.057946 0.571299 0.066296
C47   C     C_R   0.492629 0.127439 0.495526 -0.096663
C48   C     C_R   0.527058 0.067644 0.418368 -0.206875
H20   H     H_    0.555029 0.895865 0.359364 0.140563
C49   C     C_R   0.527923 0.940180 0.420124 -0.194906
C50   C     C_R   0.495629 0.870433 0.503541 -0.072675
H21   H     H_    0.444835 0.359057 0.127301 0.131389
C51   C     C_R   0.564902 0.665259 0.146158 -0.152069
H22   H     H_    0.567975 0.672863 0.256250 0.192842
C52   C     C_R   0.596560 0.746119 0.074773 -0.214549
H23   H     H_    0.621417 0.809114 0.131749 0.156096
C53   C     C_R   0.596313 0.746575 0.931017 -0.200629
H24   H     H_    0.620979 0.809915 0.875553 0.159460
C54   C     C_R   0.564454 0.666040 0.857743 -0.148350
H25   H     H_    0.567066 0.674060 0.747772 0.198211
C55   C     C_R   0.531739 0.581572 0.926173 0.205912
C56   C     C_R   0.531845 0.581330 0.075811 0.215692
N3    N     N_R   0.500460 0.501210 0.147910 -0.198758
C57   C     C_R   0.469674 0.422536 0.072876 -0.063264
H26   H     H_    0.444896 0.358981 0.868702 0.134604
C58   C     C_R   0.469707 0.422512 0.924896 -0.061085
N4    N     N_R   0.500480 0.501290 0.852040 -0.200475
N5    N     N_2   0.399456 0.224551 0.577984 -0.440086
H27   H     H_    0.381435 0.275403 0.650718 0.247644
C59   C     C_3   0.374263 0.211148 0.445309 -0.666870
H28   H     H_    0.336942 0.241204 0.456184 0.238507
H29   H     H_    0.371987 0.113744 0.405440 0.233703
H30   H     H_    0.393551 0.269190 0.366196 0.229419
N6    N     N_2   0.746336 0.499873 0.242819 -0.414585
H31   H     H_    0.728932 0.541934 0.162851 0.253971
C60   C     C_3   0.761600 0.379193 0.201731 -0.656280
H32   H     H_    0.782270 0.387141 0.102841 0.231920
H33   H     H_    0.729742 0.313391 0.185079 0.223767
H34   H     H_    0.785288 0.342253 0.282295 0.248454

loop_
_geom_bond_atom_site_label_1
_geom_bond_atom_site_label_2
_geom_bond_distance
_ccdc_geom_bond_type
Cu2   N3    2.028131 S    
C26   N2    1.368128 A    
C58   N4    1.367502 A    
C55   N4    1.380649 A    
C41   C42   1.400528 A    
C20   C24   1.422908 A    
C7    C8    1.393591 A    
C12   C15   1.408420 A    
C56   N3    1.382398 A    
Cu1   Cu2   2.698240 S    
C49   C50   1.395005 A    
Cu1   O7    1.951011 S    
C59   H29   1.113528 S    
N1    C11   1.433771 S    
C42   C43   1.386207 A    
C21   C22   1.388065 A    
C43   C44   1.389613 A    
N6    C60   1.446339 S    
C37   C40   1.388706 A    
C23   C24   1.408013 A    
O7    C4    1.303193 A    
C44   C45   1.416491 A    
C5    C13   1.403704 A    
C5    O9    1.350116 S    
C18   C21   1.416416 A    
Cu1   O5    1.962717 S    
C19   C20   1.421783 A    
C17   C29   1.405226 A    
O5    C3    1.293422 A    
C53   H24   1.083064 S    
C45   C50   1.417608 A    
H20   C49   1.084004 S    
C6    O11   1.349918 S    
C2    C16   1.473027 S    
C31   C32   1.400917 A    
Cu1   N4    2.027337 S    
C3    C50   1.448064 S    
C8    H8    1.082950 S    
C51   C56   1.416185 A    
C28   N6    1.423308 S    
C12   C34   1.422886 A    
C14   H3    1.083765 S    
C9    C10   1.394460 A    
O3    Cu1   1.951420 S    
C41   C46   1.423538 A    
C46   C47   1.422807 A    
H21   C57   1.081895 S    
C59   H30   1.107686 S    
C38   H11   1.075963 S    
C33   C36   1.416451 A    
C42   H17   1.083153 S    
C34   C35   1.421766 A    
C12   C13   1.408232 A    
O3    C2    1.302696 A    
C4    C17   1.472828 S    
C24   C25   1.408085 A    
C36   H7    1.075987 S    
C44   H19   1.077818 S    
C27   O10   1.350073 S    
C26   O12   1.349955 S    
C8    C16   1.406018 A    
C33   C34   1.421729 A    
C18   C33   1.422052 A    
C9    H1    1.082900 S    
O1    C1    1.298962 A    
C7    C11   1.399849 A    
C31   H14   1.083118 S    
C30   H12   1.083151 S    
C22   C23   1.395187 A    
C21   H6    1.076008 S    
C52   C53   1.378906 A    
C40   H15   1.075971 S    
Cu2   O8    1.951414 S    
C55   C56   1.435265 A    
C1    C47   1.454272 S    
C53   C54   1.388018 A    
N1    C6    1.367464 A    
C60   H33   1.111711 S    
N2    C32   1.436635 S    
C39   H13   1.083761 S    
C43   H18   1.082808 S    
C54   C55   1.415598 A    
C25   C26   1.404287 A    
C48   C49   1.379373 A    
C9    C16   1.405945 A    
O8    C4    1.302789 A    
C29   H4    1.083602 S    
C47   C48   1.395300 A    
N5    C59   1.454244 S    
N2    C27   1.368166 A    
C14   C36   1.388071 A    
C35   C40   1.416645 A    
C28   C29   1.401113 A    
C5    N1    1.367579 A    
C30   C31   1.392418 A    
C37   H10   1.083747 S    
C10   H2    1.082849 S    
C60   H32   1.110522 S    
C57   C58   1.419324 A    
O1    Cu1   1.957529 S    
C17   C30   1.403843 A    
O2    Cu2   1.962717 S    
C6    C15   1.404560 A    
C51   C52   1.388209 A    
C45   C46   1.417614 A    
O6    C3    1.297835 A    
O4    Cu2   1.951013 S    
C59   H28   1.111304 S    
C19   C35   1.422702 A    
C25   C39   1.395386 A    
O2    C1    1.295536 A    
C13   C14   1.395197 A    
C23   C27   1.403570 A    
C15   C37   1.395386 A    
N6    H31   1.032092 S    
C52   H23   1.083057 S    
O4    C2    1.303527 A    
C7    H9    1.082871 S    
C19   C38   1.416595 A    
C18   C20   1.421640 A    
C60   H34   1.109515 S    
C54   H25   1.061492 S    
H16   C48   1.084313 S    
C38   C39   1.388640 A    
C22   H5    1.083763 S    
C41   N5    1.418449 S    
C51   H22   1.061167 S    
Cu2   O6    1.957530 S    
N3    C57   1.367243 A    
N5    H27   1.031698 S    
C10   C11   1.400109 A    
H26   C58   1.081972 S    
C28   C32   1.410393 A    
