data_mof_unit_46493.cif
_audit_creation_date              2013-03-05T16:30:42-0500
_audit_creation_method            fapswitch 2.2
_symmetry_space_group_name_H-M    P1
_symmetry_Int_Tables_number       1
_space_group_crystal_system       triclinic
_cell_length_a                    10.921932
_cell_length_b                    10.891341
_cell_length_c                    9.668271
_cell_angle_alpha                 89.862668
_cell_angle_beta                  90.223538
_cell_angle_gamma                 91.458302
_cell_volume                      1149.69991883

loop_
_atom_site_label
_atom_site_type_symbol
_atom_site_description
_atom_site_fract_x
_atom_site_fract_y
_atom_site_fract_z
_atom_type_partial_charge
O1    O     O_R   0.500000 0.319640 0.618810 -0.570231
O2    O     O_R   0.500010 0.319680 0.381230 -0.520114
C1    C     C_R   0.502732 0.262943 0.499800 0.840017
O3    O     O_R   0.321940 0.499980 0.618760 -0.530870
O4    O     O_R   0.321950 0.500020 0.381180 -0.559706
C2    C     C_R   0.266326 0.502430 0.499551 0.879624
Cu1   Cu    Cu3+1 0.499990 0.499980 0.640670 1.038929
Cu2   Cu    Cu3+1 0.500010 0.500020 0.359330 1.087803
O5    O     O_R   0.499990 0.680320 0.618770 -0.578348
O6    O     O_R   0.500000 0.680360 0.381190 -0.568467
O7    O     O_R   0.678050 0.499980 0.618820 -0.599283
O8    O     O_R   0.678060 0.500020 0.381240 -0.546661
C3    C     C_R   0.499602 0.737205 0.499951 0.850163
C4    C     C_R   0.733745 0.493021 0.500879 0.881412
C5    C     C_2   0.935461 0.443152 0.403467 0.153612
C6    C     C_2   0.864588 0.475640 0.509046 -0.284521
H1    H     H_    0.903812 0.482187 0.612041 0.143197
C7    C     C_2   0.067508 0.433060 0.426720 -0.172166
C8    C     C_2   0.135990 0.516843 0.496942 0.045670
H2    H     H_    0.111705 0.355956 0.378209 0.194158
C9    C     C_R   0.459958 0.063463 0.613063 0.027463
C10   C     C_R   0.501390 0.129443 0.497395 -0.195629
C11   C     C_R   0.531480 0.063488 0.376032 0.337112
C12   C     C_R   0.517665 0.935529 0.375891 -0.185222
H3    H     H_    0.536141 0.886891 0.282562 0.261898
C13   C     C_R   0.495289 0.870512 0.498525 -0.090780
C14   C     C_R   0.467720 0.937311 0.616410 -0.036029
C15   C     C_3   0.515431 0.936365 0.762402 0.139723
C16   C     C_3   0.496464 0.074861 0.761969 -0.062403
H4    H     H_    0.456871 0.882233 0.835310 0.148075
H5    H     H_    0.580220 0.133285 0.779318 0.215717
C17   C     C_R   0.606485 0.513132 0.072409 0.132275
N1    N     N_R   0.500780 0.500930 0.147930 -0.247151
C18   C     C_R   0.398538 0.464340 0.074195 0.357820
C19   C     C_R   0.396626 0.469986 0.927024 0.339285
N2    N     N_R   0.500780 0.500890 0.852020 -0.253412
C20   C     C_R   0.606955 0.508832 0.926549 0.104890
C21   C     C_3   0.704745 0.605235 0.914302 -0.420312
C22   C     C_3   0.701287 0.615140 0.071428 0.148261
H6    H     H_    0.791644 0.567316 0.875494 0.183122
H7    H     H_    0.673070 0.686699 0.857175 0.269585
H8    H     H_    0.788751 0.591543 0.122015 0.130998
N3    N     N_3   0.884682 0.407621 0.272201 -0.509075
H9    H     H_    0.932484 0.457155 0.196108 0.248794
H10   H     H_    0.903862 0.315114 0.256966 0.278467
N4    N     N_R   0.295898 0.407875 0.142526 0.151092
O9    O     O_R   0.188746 0.457039 0.134758 -0.342873
O10   O     O_R   0.304775 0.297179 0.191684 -0.347609
N5    N     N_R   0.283658 0.438589 0.860052 0.168820
O11   O     O_R   0.261588 0.326433 0.819724 -0.312175
O12   O     O_R   0.195158 0.516405 0.860197 -0.333226
N6    N     N_R   0.654697 0.732622 0.116417 0.167712
O13   O     O_R   0.550086 0.770803 0.070254 -0.374725
O14   O     O_R   0.726636 0.807284 0.185606 -0.305775
N7    N     N_3   0.090629 0.630912 0.548270 -0.571658
H11   H     H_    0.049308 0.616976 0.644340 0.263456
H12   H     H_    0.029020 0.668398 0.477756 0.254607
N8    N     N_R   0.590487 0.121632 0.259468 0.162817
O15   O     O_R   0.683906 0.195970 0.279853 -0.341776
O16   O     O_R   0.572402 0.077876 0.135884 -0.317818
N9    N     N_R   0.646309 0.910712 0.775145 0.130038
O17   O     O_R   0.709229 0.870475 0.671336 -0.361924
O18   O     O_R   0.702795 0.935776 0.890726 -0.248965
N10   N     N_3   0.393132 0.111195 0.847258 -0.484013
H13   H     H_    0.416360 0.097939 0.950815 0.288113
H14   H     H_    0.316237 0.054582 0.827084 0.248194

loop_
_geom_bond_atom_site_label_1
_geom_bond_atom_site_label_2
_geom_bond_distance
_ccdc_geom_bond_type
C19   N5    1.425439 S    
C11   N8    1.438025 S    
C21   H6    1.111577 S    
C11   C12   1.397964 A    
C20   C21   1.483415 S    
C18   N4    1.428309 S    
C5    C7    1.465611 S    
Cu1   N2    2.043420 S    
C19   N2    1.385268 A    
O8    C4    1.307710 A    
Cu2   O8    1.955332 S    
N10   H13   1.042512 S    
N7    H11   1.043342 S    
C15   H4    1.111691 S    
O2    C1    1.301603 A    
C9    C14   1.379024 A    
C16   N10   1.463498 S    
C5    N3    1.433151 S    
Cu1   Cu2   2.720071 S    
C16   H5    1.113340 S    
C9    C10   1.398326 A    
C15   N9    1.468110 S    
Cu1   O7    1.957017 S    
C2    C8    1.436237 S    
N3    H10   1.045173 S    
C15   C16   1.527772 S    
C13   C14   1.391684 A    
O4    C2    1.298420 A    
N6    O13   1.302647 A    
O3    Cu1   1.955332 S    
Cu2   O6    1.975989 S    
N2    C20   1.363861 A    
N6    O14   1.300785 A    
N1    C18   1.373499 A    
C22   H8    1.107278 S    
C7    H2    1.087423 S    
Cu2   N1    2.043923 S    
N7    H12   1.045622 S    
N3    H9    1.044806 S    
N9    O17   1.301705 A    
O7    C4    1.297772 A    
C4    C6    1.448124 S    
C3    C13   1.453889 S    
O4    Cu2   1.957018 S    
C17   C20   1.411139 A    
N8    O16   1.299954 A    
C5    C6    1.337232 D    
N4    O10   1.300642 A    
Cu1   O5    1.975018 S    
C21   C22   1.523900 S    
C12   H3    1.069902 S    
C21   H7    1.106224 S    
O3    C2    1.301243 A    
C18   C19   1.424169 A    
N4    O9    1.301154 A    
C17   C22   1.499328 S    
C8    N7    1.439227 S    
C14   C15   1.502806 S    
N5    O11   1.299557 A    
O5    C3    1.303931 A    
C10   C11   1.421227 A    
C7    C8    1.348084 D    
C1    C10   1.453940 S    
N5    O12   1.301647 A    
N8    O15   1.300978 A    
O1    Cu1   1.975990 S    
C9    C16   1.496958 S    
N9    O18   1.300535 A    
O2    Cu2   1.975018 S    
C22   N6    1.457004 S    
C17   N1    1.371854 A    
C12   C13   1.398705 A    
C6    H1    1.084277 S    
O1    C1    1.307950 A    
O6    C3    1.305869 A    
N10   H14   1.047144 S    
