data_mof_unit_37918.cif
_audit_creation_date              2012-12-10T19:46:55-0500
_audit_creation_method            fapswitch 2.2
_symmetry_space_group_name_H-M    P1
_symmetry_Int_Tables_number       1
_space_group_crystal_system       triclinic
_cell_length_a                    10.89736
_cell_length_b                    10.898135
_cell_length_c                    13.121034
_cell_angle_alpha                 90.369161
_cell_angle_beta                  90.129183
_cell_angle_gamma                 90.120201
_cell_volume                      1558.22603061

loop_
_atom_site_label
_atom_site_type_symbol
_atom_type_description
_atom_site_fract_x
_atom_site_fract_y
_atom_site_fract_z
_atom_type_partial_charge
C1    C     C_R   0.492251 0.259649 0.499441 0.819845
C2    C     C_R   0.686402 0.822448 0.692810 -0.109515
C3    C     C_R   0.426535 0.115750 0.311713 0.120648
C4    C     C_R   0.573509 0.884252 0.688276 0.120636
C5    C     C_R   0.497857 0.104456 0.223086 -0.157090
C6    C     C_R   0.502246 0.895589 0.776931 -0.157136
C7    C     C_R   0.457601 0.156001 0.131604 -0.147822
C8    C     C_R   0.542537 0.844045 0.868402 -0.147819
C9    C     C_R   0.345551 0.217996 0.127804 -0.115973
C10   C     C_R   0.654563 0.782005 0.872163 -0.115981
C11   C     C_R   0.479306 0.932774 0.410839 -0.252292
C12   C     C_R   0.507749 0.740350 0.500558 0.819845
C13   C     C_R   0.520698 0.067226 0.589160 -0.252292
C14   C     C_R   0.508783 0.873031 0.501595 -0.093230
C15   C     C_R   0.491221 0.126969 0.498403 -0.093223
C16   C     C_R   0.259665 0.506900 0.499689 0.820329
C17   C     C_R   0.740334 0.493096 0.500311 0.820311
C18   C     C_R   0.532026 0.940756 0.591725 0.002084
C19   C     C_R   0.467986 0.059244 0.408273 0.002065
C20   C     C_1   0.500018 0.500070 0.173574 0.159744
C21   C     C_1   0.499983 0.499930 0.826426 0.159733
C22   C     C_1   0.500010 0.500045 0.050683 -0.101262
C23   C     C_R   0.872924 0.492225 0.501081 -0.096577
C24   C     C_1   0.499991 0.499956 0.949317 -0.101252
C25   C     C_R   0.237295 0.753872 0.235711 -0.130639
C26   C     C_R   0.762684 0.246138 0.764294 -0.130630
C27   C     C_R   0.184943 0.705309 0.324012 -0.106181
C28   C     C_R   0.815028 0.294702 0.675990 -0.106136
C29   C     C_R   0.117854 0.595084 0.319192 0.128216
C30   C     C_R   0.882148 0.404909 0.680812 0.128207
C31   C     C_R   0.102658 0.535447 0.224745 -0.157245
C32   C     C_R   0.897385 0.464521 0.775265 -0.157293
C33   C     C_R   0.156610 0.583430 0.136982 -0.141502
C34   C     C_R   0.127076 0.507768 0.498919 -0.096574
C35   C     C_R   0.843441 0.416538 0.863032 -0.141494
C36   C     C_R   0.223934 0.692540 0.142472 -0.113397
C37   C     C_R   0.776084 0.307449 0.857539 -0.113402
C38   C     C_R   0.933152 0.534251 0.413967 -0.244139
C39   C     C_R   0.066848 0.465740 0.586032 -0.244138
C40   C     C_R   0.940035 0.456097 0.588038 -0.002739
C41   C     C_R   0.059965 0.543895 0.411963 -0.002744
C42   C     C_R   0.273587 0.228489 0.215440 -0.120053
C43   C     C_R   0.726470 0.771470 0.784500 -0.120038
C44   C     C_R   0.313622 0.177512 0.307142 -0.109569
Cu1   Cu    Cu3+1 0.499990 0.499990 0.592680 0.978620
Cu2   Cu    Cu3+1 0.500010 0.500010 0.407320 0.978627
H1    H     H_    0.265141 0.729943 0.074380 0.122373
H2    H     H_    0.119072 0.436368 0.651984 0.156771
H3    H     H_    0.314440 0.257803 0.056958 0.125908
H4    H     H_    0.685701 0.742198 0.943000 0.125909
H5    H     H_    0.256774 0.185863 0.374444 0.105409
H6    H     H_    0.743208 0.814065 0.625487 0.105393
H7    H     H_    0.513165 0.147746 0.063627 0.126254
H8    H     H_    0.487019 0.852335 0.936401 0.126269
H9    H     H_    0.287587 0.839433 0.239246 0.124183
H10   H     H_    0.712369 0.160590 0.760758 0.124179
H11   H     H_    0.196071 0.753663 0.395840 0.104372
H12   H     H_    0.734883 0.270044 0.925633 0.122361
H13   H     H_    0.803871 0.246362 0.604158 0.104363
H14   H     H_    0.145682 0.536351 0.064627 0.124071
H15   H     H_    0.854402 0.463599 0.935391 0.124073
H16   H     H_    0.186485 0.275535 0.212206 0.120563
H17   H     H_    0.813555 0.724391 0.787703 0.120580
H18   H     H_    0.584705 0.056371 0.225084 0.124193
H19   H     H_    0.415417 0.943708 0.774963 0.124200
H20   H     H_    0.461437 0.880394 0.341933 0.152652
H21   H     H_    0.538566 0.119606 0.658065 0.152639
H22   H     H_    0.049452 0.451638 0.219305 0.113717
H23   H     H_    0.950619 0.548314 0.780708 0.113725
H24   H     H_    0.880930 0.563622 0.348015 0.156772
N1    N     N_1   0.500030 0.500030 0.268070 -0.130992
N2    N     N_1   0.499970 0.499970 0.731930 -0.130997
O1    O     O_R   0.499980 0.319630 0.578260 -0.586575
O2    O     O_R   0.500020 0.680370 0.421740 -0.586569
O3    O     O_R   0.500000 0.319650 0.421740 -0.567512
O4    O     O_R   0.500000 0.680350 0.578260 -0.567513
O5    O     O_R   0.319630 0.500000 0.578260 -0.588064
O6    O     O_R   0.680370 0.500000 0.421740 -0.588062
O7    O     O_R   0.319650 0.500020 0.421740 -0.567082
O8    O     O_R   0.680350 0.499980 0.578260 -0.567091

loop_
_geom_bond_atom_site_label_1
_geom_bond_atom_site_label_2
_ccdc_geom_bond_type
C38   H24   S    
C12   O2    A    
C27   C29   A    
C14   C18   A    
C43   H17   S    
Cu1   Cu2   S    
C15   C19   A    
C11   C19   A    
C9    C42   A    
C17   C23   S    
C13   C18   A    
Cu1   O4    S    
C35   C37   A    
Cu2   O7    S    
C11   C14   A    
C23   C40   A    
C33   C36   A    
C36   H1    S    
Cu1   O1    S    
C16   O5    A    
C16   C34   S    
C6    H19   S    
C31   C33   A    
C20   N1    T    
C3    C19   S    
C1    C15   S    
C42   H16   S    
C37   H12   S    
C11   H20   S    
C4    C18   S    
Cu1   N2    S    
C34   C41   A    
C42   C44   A    
Cu2   O3    S    
C31   H22   S    
C3    C44   A    
C21   N2    T    
C34   C39   A    
C1    O3    A    
C32   C35   A    
C9    H3    S    
C38   C41   A    
C4    C6    A    
C27   H11   S    
C8    H8    S    
C39   C40   A    
C5    C7    A    
C6    C8    A    
C17   O8    A    
C5    H18   S    
C2    C4    A    
C2    C43   A    
C30   C40   S    
C35   H15   S    
Cu2   N1    S    
C2    H6    S    
C44   H5    S    
C12   C14   S    
C33   H14   S    
C13   C15   A    
C12   O4    A    
C22   C24   T    
C7    H7    S    
C10   H4    S    
Cu2   O2    S    
Cu2   O6    S    
C13   H21   S    
C28   H13   S    
C7    C9    A    
C29   C41   S    
C10   C43   A    
C25   H9    S    
C20   C22   S    
C3    C5    A    
C26   H10   S    
C26   C37   A    
C32   H23   S    
C25   C27   A    
C23   C38   A    
C26   C28   A    
C16   O7    A    
C1    O1    A    
C28   C30   A    
C29   C31   A    
C30   C32   A    
C17   O6    A    
Cu1   O8    S    
C25   C36   A    
C8    C10   A    
C21   C24   S    
Cu1   O5    S    
C39   H2    S    
