data_mof_unit_7664.cif
_audit_creation_date              2013-03-05T16:11:39-0500
_audit_creation_method            fapswitch 2.2
_symmetry_space_group_name_H-M    P1
_symmetry_Int_Tables_number       1
_space_group_crystal_system       triclinic
_cell_length_a                    10.857699
_cell_length_b                    9.733288
_cell_length_c                    19.254854
_cell_angle_alpha                 91.083305
_cell_angle_beta                  87.269174
_cell_angle_gamma                 90.605629
_cell_volume                      2032.1049936

loop_
_atom_site_label
_atom_site_type_symbol
_atom_site_description
_atom_site_fract_x
_atom_site_fract_y
_atom_site_fract_z
_atom_type_partial_charge
O1    O     O_R   0.317570 0.620260 0.500040 -0.565989
O2    O     O_R   0.317570 0.379740 0.500040 -0.581914
C1    C     C_R   0.259894 0.499203 0.499690 0.745998
O3    O     O_R   0.499870 0.620300 0.400170 -0.558658
O4    O     O_R   0.499870 0.379700 0.400170 -0.535128
C2    C     C_R   0.498718 0.499118 0.368295 0.823598
Cu1   Cu    Cu3+1 0.499860 0.642410 0.500030 0.983483
Cu2   Cu    Cu3+1 0.499860 0.357590 0.500030 1.010100
O5    O     O_R   0.682190 0.620260 0.500020 -0.579606
O6    O     O_R   0.682190 0.379740 0.500020 -0.557388
O7    O     O_R   0.499890 0.620220 0.599880 -0.580258
O8    O     O_R   0.499890 0.379780 0.599880 -0.546835
C3    C     C_R   0.738316 0.500526 0.501347 0.840848
C4    C     C_R   0.497179 0.501425 0.631907 0.860171
C5    C     C_R   0.417322 0.589733 0.260769 -0.172495
C6    C     C_R   0.573672 0.414625 0.251823 -0.135145
H1    H     H_    0.357853 0.656657 0.292721 0.178592
H2    H     H_    0.636903 0.347474 0.276026 0.225027
C7    C     C_R   0.419256 0.599571 0.188327 0.336480
C8    C     C_R   0.575104 0.419410 0.179473 0.312113
C9    C     C_R   0.497508 0.511931 0.146846 -0.182491
C10   C     C_R   0.494959 0.498814 0.292546 -0.130079
N1    N     N_R   0.384654 0.517528 0.039290 -0.135674
N2    N     N_R   0.599750 0.506760 0.030260 -0.113328
N3    N     N_R   0.381492 0.518938 0.970328 -0.127996
N4    N     N_R   0.596651 0.507119 0.961352 -0.127863
C11   C     C_R   0.487529 0.513599 0.930201 0.502207
C12   C     C_R   0.493946 0.511894 0.070495 0.482959
C13   C     C_R   0.566768 0.602802 0.815536 0.302819
C14   C     C_R   0.402363 0.428140 0.818496 0.336726
C15   C     C_R   0.570218 0.595438 0.742946 -0.173563
C16   C     C_R   0.403883 0.429262 0.745875 -0.279615
H3    H     H_    0.632202 0.662045 0.713590 0.231993
H4    H     H_    0.335663 0.369992 0.719142 0.160443
C17   C     C_R   0.491782 0.506527 0.708003 -0.148424
C18   C     C_R   0.485016 0.515109 0.853997 -0.175675
C19   C     C_3   0.067745 0.603399 0.554985 -0.445646
C20   C     C_3   0.065186 0.357520 0.522337 -0.408544
H5    H     H_    0.108830 0.704332 0.546669 0.187501
H6    H     H_    0.100955 0.275098 0.486629 0.168125
H7    H     H_    0.094101 0.572778 0.607479 0.199515
H8    H     H_    0.092152 0.341201 0.575555 0.214477
C21   C     C_3   0.927036 0.617580 0.550761 0.217662
C22   C     C_3   0.923324 0.354220 0.522386 0.198888
H9    H     H_    0.911833 0.716024 0.523682 0.120857
H10   H     H_    0.898125 0.281200 0.479887 0.123883
H11   H     H_    0.107132 0.630106 0.409289 0.187479
H12   H     H_    0.109441 0.450954 0.388894 0.190697
H13   H     H_    0.897205 0.627802 0.409785 0.219002
H14   H     H_    0.898014 0.447533 0.391284 0.208840
C23   C     C_3   0.073111 0.529045 0.427334 -0.378036
C24   C     C_3   0.119975 0.498005 0.500346 0.037080
C25   C     C_3   0.875352 0.499771 0.503272 -0.081667
C26   C     C_3   0.930096 0.527660 0.428503 -0.493993
C27   C     C_3   0.622564 0.083794 0.518610 -0.226888
C28   C     C_3   0.617968 0.919600 0.525627 -0.308120
H15   H     H_    0.658133 0.135016 0.565151 0.239858
H16   H     H_    0.638440 0.886162 0.577415 0.183268
H17   H     H_    0.697011 0.109672 0.480281 0.231874
H18   H     H_    0.699465 0.873201 0.498811 0.236379
C29   C     C_3   0.412153 0.084321 0.559276 0.465663
C30   C     C_3   0.395946 0.916429 0.550175 0.492004
C31   C     C_3   0.473750 0.077292 0.431870 0.182169
C32   C     C_3   0.491414 0.914960 0.429718 0.204339
N5    N     N_3   0.500250 0.143650 0.501520 -0.244996
N6    N     N_3   0.500250 0.856350 0.501520 -0.248272
H19   H     H_    0.378003 0.101318 0.422081 0.051113
H20   H     H_    0.411784 0.870973 0.405706 0.118367
N7    N     N_2   0.455019 0.129823 0.629379 -0.398548
H21   H     H_    0.401858 0.202953 0.654444 0.289586
C33   C     C_3   0.537086 0.078082 0.680455 -0.603006
H22   H     H_    0.575459 0.166871 0.709793 0.268246
H23   H     H_    0.617697 0.022692 0.659142 0.230478
H24   H     H_    0.484225 0.015290 0.719348 0.245712
N8    N     N_2   0.403189 0.857802 0.620411 -0.408727
H25   H     H_    0.487523 0.842002 0.640004 0.269177
C34   C     C_3   0.305893 0.780204 0.657707 -0.591694
H26   H     H_    0.279641 0.688014 0.627414 0.233470
H27   H     H_    0.223531 0.842418 0.671253 0.221055
H28   H     H_    0.339580 0.745537 0.707974 0.224902
N9    N     N_R   0.542757 0.136331 0.371536 0.189335
O9    O     O_R   0.494165 0.127444 0.311056 -0.300831
O10   O     O_R   0.655550 0.181949 0.374271 -0.339522
N10   N     N_R   0.593463 0.872619 0.379398 0.184266
O11   O     O_R   0.564793 0.825982 0.318376 -0.292501
O12   O     O_R   0.706943 0.913572 0.385474 -0.337367
N11   N     N_2   0.289869 0.144749 0.555409 -0.427847
H29   H     H_    0.250516 0.141351 0.508297 0.250475
C35   C     C_3   0.202114 0.133851 0.615154 -0.684090
H30   H     H_    0.110141 0.102895 0.597772 0.272455
H31   H     H_    0.197224 0.232612 0.644625 0.238167
H32   H     H_    0.230618 0.058269 0.652905 0.247893
N12   N     N_2   0.269825 0.880593 0.526497 -0.410481
H33   H     H_    0.202047 0.897194 0.564357 0.268103
C36   C     C_3   0.211348 0.884276 0.459629 -0.738470
H34   H     H_    0.109589 0.874350 0.467877 0.223995
H35   H     H_    0.238042 0.795711 0.425985 0.250312
H36   H     H_    0.223644 0.980892 0.432033 0.207189
N13   N     N_R   0.345948 0.703178 0.158226 0.160366
O13   O     O_R   0.392779 0.778505 0.108255 -0.243588
O14   O     O_R   0.240114 0.737332 0.187819 -0.291207
N14   N     N_R   0.654055 0.327187 0.139996 0.143432
O15   O     O_R   0.761496 0.370428 0.116296 -0.252477
O16   O     O_R   0.632113 0.195663 0.142420 -0.219534
N15   N     N_R   0.643621 0.702845 0.849049 0.148579
O17   O     O_R   0.750901 0.735782 0.820786 -0.240070
O18   O     O_R   0.599570 0.776069 0.901584 -0.272557
N16   N     N_R   0.319946 0.334454 0.854807 0.148007
O19   O     O_R   0.211192 0.308808 0.831723 -0.281675
O20   O     O_R   0.360376 0.257362 0.903125 -0.277071
N17   N     N_R   0.865401 0.631429 0.620078 0.145411
O21   O     O_R   0.798476 0.739476 0.633582 -0.392845
O22   O     O_R   0.902116 0.561886 0.672238 -0.263741
N18   N     N_R   0.869606 0.295980 0.587496 0.138490
O23   O     O_R   0.780430 0.355382 0.623731 -0.311582
O24   O     O_R   0.894950 0.169767 0.601978 -0.387981

loop_
_geom_bond_atom_site_label_1
_geom_bond_atom_site_label_2
_geom_bond_distance
_ccdc_geom_bond_type
C14   C16   1.397864 A    
N11   H29   1.020821 S    
C31   N5    1.516110 S    
N12   H33   1.022761 S    
C27   H17   1.098812 S    
N14   O15   1.300929 A    
C36   H34   1.112159 S    
C27   C28   1.606447 S    
N18   O23   1.300306 A    
C36   H36   1.092701 S    
Cu1   Cu2   2.772234 S    
C5    C10   1.397659 A    
C34   H26   1.103303 S    
C5    C7    1.399084 A    
N15   O18   1.301473 A    
C13   C18   1.417775 A    
N4    C11   1.355825 A    
H14   C26   1.113587 S    
C31   N9    1.474590 S    
C32   H20   1.080440 S    
C7    C9    1.418575 A    
N2    N4    1.328908 A    
C20   H8    1.093926 S    
O4    C2    1.325088 A    
O7    C4    1.320084 A    
C8    N14   1.430646 S    
H13   C26   1.113729 S    
C2    C10   1.461000 S    
N16   O19   1.301454 A    
C5    H1    1.084273 S    
N7    C33   1.458261 S    
O5    C3    1.322050 A    
C32   N10   1.492847 S    
C29   N11   1.463523 S    
C27   N5    1.508866 S    
C22   C25   1.570776 S    
C21   C25   1.568923 S    
H12   C23   1.112833 S    
N17   O21   1.299778 A    
N16   O20   1.301385 A    
C15   H3    1.077555 S    
C35   H31   1.107451 S    
C6    C8    1.394092 A    
C22   N18   1.477638 S    
Cu2   N5    2.083131 S    
N12   C36   1.463655 S    
C13   N15   1.439178 S    
N7    H21   1.020734 S    
C21   N17   1.468814 S    
O3    Cu1   1.930743 S    
N9    O10   1.301350 A    
C22   H10   1.115737 S    
N9    O9    1.302193 A    
C3    C25   1.490218 S    
C34   H27   1.103481 S    
C19   H5    1.086116 S    
C31   H19   1.093818 S    
C30   N6    1.547382 S    
C23   C24   1.553725 S    
C16   C17   1.395498 A    
N10   O11   1.301985 A    
O3    C2    1.319512 A    
C4    C17   1.463512 S    
C33   H23   1.092023 S    
C19   C24   1.547706 S    
C7    N13   1.438567 S    
H11   C23   1.103520 S    
C25   C26   1.558657 S    
C28   H18   1.099842 S    
O1    C1    1.328549 A    
C32   N6    1.513166 S    
C19   C21   1.541594 S    
Cu1   O7    1.938760 S    
N8    H25   1.021034 S    
C20   C22   1.540247 S    
C33   H24   1.110268 S    
N8    C34   1.460654 S    
N13   O13   1.301565 A    
Cu2   O8    1.930644 S    
N17   O22   1.302038 A    
N1    C12   1.357476 A    
C35   H32   1.100826 S    
N14   O16   1.300962 A    
C21   H9    1.116980 S    
Cu2   O6    1.989112 S    
N13   O14   1.301601 A    
C9    C12   1.472482 S    
O8    C4    1.324552 A    
C27   H15   1.101255 S    
C15   C17   1.394238 A    
C30   N8    1.483586 S    
C34   H28   1.110476 S    
C29   N7    1.505887 S    
Cu1   O5    1.993642 S    
C6    C10   1.394049 A    
C14   N16   1.438176 S    
O1    Cu1   1.988683 S    
O2    Cu2   1.993213 S    
N2    C12   1.355492 A    
N10   O12   1.300885 A    
O6    C3    1.318855 A    
O4    Cu2   1.938829 S    
N18   O24   1.300010 A    
C1    C24   1.518582 S    
C36   H35   1.101369 S    
C11   C18   1.469202 S    
N3    C11   1.356534 A    
N15   O17   1.301539 A    
C14   C18   1.417636 A    
C23   C26   1.551827 S    
N11   C35   1.463043 S    
O2    C1    1.326774 A    
C33   H22   1.111723 S    
C13   C15   1.396934 A    
Cu1   N6    2.081957 S    
C20   H6    1.107900 S    
C28   N6    1.502397 S    
C28   H16   1.088402 S    
N1    N3    1.330278 A    
C19   H7    1.110453 S    
C29   C30   1.648671 S    
C31   C32   1.593162 S    
C29   N5    1.548029 S    
C20   C24   1.543890 S    
C8    C9    1.415380 A    
C6    H2    1.080375 S    
C30   N12   1.499372 S    
C35   H30   1.105298 S    
C16   H4    1.078188 S    
