data_mof_unit_54426.cif
_audit_creation_date              2012-12-10T19:59:25-0500
_audit_creation_method            fapswitch 2.2
_symmetry_space_group_name_H-M    P1
_symmetry_Int_Tables_number       1
_space_group_crystal_system       triclinic
_cell_length_a                    14.938463
_cell_length_b                    14.149651
_cell_length_c                    10.699108
_cell_angle_alpha                 90.340514
_cell_angle_beta                  91.125807
_cell_angle_gamma                 90.344827
_cell_volume                      2260.99460499

loop_
_atom_site_label
_atom_site_type_symbol
_atom_type_description
_atom_site_fract_x
_atom_site_fract_y
_atom_site_fract_z
_atom_type_partial_charge
C1    C     C_R   0.326993 0.499513 0.497883 1.003251
C2    C     C_R   0.474930 0.105054 0.607320 0.382157
C3    C     C_R   0.518011 0.203884 0.393062 -0.141698
C4    C     C_R   0.479048 0.204773 0.605905 -0.140177
C5    C     C_R   0.494792 0.053076 0.498286 -0.067682
C6    C     C_R   0.549061 0.897919 0.584973 -0.372980
C7    C     C_R   0.444680 0.893419 0.412082 -0.386059
C8    C     C_R   0.553832 0.797328 0.582453 0.559214
C9    C     C_R   0.448299 0.792702 0.411849 0.568314
C10   C     C_R   0.495426 0.946571 0.498827 0.116886
C11   C     C_R   0.496163 0.499842 0.260105 0.867912
C12   C     C_R   0.672804 0.500046 0.493993 1.033413
C13   C     C_R   0.499545 0.500095 0.740235 0.921086
C14   C     C_R   0.512049 0.582182 0.065967 0.042871
C15   C     C_R   0.517311 0.581071 0.938756 -0.047729
C16   C     C_R   0.485597 0.501348 0.128477 -0.109154
C17   C     C_R   0.491522 0.500604 0.871970 -0.042468
C18   C     C_R   0.450063 0.423621 0.062505 -0.204676
C19   C     C_R   0.452429 0.423566 0.933016 -0.213323
C20   C     C_3   0.605701 0.632059 0.942658 0.317328
C21   C     C_3   0.597104 0.636344 0.084019 0.263112
C22   C     C_R   0.098865 0.558609 0.371427 0.442904
C23   C     C_R   0.181242 0.416195 0.514136 0.318037
C24   C     C_R   0.914294 0.574209 0.483539 0.410223
C25   C     C_R   0.187772 0.570057 0.411025 0.316424
C26   C     C_R   0.821432 0.580254 0.494290 0.332910
C27   C     C_R   0.230338 0.496750 0.477836 -0.429269
C28   C     C_R   0.768608 0.499232 0.469241 -0.437401
C29   C     C_3   0.681439 0.799390 0.714712 -0.286194
C30   C     C_3   0.375228 0.781292 0.215693 -0.195279
C31   C     C_3   0.759884 0.610781 0.935583 -0.338756
C32   C     C_3   0.642639 0.757964 0.215665 -0.343232
C33   C     C_3   0.084087 0.612095 0.172552 -0.320291
C34   C     C_R   0.806989 0.418600 0.412749 0.311010
C35   C     C_3   0.986463 0.638207 0.653412 -0.372778
C36   C     C_3   0.210251 0.723004 0.466961 -0.161055
C37   C     C_3   0.800864 0.738371 0.455698 -0.208273
C38   C     C_3   0.229376 0.263986 0.503971 -0.194133
C39   C     C_3   0.771093 0.268113 0.466420 -0.192811
C40   C     C_3   0.016277 0.363756 0.668392 -0.317263
C41   C     C_3   0.917354 0.359175 0.187297 -0.301987
C42   C     C_3   0.628398 0.053218 0.265957 -0.321524
C43   C     C_3   0.361725 0.060720 0.732592 -0.311213
C44   C     C_R   0.088430 0.414875 0.495606 0.410454
C45   C     C_R   0.897034 0.420836 0.380314 0.445455
C46   C     C_R   0.047933 0.486036 0.423366 -0.125703
C47   C     C_R   0.951275 0.495146 0.424188 -0.136173
C48   C     C_R   0.517076 0.104049 0.389999 0.382986
H1    H     H_    0.587622 0.939556 0.652053 0.184490
H2    H     H_    0.432108 0.821787 0.176436 0.194839
H3    H     H_    0.784026 0.578100 0.024007 0.161232
H4    H     H_    0.760602 0.689101 0.947001 0.132648
H5    H     H_    0.807978 0.592398 0.861812 0.190264
H6    H     H_    0.711057 0.758182 0.176412 0.139962
H7    H     H_    0.639574 0.711948 0.299343 0.199953
H8    H     H_    0.627126 0.831026 0.246013 0.194356
H9    H     H_    0.602027 0.701356 0.895425 0.154230
H10   H     H_    0.648288 0.595442 0.138498 0.075996
H11   H     H_    0.070328 0.538453 0.140011 0.133887
H12   H     H_    0.401816 0.931119 0.347106 0.175927
H13   H     H_    0.156032 0.629891 0.160956 0.198610
H14   H     H_    0.044603 0.660060 0.111483 0.174015
H15   H     H_    0.030498 0.576572 0.671255 0.144893
H16   H     H_    0.924010 0.632395 0.707890 0.175053
H17   H     H_    0.023036 0.702084 0.687409 0.181468
H18   H     H_    0.137797 0.740351 0.460481 0.193265
H19   H     H_    0.247789 0.788458 0.445147 0.163301
H20   H     H_    0.228928 0.702600 0.564358 0.127581
H21   H     H_    0.857311 0.781652 0.493996 0.197700
H22   H     H_    0.741451 0.784662 0.450119 0.139214
H23   H     H_    0.424657 0.362135 0.110526 0.164037
H24   H     H_    0.815358 0.715888 0.358040 0.126081
H25   H     H_    0.272764 0.211792 0.552209 0.150427
H26   H     H_    0.261093 0.280874 0.413321 0.146263
H27   H     H_    0.163071 0.229863 0.486968 0.191155
H28   H     H_    0.722843 0.209722 0.447190 0.150281
H29   H     H_    0.760574 0.292590 0.564177 0.148606
H30   H     H_    0.839584 0.238919 0.457496 0.196879
H31   H     H_    0.965677 0.420876 0.671336 0.134784
H32   H     H_    0.076392 0.383298 0.726337 0.177485
H33   H     H_    0.985827 0.300239 0.710948 0.183523
H34   H     H_    0.427430 0.362421 0.881530 0.164722
H35   H     H_    0.944776 0.427891 0.154821 0.137100
H36   H     H_    0.844527 0.354188 0.164246 0.194281
H37   H     H_    0.951317 0.302253 0.134976 0.180449
H38   H     H_    0.661823 0.017801 0.346888 0.142605
H39   H     H_    0.657103 0.125086 0.252430 0.175822
H40   H     H_    0.642810 0.010999 0.181095 0.197145
H41   H     H_    0.325032 0.029281 0.650587 0.148544
H42   H     H_    0.338328 0.133951 0.750597 0.161240
H43   H     H_    0.345248 0.017723 0.815482 0.195519
H44   H     H_    0.533747 0.242385 0.309258 0.184883
H45   H     H_    0.733655 0.750358 0.748920 0.223789
H46   H     H_    0.464479 0.243905 0.690047 0.173562
H47   H     H_    0.714288 0.846046 0.645911 0.137324
H48   H     H_    0.658074 0.841243 0.795852 0.144313
H49   H     H_    0.355614 0.726326 0.145864 0.187475
H50   H     H_    0.316172 0.827344 0.228937 0.129289
N1    N     N_R   0.500000 0.252470 0.500000 -0.136668
N2    N     N_R   0.500000 0.747550 0.500000 -0.173163
O1    O     O_R   0.369060 0.579480 0.500010 -0.565747
O2    O     O_3   0.398871 0.735965 0.328659 -0.530135
O3    O     O_3   0.675197 0.572556 0.901492 -0.594168
O4    O     O_3   0.578581 0.729209 0.125068 -0.608251
O5    O     O_3   0.057811 0.626109 0.297110 -0.558696
O6    O     O_3   0.968486 0.648387 0.524445 -0.567827
O7    O     O_3   0.233264 0.651760 0.380447 -0.542026
O8    O     O_3   0.782557 0.662608 0.537486 -0.555040
O9    O     O_3   0.222270 0.344614 0.581531 -0.579084
O10   O     O_3   0.755039 0.340800 0.379076 -0.575658
O11   O     O_3   0.037932 0.341764 0.543931 -0.560496
O12   O     O_R   0.630940 0.579480 0.499990 -0.555515
O13   O     O_3   0.934131 0.346011 0.316109 -0.556421
O14   O     O_3   0.534859 0.056704 0.279990 -0.594056
O15   O     O_3   0.455120 0.058536 0.716668 -0.591629
O16   O     O_R   0.369050 0.420520 0.500010 -0.596986
O17   O     O_R   0.630950 0.420520 0.499990 -0.581864
O18   O     O_R   0.499990 0.579490 0.316780 -0.570611
O19   O     O_R   0.500010 0.579490 0.683220 -0.593258
O20   O     O_R   0.499980 0.420540 0.316780 -0.641569
O21   O     O_R   0.500020 0.420540 0.683220 -0.643575
O22   O     O_3   0.610041 0.745596 0.661525 -0.548466
Zn1   Zn    Zn3+2 0.500000 0.606140 0.500000 1.050995
Zn2   Zn    Zn3+2 0.500000 0.393860 0.500000 0.962783

loop_
_geom_bond_atom_site_label_1
_geom_bond_atom_site_label_2
_ccdc_geom_bond_type
C7    C10   A    
C37   H21   S    
C31   H4    S    
C36   H19   S    
C20   O3    S    
C30   H49   S    
C43   H41   S    
C12   C28   S    
C39   H29   S    
C14   C21   S    
O17   Zn2   S    
C24   C26   A    
C36   H18   S    
C35   H17   S    
C41   H35   S    
C3    C48   A    
C15   C17   A    
C18   C19   A    
C11   C16   S    
O21   Zn2   S    
C43   O15   S    
C21   O4    S    
C42   O14   S    
C39   O10   S    
C33   H14   S    
C22   C25   A    
C40   H32   S    
C35   H16   S    
C42   H38   S    
C1    O16   A    
C23   C27   A    
C19   H34   S    
C32   H7    S    
C30   H2    S    
C28   C34   A    
C33   H11   S    
C37   H22   S    
C36   O7    S    
C11   O20   A    
C32   H6    S    
C13   O19   A    
C44   C46   A    
C40   O11   S    
C38   H27   S    
C45   C47   A    
C15   C20   S    
C23   O9    S    
C5    C48   A    
C43   H42   S    
C39   H30   S    
C33   O5    S    
O12   Zn1   S    
C26   O8    S    
C29   H47   S    
C9    O2    S    
C6    C8    A    
C41   H36   S    
C43   H43   S    
C23   C44   A    
C3    H44   S    
C31   O3    S    
C2    C4    A    
C45   O13   S    
C13   O21   A    
C2    O15   S    
C29   O22   S    
C30   O2    S    
C32   O4    S    
C40   H31   S    
C34   C45   A    
O1    Zn1   S    
C39   H28   S    
C31   H5    S    
C38   O9    S    
C37   O8    S    
C4    H46   S    
C33   H13   S    
C22   C46   A    
C9    N2    A    
C34   O10   S    
C14   C16   A    
C4    N1    A    
C2    C5    A    
C24   O6    S    
C1    O1    A    
C7    H12   S    
C12   O12   A    
C25   O7    S    
C48   O14   S    
C38   H26   S    
C18   H23   S    
C7    C9    A    
C46   C47   S    
O16   Zn2   S    
C24   C47   A    
C40   H33   S    
C31   H3    S    
C6    C10   A    
C29   H48   S    
C36   H20   S    
O19   Zn1   S    
C25   C27   A    
C22   O5    S    
C41   H37   S    
C30   H50   S    
C26   C28   A    
C13   C17   S    
N2    Zn1   S    
C8    N2    A    
C5    C10   S    
C35   O6    S    
C29   H45   S    
C8    O22   S    
C41   O13   S    
C17   C19   A    
O18   Zn1   S    
C6    H1    S    
C12   O17   A    
C44   O11   S    
C3    N1    A    
C21   H10   S    
C42   H40   S    
C20   C21   S    
C16   C18   A    
C37   H24   S    
C1    C27   S    
C14   C15   A    
C35   H15   S    
C42   H39   S    
C20   H9    S    
C11   O18   A    
C32   H8    S    
O20   Zn2   S    
N1    Zn2   S    
C38   H25   S    
