data_mof_unit_21687.cif
_audit_creation_date              2012-10-26T19:40:08-0400
_audit_creation_method            fapswitch 2.2
_symmetry_space_group_name_H-M    P1
_symmetry_Int_Tables_number       1
_space_group_crystal_system       triclinic
_cell_length_a                    15.06676
_cell_length_b                    8.776129
_cell_length_c                    7.49583
_cell_angle_alpha                 103.137312
_cell_angle_beta                  94.599753
_cell_angle_gamma                 93.971252
_cell_volume                      958.192888298

loop_
_atom_site_label
_atom_site_type_symbol
_atom_type_description
_atom_site_fract_x
_atom_site_fract_y
_atom_site_fract_z
_atom_type_partial_charge
C1    C     C_R   0.495942 0.200432 0.453846 0.544251
C2    C     C_R   0.179664 0.359918 0.441985 -0.019641
C3    C     C_R   0.766621 0.498711 0.494184 -0.026514
C4    C     C_R   0.233380 0.501280 0.505838 -0.026517
C5    C     C_R   0.803479 0.356095 0.429059 -0.026980
C6    C     C_R   0.196519 0.643904 0.570902 -0.026954
C7    C     C_R   0.897735 0.353096 0.432393 0.021462
C8    C     C_R   0.102269 0.646880 0.567768 0.021457
C9    C     C_R   0.952721 0.498207 0.497929 -0.000342
C10   C     C_R   0.047285 0.501764 0.502270 -0.000339
C11   C     C_R   0.913457 0.640457 0.559414 -0.017979
C12   C     C_R   0.504065 0.799568 0.546153 0.544278
C13   C     C_R   0.086549 0.359509 0.440809 -0.017996
C14   C     C_R   0.940093 0.212555 0.374283 0.236930
C15   C     C_R   0.059915 0.787400 0.626048 0.236913
C16   C     C_1   0.778650 0.785124 0.619618 0.256230
C17   C     C_1   0.221357 0.214843 0.380595 0.256196
C18   C     C_1   0.741633 0.216764 0.360747 0.310415
C19   C     C_1   0.258357 0.783290 0.638792 0.310445
C20   C     C_1   0.438954 0.945950 0.255758 0.272984
C21   C     C_1   0.561058 0.054052 0.744233 0.272950
C22   C     C_1   0.408945 0.350958 0.928278 0.461228
C23   C     C_R   0.032205 0.218327 0.378798 -0.035664
C24   C     C_1   0.591056 0.649040 0.071723 0.461216
C25   C     C_R   0.967804 0.781625 0.621542 -0.035636
C26   C     C_2   0.485975 0.033335 0.430508 -0.043017
C27   C     C_2   0.514038 0.966665 0.569484 -0.043021
C28   C     C_R   0.329618 0.499866 0.501724 0.539533
C29   C     C_R   0.670382 0.500127 0.498276 0.539518
C30   C     C_R   0.820341 0.640054 0.558187 -0.019616
Cl1   Cl    Cl    0.886204 0.020571 0.295253 -0.575421
Cl2   Cl    Cl    0.113808 0.979348 0.705473 -0.575289
Cu1   Cu    Cu3+1 0.510010 0.517380 0.684380 1.049917
Cu2   Cu    Cu3+1 0.489990 0.482620 0.315620 1.049918
H1    H     H_    0.061216 0.108380 0.332586 0.194105
H2    H     H_    0.938796 0.891557 0.667867 0.194142
N1    N     N_2   0.474890 0.456420 0.038520 -0.204853
N2    N     N_1   0.646510 0.737770 0.161705 -0.247352
N3    N     N_2   0.525110 0.543580 0.961480 -0.204852
N4    N     N_1   0.745754 0.900711 0.668343 -0.234085
N5    N     N_1   0.254254 0.099252 0.331901 -0.234088
N6    N     N_1   0.691234 0.107059 0.306564 -0.203634
N7    N     N_1   0.308749 0.893048 0.692635 -0.203776
N8    N     N_1   0.401611 0.877215 0.116673 -0.222981
N9    N     N_1   0.598399 0.122793 0.883317 -0.222967
N10   N     N_1   0.353491 0.262228 0.838297 -0.247319
O1    O     O_R   0.506510 0.286130 0.619770 -0.520428
O2    O     O_R   0.493490 0.713870 0.380230 -0.520432
O3    O     O_R   0.489600 0.256770 0.308360 -0.494194
O4    O     O_R   0.510400 0.743230 0.691640 -0.494190
O5    O     O_R   0.378710 0.514640 0.655720 -0.507378
O6    O     O_R   0.621290 0.485360 0.344280 -0.507395
O7    O     O_R   0.361800 0.485290 0.344300 -0.506613
O8    O     O_R   0.638200 0.514710 0.655700 -0.506624

loop_
_geom_bond_atom_site_label_1
_geom_bond_atom_site_label_2
_ccdc_geom_bond_type
C14   C23   A    
C3    C30   A    
C2    C4    A    
C28   O7    A    
Cu1   O5    S    
Cu2   N1    S    
C9    C10   A    
C12   O4    A    
C28   O5    A    
C14   Cl1   S    
C12   O2    A    
Cu1   Cu2   S    
C21   C27   S    
C15   Cl2   S    
N1    N3    D    
C2    C17   S    
C6    C19   S    
C9    C11   A    
C26   C27   D    
Cu1   N3    S    
C20   C26   S    
C16   N4    T    
C4    C6    A    
C20   N8    T    
C19   N7    T    
C8    C15   A    
C21   N9    T    
C18   N6    T    
C1    C26   S    
Cu1   O1    S    
C23   H1    S    
C17   N5    T    
C15   C25   A    
Cu2   O2    S    
C29   O8    A    
C11   C25   A    
C12   C27   S    
C16   C30   S    
C24   N2    T    
C7    C9    A    
C24   N3    S    
C13   C23   A    
Cu2   O7    S    
C3    C29   S    
C4    C28   S    
Cu1   O8    S    
C5    C7    A    
C2    C13   A    
C1    O1    A    
Cu2   O3    S    
C6    C8    A    
C5    C18   S    
C25   H2    S    
C22   N10   T    
Cu1   O4    S    
C22   N1    S    
Cu2   O6    S    
C10   C13   A    
C8    C10   A    
C7    C14   A    
C11   C30   A    
C3    C5    A    
C29   O6    A    
C1    O3    A    
