data_mof_unit_9513.cif
_audit_creation_date              2012-12-10T19:47:57-0500
_audit_creation_method            fapswitch 2.2
_symmetry_space_group_name_H-M    P1
_symmetry_Int_Tables_number       1
_space_group_crystal_system       triclinic
_cell_length_a                    14.71572
_cell_length_b                    14.224287
_cell_length_c                    10.792066
_cell_angle_alpha                 90.055797
_cell_angle_beta                  90.562757
_cell_angle_gamma                 90.066258
_cell_volume                      2258.89042689

loop_
_atom_site_label
_atom_site_type_symbol
_atom_type_description
_atom_site_fract_x
_atom_site_fract_y
_atom_site_fract_z
_atom_type_partial_charge
C1    C     C_R   0.327347 0.499811 0.497439 0.930200
C2    C     C_R   0.672900 0.499625 0.490000 0.927480
C3    C     C_R   0.049124 0.482390 0.412530 -0.098157
C4    C     C_R   0.951299 0.486450 0.393623 -0.057472
C5    C     C_R   0.434680 0.104134 0.433023 0.308767
C6    C     C_R   0.575786 0.898413 0.467746 0.285048
C7    C     C_R   0.560003 0.105879 0.580375 0.325018
C8    C     C_R   0.423488 0.895924 0.545769 0.325601
C9    C     C_R   0.435341 0.204266 0.433447 0.436290
C10   C     C_R   0.577792 0.798420 0.477617 0.413481
C11   C     C_R   0.561837 0.206248 0.573113 0.409781
C12   C     C_R   0.422698 0.795854 0.533203 0.405479
C13   C     C_R   0.497856 0.054307 0.506523 -0.054742
C14   C     C_R   0.498663 0.948013 0.505554 -0.064078
C15   C     C_R   0.502559 0.500167 0.259661 0.889294
C16   C     C_R   0.501130 0.499728 0.739871 0.941848
C17   C     C_R   0.489194 0.677837 0.100487 0.537681
C18   C     C_R   0.438299 0.336699 0.894186 0.550309
C19   C     C_R   0.590300 0.654218 0.884804 0.545174
C20   C     C_R   0.545981 0.325476 0.107990 0.570549
C21   C     C_R   0.527117 0.756754 0.041351 -0.080460
C22   C     C_R   0.454248 0.248601 0.949332 -0.067787
C23   C     C_R   0.583370 0.743682 0.938339 -0.005726
C24   C     C_R   0.516413 0.242221 0.049348 -0.002285
C25   C     C_R   0.539601 0.578969 0.936361 -0.167848
C26   C     C_R   0.515740 0.413841 0.061299 -0.159469
C27   C     C_R   0.512614 0.586241 0.058386 -0.128813
C28   C     C_R   0.486009 0.416469 0.939720 -0.138532
C29   C     C_R   0.507985 0.498547 0.872202 -0.119729
C30   C     C_R   0.510388 0.500457 0.126699 -0.116651
C31   C     C_R   0.108035 0.525738 0.328080 0.554832
C32   C     C_R   0.899802 0.402975 0.400283 0.542456
C33   C     C_R   0.908360 0.574643 0.401070 0.524422
C34   C     C_R   0.082613 0.443868 0.524512 0.533398
C35   C     C_R   0.199255 0.536229 0.361290 -0.357044
C36   C     C_R   0.809680 0.409026 0.434798 -0.296331
C37   C     C_R   0.815889 0.578352 0.425474 -0.351071
C38   C     C_R   0.174847 0.448706 0.550517 -0.358731
C39   C     C_R   0.231724 0.498075 0.472150 -0.161974
C40   C     C_R   0.768206 0.496391 0.453736 -0.209657
H1    H     H_    0.245255 0.572197 0.300024 0.169236
H2    H     H_    0.772008 0.344444 0.444692 0.194532
H3    H     H_    0.782870 0.645416 0.423824 0.237846
H4    H     H_    0.201755 0.415322 0.632563 0.179872
N1    N     N_R   0.500000 0.252470 0.500000 -0.183614
N2    N     N_R   0.500000 0.747530 0.500000 -0.181829
O1    O     O_R   0.369060 0.579480 0.500010 -0.565365
O2    O     O_R   0.630940 0.420520 0.499990 -0.584765
O3    O     O_R   0.630940 0.579480 0.499990 -0.545738
O4    O     O_R   0.369060 0.420520 0.500010 -0.582718
O5    O     O_R   0.499990 0.579480 0.316780 -0.581894
O6    O     O_R   0.500010 0.420520 0.683220 -0.558630
O7    O     O_R   0.500010 0.579480 0.683220 -0.579658
O8    O     O_R   0.499990 0.420520 0.316780 -0.552779
Zn1   Zn    Zn3+2 0.500000 0.606140 0.500000 1.061487
Zn2   Zn    Zn3+2 0.500000 0.393860 0.500000 1.068628
N3    N     N_3   0.549157 0.153240 0.094363 -0.444996
H5    H     H_    0.522886 0.097715 0.041723 0.187836
H6    H     H_    0.619434 0.151762 0.081217 0.191807
N4    N     N_3   0.628297 0.821526 0.881786 -0.428693
H7    H     H_    0.578239 0.868070 0.850729 0.189107
H8    H     H_    0.667682 0.855501 0.949455 0.192613
N5    N     N_3   0.407050 0.166830 0.905007 -0.480826
H9    H     H_    0.416898 0.161633 0.809430 0.206421
H10   H     H_    0.337602 0.177019 0.919344 0.212099
N6    N     N_3   0.506921 0.849893 0.083364 -0.481745
H11   H     H_    0.519896 0.852548 0.178630 0.194146
H12   H     H_    0.437434 0.861674 0.069923 0.199524
O9    O     O_3   0.418016 0.692286 0.181058 -0.594998
C41   C     C_3   0.335894 0.678022 0.114787 -0.370366
H13   H     H_    0.333082 0.719694 0.027415 0.159915
H14   H     H_    0.325755 0.602149 0.093939 0.163513
H15   H     H_    0.278483 0.702136 0.172242 0.192552
O10   O     O_3   0.368740 0.344849 0.807659 -0.592831
C42   C     C_3   0.296176 0.395566 0.860942 -0.388888
H16   H     H_    0.300377 0.470633 0.833321 0.170469
H17   H     H_    0.292837 0.390511 0.964115 0.149921
H18   H     H_    0.231216 0.365956 0.825865 0.191805
O11   O     O_3   0.646369 0.642467 0.783542 -0.575921
C43   C     C_3   0.718127 0.581075 0.815742 -0.354297
H19   H     H_    0.755318 0.605814 0.900068 0.163196
H20   H     H_    0.693447 0.507935 0.828934 0.162156
H21   H     H_    0.767361 0.579476 0.738613 0.176235
O12   O     O_3   0.610999 0.318457 0.201216 -0.573144
C44   C     C_3   0.693747 0.356330 0.158599 -0.350403
H22   H     H_    0.694153 0.434050 0.169104 0.170517
H23   H     H_    0.749884 0.327328 0.215827 0.198987
H24   H     H_    0.708449 0.336517 0.060770 0.140734
O13   O     O_3   0.074232 0.565606 0.220074 -0.553195
C45   C     C_3   0.106176 0.514504 0.117269 -0.363936
H25   H     H_    0.084732 0.439648 0.121419 0.144953
H26   H     H_    0.181185 0.519410 0.108796 0.147638
H27   H     H_    0.075955 0.545063 0.031809 0.193683
O14   O     O_3   0.938312 0.314301 0.392347 -0.569214
C46   C     C_3   0.975203 0.300357 0.273528 -0.330452
H28   H     H_    0.046953 0.324205 0.272144 0.162153
H29   H     H_    0.935105 0.334924 0.198080 0.132831
H30   H     H_    0.975283 0.223847 0.253611 0.195687
O15   O     O_3   0.956218 0.657193 0.382553 -0.553172
C47   C     C_3   0.979002 0.696881 0.498583 -0.327289
H31   H     H_    0.028153 0.651766 0.549879 0.146360
H32   H     H_    0.917914 0.710195 0.555828 0.138267
H33   H     H_    0.012646 0.765578 0.482697 0.200263
O16   O     O_3   0.025814 0.397629 0.605832 -0.560807
C48   C     C_3   0.004772 0.458820 0.704294 -0.362004
H34   H     H_    0.966031 0.520966 0.670557 0.149277
H35   H     H_    0.066857 0.481422 0.756089 0.150523
H36   H     H_    0.960682 0.420762 0.770296 0.193232
O17   O     O_3   0.367578 0.054653 0.370086 -0.570190
C49   C     C_3   0.389996 0.049011 0.243922 -0.286407
H37   H     H_    0.458206 0.017372 0.231049 0.152778
H38   H     H_    0.385508 0.119041 0.198865 0.217513
H39   H     H_    0.340028 0.002396 0.196783 0.175754
O18   O     O_3   0.653850 0.947952 0.439024 -0.549307
C50   C     C_3   0.668057 0.943297 0.310330 -0.285794
H40   H     H_    0.613345 0.980907 0.259104 0.147635
H41   H     H_    0.674240 0.869539 0.277027 0.183217
H42   H     H_    0.732923 0.979449 0.289392 0.192334
O19   O     O_3   0.620512 0.057615 0.655764 -0.555222
C51   C     C_3   0.589890 0.061564 0.778919 -0.362081
H43   H     H_    0.523061 0.026125 0.788273 0.164841
H44   H     H_    0.586124 0.134940 0.813653 0.201050
H45   H     H_    0.639677 0.024451 0.839000 0.182555
O20   O     O_3   0.350440 0.943941 0.595421 -0.560882
C52   C     C_3   0.342518 0.922492 0.722708 -0.274461
H46   H     H_    0.409016 0.909496 0.769983 0.125667
H47   H     H_    0.297231 0.860895 0.735422 0.202301
H48   H     H_    0.310530 0.983217 0.769782 0.175067
O21   O     O_3   0.374459 0.254749 0.361139 -0.582396
C53   C     C_3   0.285698 0.244883 0.408307 -0.186765
H49   H     H_    0.243270 0.302846 0.370833 0.166937
H50   H     H_    0.253681 0.178503 0.376228 0.196659
H51   H     H_    0.283819 0.249726 0.511397 0.166845
O22   O     O_3   0.659785 0.752376 0.469723 -0.594728
C54   C     C_3   0.718871 0.782213 0.566922 -0.139987
H52   H     H_    0.684599 0.818335 0.645381 0.180909
H53   H     H_    0.772078 0.829072 0.528861 0.183268
H54   H     H_    0.753393 0.720135 0.607160 0.167792
O23   O     O_3   0.618422 0.260236 0.648471 -0.589378
C55   C     C_3   0.710546 0.234016 0.636910 -0.186046
H55   H     H_    0.753124 0.297446 0.651901 0.162556
H56   H     H_    0.727205 0.204283 0.544245 0.167715
H57   H     H_    0.730202 0.183971 0.711090 0.191297
O24   O     O_3   0.346237 0.746519 0.567609 -0.579940
C56   C     C_3   0.276817 0.760967 0.478307 -0.217950
H58   H     H_    0.219073 0.713820 0.500087 0.174555
H59   H     H_    0.300277 0.743159 0.383566 0.179230
H60   H     H_    0.250321 0.833953 0.480439 0.196652

loop_
_geom_bond_atom_site_label_1
_geom_bond_atom_site_label_2
_ccdc_geom_bond_type
C54   H54   S    
N6    H12   S    
N5    H10   S    
C9    N1    A    
C21   N6    S    
C50   H41   S    
C36   H2    S    
C46   H28   S    
C55   H57   S    
O2    Zn2   S    
C56   H58   S    
C45   H25   S    
C46   H30   S    
C54   H52   S    
C44   H22   S    
C17   O9    S    
C48   H35   S    
C10   O22   S    
C20   C26   A    
C15   C30   S    
C32   C36   A    
C22   C24   A    
O1    Zn1   S    
C28   C29   A    
C55   H56   S    
C37   C40   A    
C38   C39   A    
N3    H6    S    
C50   H40   S    
N4    H8    S    
C11   O23   S    
C16   O7    A    
C6    O18   S    
C22   N5    S    
C49   H37   S    
C20   C24   A    
N1    Zn2   S    
C24   N3    S    
C31   O13   S    
N2    Zn1   S    
C10   N2    A    
C52   H48   S    
C41   H13   S    
C15   O5    A    
C1    O4    A    
C5    C13   A    
C51   H45   S    
C3    C31   A    
C44   H23   S    
N6    H11   S    
C18   O10   S    
C18   C22   A    
C13   C14   S    
C27   C30   A    
O9    C41   S    
C43   H21   S    
C35   H1    S    
O16   C48   S    
C56   H59   S    
C51   H44   S    
C38   H4    S    
O18   C50   S    
O7    Zn1   S    
C25   C29   A    
C23   N4    S    
C48   H36   S    
O8    Zn2   S    
O10   C42   S    
N5    H9    S    
C17   C27   A    
C15   O8    A    
C7    O19   S    
C36   C40   A    
C18   C28   A    
C55   H55   S    
C43   H20   S    
C19   C23   A    
C8    O20   S    
C3    C34   A    
C2    O2    A    
C16   C29   S    
O3    Zn1   S    
C47   H33   S    
O4    Zn2   S    
C12   O24   S    
N4    H7    S    
C33   O15   S    
C37   H3    S    
C7    C11   A    
C42   H16   S    
C5    C9    A    
C2    O3    A    
C6    C14   A    
C45   H26   S    
O15   C47   S    
C8    C12   A    
C50   H42   S    
C41   H15   S    
C47   H32   S    
O12   C44   S    
O19   C51   S    
C19   O11   S    
C42   H17   S    
C49   H39   S    
C34   O16   S    
C4    C32   A    
C12   N2    A    
C26   C30   A    
C21   C23   A    
C52   H46   S    
C31   C35   A    
C11   N1    A    
C53   H51   S    
C3    C4    S    
C56   H60   S    
C51   H43   S    
C45   H27   S    
C33   C37   A    
O21   C53   S    
C44   H24   S    
C54   H53   S    
C4    C33   A    
C8    C14   A    
C34   C38   A    
C1    O1    A    
C16   O6    A    
C43   H19   S    
C6    C10   A    
O23   C55   S    
C46   H29   S    
O22   C54   S    
C9    O21   S    
C25   C27   A    
C48   H34   S    
C26   C28   A    
O24   C56   S    
C53   H50   S    
C20   O12   S    
C53   H49   S    
O17   C49   S    
N3    H5    S    
C5    O17   S    
C35   C39   A    
C47   H31   S    
O5    Zn1   S    
O14   C46   S    
C19   C25   A    
C42   H18   S    
C49   H38   S    
C1    C39   S    
O11   C43   S    
C2    C40   S    
C7    C13   A    
C32   O14   S    
C52   H47   S    
C41   H14   S    
O13   C45   S    
O6    Zn2   S    
O20   C52   S    
C17   C21   A    
