data_mof_unit_39698.cif
_audit_creation_date              2012-12-10T17:40:30-0500
_audit_creation_method            fapswitch 2.2
_symmetry_space_group_name_H-M    P1
_symmetry_Int_Tables_number       1
_space_group_crystal_system       triclinic
_cell_length_a                    13.702435
_cell_length_b                    15.109638
_cell_length_c                    15.865373
_cell_angle_alpha                 90.070308
_cell_angle_beta                  70.268698
_cell_angle_gamma                 90.424685
_cell_volume                      3091.80061379

loop_
_atom_site_label
_atom_site_type_symbol
_atom_type_description
_atom_site_fract_x
_atom_site_fract_y
_atom_site_fract_z
_atom_type_partial_charge
C1    C     C_R   0.501107 0.671263 0.498318 0.841373
C2    C     C_R   0.499252 0.328394 0.500020 0.851455
C3    C     C_R   0.373748 0.520998 0.095183 -0.263827
C4    C     C_R   0.624417 0.533444 0.906085 -0.260129
C5    C     C_R   0.302165 0.519250 0.050793 0.558478
C6    C     C_R   0.695863 0.537096 0.950590 0.563182
C7    C     C_R   0.402203 0.183611 0.523977 0.462106
C8    C     C_R   0.597347 0.814817 0.458579 0.438961
C9    C     C_R   0.497051 0.231278 0.499786 -0.192455
C10   C     C_R   0.503179 0.767782 0.495863 -0.180020
C11   C     C_R   0.591098 0.186080 0.473668 -0.259266
C12   C     C_R   0.409795 0.812779 0.531709 -0.257711
C13   C     C_R   0.592723 0.094147 0.471224 0.064377
C14   C     C_R   0.408201 0.904599 0.532356 0.071327
C15   C     C_R   0.498890 0.045798 0.500805 -0.043659
C16   C     C_R   0.501736 0.952814 0.499168 -0.039456
C17   C     C_R   0.402447 0.090385 0.531197 -0.080764
C18   C     C_R   0.597848 0.908083 0.464375 -0.089069
C19   C     C_R   0.687562 0.050253 0.439891 -0.279912
C20   C     C_R   0.313788 0.948256 0.568026 -0.296099
C21   C     C_R   0.691302 0.957944 0.436824 0.485819
C22   C     C_R   0.308967 0.040983 0.566596 0.505036
C23   C     C_R   0.437335 0.500211 0.672250 0.812840
C24   C     C_R   0.562678 0.501046 0.327788 0.786147
C25   C     C_R   0.229070 0.555565 0.443596 0.749544
C26   C     C_R   0.770959 0.444443 0.556380 0.749680
C27   C     C_R   0.184266 0.445157 0.556906 -0.084831
C28   C     C_R   0.815519 0.555415 0.443652 -0.056931
C29   C     C_R   0.080446 0.443623 0.558532 -0.088144
C30   C     C_R   0.919293 0.557158 0.442162 -0.077163
C31   C     C_R   0.051733 0.500112 0.500218 -0.024291
C32   C     C_R   0.948172 0.500283 0.500077 -0.028558
C33   C     C_R   0.126492 0.556853 0.442392 -0.145341
C34   C     C_R   0.873420 0.443486 0.557865 -0.144159
C35   C     C_R   0.004722 0.387869 0.617392 0.478534
C36   C     C_R   0.994631 0.613664 0.383978 0.487613
C37   C     C_R   0.902588 0.387186 0.615631 -0.224802
C38   C     C_R   0.097057 0.613850 0.385305 -0.223687
C39   C     C_R   0.400416 0.503747 0.770455 -0.053220
C40   C     C_R   0.599563 0.507532 0.229775 -0.053269
C41   C     C_R   0.262281 0.511056 0.913345 -0.134268
C42   C     C_R   0.736338 0.529841 0.087839 -0.138672
C43   C     C_R   0.294574 0.506137 0.820344 -0.211592
C44   C     C_R   0.704587 0.520520 0.180515 -0.235858
C45   C     C_R   0.473341 0.506721 0.814347 -0.187150
C46   C     C_R   0.526900 0.504409 0.185678 -0.179127
C47   C     C_R   0.443140 0.515392 0.907780 0.036247
C48   C     C_R   0.556043 0.517923 0.092887 0.037149
C49   C     C_R   0.335454 0.515241 0.957590 0.044557
C50   C     C_R   0.663181 0.528286 0.043474 0.038183
C51   C     C_R   0.516954 0.522192 0.952877 -0.022650
C52   C     C_R   0.481838 0.519642 0.048002 -0.022900
Cu1   Cu    Cu3+1 0.402580 0.500010 0.499990 0.998377
Cu2   Cu    Cu3+1 0.597420 0.499990 0.500010 1.004673
H1    H     H_    0.208239 0.402590 0.601016 0.221511
H2    H     H_    0.791501 0.597998 0.399652 0.205839
H3    H     H_    0.846265 0.342501 0.660004 0.200841
H4    H     H_    0.153216 0.659194 0.341743 0.198813
H5    H     H_    0.447845 0.489472 0.225314 0.164566
H6    H     H_    0.553621 0.500174 0.773994 0.177256
H7    H     H_    0.762055 0.523622 0.213490 0.155479
H8    H     H_    0.236819 0.503747 0.787648 0.159203
H9    H     H_    0.179860 0.511731 0.950521 0.190472
H10   H     H_    0.818232 0.538788 0.051062 0.190700
H11   H     H_    0.341334 0.526254 0.166982 0.179172
H12   H     H_    0.656157 0.542659 0.834667 0.172412
H13   H     H_    0.663748 0.222730 0.452769 0.182386
H14   H     H_    0.337748 0.775973 0.559712 0.178301
H15   H     H_    0.759611 0.087641 0.416967 0.159826
H16   H     H_    0.243639 0.909701 0.597874 0.151014
N1    N     N_R   0.256170 0.500070 0.500040 -0.244776
N2    N     N_R   0.743830 0.499930 0.499960 -0.245253
O1    O     O_R   0.417730 0.629750 0.499970 -0.543167
O2    O     O_R   0.582270 0.370250 0.500030 -0.540577
O3    O     O_R   0.582270 0.629730 0.499980 -0.556083
O4    O     O_R   0.417730 0.370270 0.500020 -0.563855
O5    O     O_R   0.371590 0.500020 0.629830 -0.600177
O6    O     O_R   0.628410 0.499980 0.370170 -0.606669
O7    O     O_R   0.536130 0.499990 0.629840 -0.541239
O8    O     O_R   0.463870 0.500010 0.370160 -0.544986
F1    F     F_    0.199488 0.520256 0.099761 -0.707523
F2    F     F_    0.797883 0.548409 0.901987 -0.690184
F3    F     F_    0.301835 0.610112 0.388373 -0.672425
F4    F     F_    0.698294 0.389694 0.611417 -0.669024
O9    O     O_3   0.031429 0.330240 0.673477 -0.579982
C53   C     C_3   0.002104 0.368187 0.759598 -0.252601
H17   H     H_    0.041313 0.433244 0.758475 0.159154
H18   H     H_    0.026618 0.323478 0.804025 0.198409
H19   H     H_    0.916462 0.375500 0.788968 0.186297
O10   O     O_3   0.966411 0.673262 0.330362 -0.591226
C54   C     C_3   0.003907 0.642930 0.241186 -0.274084
H20   H     H_    0.974192 0.686944 0.199578 0.184681
H21   H     H_    0.975722 0.574625 0.235241 0.170593
H22   H     H_    0.090017 0.646017 0.213732 0.216667
O11   O     O_3   0.309574 0.228461 0.542289 -0.516712
C55   C     C_3   0.282659 0.229658 0.463741 -0.209711
H23   H     H_    0.274582 0.161773 0.439612 0.134004
H24   H     H_    0.340339 0.267723 0.409177 0.139209
H25   H     H_    0.206574 0.262618 0.479090 0.189645
O12   O     O_3   0.688542 0.769289 0.418063 -0.535694
C56   C     C_3   0.698950 0.754701 0.327539 -0.193718
H26   H     H_    0.700767 0.818168 0.291436 0.164295
H27   H     H_    0.636009 0.710975 0.321383 0.121188
H28   H     H_    0.773556 0.720820 0.294131 0.192154
O13   O     O_3   0.786861 0.917516 0.403146 -0.540278
C57   C     C_3   0.829900 0.911967 0.472107 -0.205574
H29   H     H_    0.778074 0.874589 0.530869 0.163172
H30   H     H_    0.847478 0.978840 0.492975 0.124327
H31   H     H_    0.904030 0.875432 0.446405 0.202955
O14   O     O_3   0.216100 0.084660 0.608679 -0.514940
C58   C     C_3   0.134419 0.049848 0.582839 -0.274678
H32   H     H_    0.096834 0.993012 0.626282 0.159088
H33   H     H_    0.160028 0.030477 0.510872 0.126372
H34   H     H_    0.074847 0.101843 0.592719 0.208463

loop_
_geom_bond_atom_site_label_1
_geom_bond_atom_site_label_2
_ccdc_geom_bond_type
C4    H12   S    
C45   H6    S    
C56   H26   S    
C6    F2    S    
C46   H5    S    
C27   C29   A    
C34   C37   A    
C26   N2    A    
C58   H32   S    
C20   H16   S    
C28   H2    S    
C2    O4    A    
C47   C49   A    
C3    H11   S    
Cu1   Cu2   S    
C40   C46   A    
C12   H14   S    
C35   C37   A    
C27   H1    S    
C57   H29   S    
C15   C16   A    
C18   C21   A    
C55   H25   S    
C11   C13   A    
C15   C17   A    
O14   C58   S    
C24   O8    A    
Cu2   O2    S    
C26   C34   A    
O11   C55   S    
C22   O14   S    
C55   H24   S    
C31   C33   A    
C25   N1    A    
C2    O2    A    
C39   C45   A    
C48   C50   A    
C56   H27   S    
C38   H4    S    
C41   C43   A    
C5    C49   A    
C28   N2    A    
C42   C44   A    
C41   C49   A    
C11   H13   S    
C45   C47   A    
C46   C48   A    
C13   C19   A    
C4    C51   A    
C51   C52   A    
C1    O3    A    
C14   C20   A    
Cu1   O8    S    
C4    C6    A    
C54   H20   S    
C53   H17   S    
C39   C43   A    
C7    C17   A    
O9    C53   S    
C8    C18   A    
C32   C34   A    
Cu1   O5    S    
C54   H21   S    
C5    F1    S    
C31   C32   A    
C40   C44   A    
C55   H23   S    
C58   H33   S    
C16   C18   A    
C23   O5    A    
C9    C11   A    
C10   C12   A    
C42   C50   A    
C24   O6    A    
C12   C14   A    
C56   H28   S    
C13   C15   A    
C14   C16   A    
C19   H15   S    
Cu1   O4    S    
C41   H9    S    
Cu1   N1    S    
C42   H10   S    
C27   N1    A    
Cu2   O7    S    
C36   O10   S    
C7    C9    A    
C26   F4    S    
C6    C50   A    
C19   C21   A    
Cu1   O1    S    
C1    C10   S    
C33   C38   A    
C20   C22   A    
C3    C5    A    
C53   H19   S    
C47   C51   A    
C3    C52   A    
C44   H7    S    
C7    O11   S    
O13   C57   S    
C29   C35   A    
C17   C22   A    
C30   C36   A    
C1    O1    A    
C28   C30   A    
C8    O12   S    
C29   C31   A    
C54   H22   S    
C30   C32   A    
C35   O9    S    
O10   C54   S    
C57   H30   S    
C23   C39   S    
C36   C38   A    
O12   C56   S    
C24   C40   S    
C58   H34   S    
C53   H18   S    
C37   H3    S    
Cu2   O3    S    
C48   C52   A    
Cu2   N2    S    
C8    C10   A    
C25   F3    S    
C23   O7    A    
C2    C9    S    
C21   O13   S    
C43   H8    S    
C25   C33   A    
Cu2   O6    S    
C57   H31   S    
