data_mof_unit_44912.cif
_audit_creation_date              2012-12-10T19:05:52-0500
_audit_creation_method            fapswitch 2.2
_symmetry_space_group_name_H-M    P1
_symmetry_Int_Tables_number       1
_space_group_crystal_system       triclinic
_cell_length_a                    19.348484
_cell_length_b                    10.863165
_cell_length_c                    9.666521
_cell_angle_alpha                 91.162588
_cell_angle_beta                  89.321205
_cell_angle_gamma                 91.915927
_cell_volume                      2030.08452917

loop_
_atom_site_label
_atom_site_type_symbol
_atom_type_description
_atom_site_fract_x
_atom_site_fract_y
_atom_site_fract_z
_atom_type_partial_charge
C1    C     C_R   0.498838 0.262501 0.498181 0.855359
C2    C     C_R   0.291665 0.504554 0.500966 -0.040319
C3    C     C_R   0.929991 0.507488 0.498505 0.410857
C4    C     C_R   0.070208 0.509481 0.499541 0.422224
C5    C     C_R   0.816435 0.505775 0.623563 -0.156056
C6    C     C_R   0.744465 0.503408 0.623662 -0.195375
C7    C     C_R   0.708373 0.501292 0.498429 -0.022679
C8    C     C_R   0.745633 0.500675 0.372936 -0.183747
C9    C     C_R   0.817714 0.502622 0.372811 -0.156265
C10   C     C_R   0.853810 0.505450 0.498190 0.059215
C11   C     C_R   0.455660 0.060677 0.585072 -0.001914
C12   C     C_R   0.367681 0.501310 0.500600 0.802853
C13   C     C_R   0.496117 0.128293 0.490695 -0.247229
C14   C     C_R   0.533067 0.064118 0.385646 0.473144
C15   C     C_R   0.536772 0.934226 0.393696 -0.318232
C16   C     C_R   0.503437 0.870359 0.500680 -0.111707
C17   C     C_R   0.463027 0.934905 0.593845 -0.009255
C18   C     C_3   0.465565 0.941752 0.747960 0.226765
C19   C     C_3   0.447217 0.076908 0.738011 0.122002
C20   C     C_R   0.557892 0.534539 0.072455 0.166352
C21   C     C_R   0.447278 0.444787 0.075585 0.444873
C22   C     C_R   0.446093 0.448696 0.927999 0.334549
C23   C     C_R   0.502340 0.737111 0.500964 0.818082
C24   C     C_R   0.558327 0.532590 0.926293 0.148295
C25   C     C_3   0.598387 0.651558 0.922426 -0.460036
C26   C     C_3   0.597185 0.654364 0.079754 -0.475859
C27   C     C_R   0.632322 0.500270 0.499331 0.767207
C28   C     C_R   0.254775 0.528604 0.623891 -0.106567
C29   C     C_R   0.182762 0.530304 0.623626 -0.137691
C30   C     C_R   0.146347 0.509091 0.500073 0.047027
C31   C     C_R   0.183365 0.487140 0.376781 -0.149496
C32   C     C_R   0.255242 0.485169 0.377231 -0.178901
Cu1   Cu    Cu3+1 0.500000 0.499980 0.640670 0.997419
Cu2   Cu    Cu3+1 0.500000 0.500020 0.359330 0.993484
H1    H     H_    0.281399 0.547546 0.720111 0.195535
H2    H     H_    0.567002 0.881858 0.320390 0.155470
H3    H     H_    0.424189 0.882531 0.795606 0.161865
H4    H     H_    0.482389 0.147127 0.786475 0.119464
H5    H     H_    0.651024 0.641368 0.877461 0.186245
H6    H     H_    0.567881 0.723720 0.876726 0.278619
H7    H     H_    0.649189 0.645609 0.125347 0.189614
H8    H     H_    0.155744 0.548788 0.720172 0.163175
H9    H     H_    0.566093 0.729526 0.125060 0.207344
H10   H     H_    0.156905 0.470847 0.279711 0.166816
H11   H     H_    0.282076 0.467979 0.280389 0.213984
H12   H     H_    0.842674 0.507385 0.721935 0.154575
H13   H     H_    0.717222 0.503138 0.722099 0.146517
H14   H     H_    0.719214 0.498640 0.274751 0.148198
H15   H     H_    0.845053 0.502268 0.274424 0.154369
N1    N     N_R   0.035196 0.497934 0.378865 -0.231792
N2    N     N_R   0.966459 0.497061 0.378326 -0.234350
N3    N     N_R   0.965005 0.519202 0.619168 -0.234843
N4    N     N_R   0.033746 0.520247 0.619691 -0.229389
N5    N     N_R   0.500440 0.500930 0.147930 -0.240752
N6    N     N_R   0.500440 0.500890 0.852020 -0.237210
O1    O     O_R   0.500000 0.319640 0.618810 -0.572326
O2    O     O_R   0.500010 0.319680 0.381230 -0.541316
O3    O     O_R   0.400140 0.499970 0.618830 -0.520829
O4    O     O_R   0.400150 0.500010 0.381250 -0.537548
O5    O     O_R   0.499990 0.680320 0.618770 -0.561965
O6    O     O_R   0.500000 0.680360 0.381190 -0.587758
O7    O     O_R   0.599850 0.499990 0.618750 -0.589292
O8    O     O_R   0.599860 0.500030 0.381170 -0.579137
O9    O     O_3   0.531752 0.914946 0.801736 -0.606120
C33   C     C_3   0.587317 0.998157 0.768329 0.066242
H16   H     H_    0.585131 0.082961 0.833716 0.133136
H17   H     H_    0.588650 0.023009 0.657961 0.157172
C34   C     C_3   0.655283 0.938218 0.798194 -0.809708
H18   H     H_    0.660411 0.853698 0.732758 0.248832
H19   H     H_    0.699183 0.003192 0.774685 0.210980
H20   H     H_    0.657297 0.913678 0.909025 0.245160
Cl1   Cl    Cl    0.358102 0.096148 0.780391 -0.577342
O10   O     O_3   0.391647 0.392277 0.146505 -0.546892
C35   C     C_3   0.397876 0.263027 0.148388 0.072960
H21   H     H_    0.451252 0.236680 0.171837 0.179872
H22   H     H_    0.383622 0.220212 0.047327 0.220748
C36   C     C_3   0.348887 0.209042 0.257401 -0.701699
H23   H     H_    0.354039 0.107652 0.260379 0.203232
H24   H     H_    0.361153 0.248988 0.361097 0.243359
H25   H     H_    0.294640 0.229169 0.232060 0.252511
Cl2   Cl    Cl    0.371120 0.385689 0.850939 -0.552480
O11   O     O_3   0.566819 0.132435 0.282603 -0.589005
C37   C     C_3   0.575278 0.067439 0.155251 0.067312
H26   H     H_    0.614265 0.995301 0.163588 0.134286
H27   H     H_    0.598465 0.133355 0.080186 0.160338
C38   C     C_3   0.506762 0.015461 0.094687 -0.822418
H28   H     H_    0.489570 0.075499 0.011756 0.222554
H29   H     H_    0.514208 0.921228 0.052711 0.261684
H30   H     H_    0.463969 0.008991 0.171560 0.243625

loop_
_geom_bond_atom_site_label_1
_geom_bond_atom_site_label_2
_ccdc_geom_bond_type
Cu1   N6    S    
Cu1   O3    S    
C29   H8    S    
O10   C35   S    
C2    C12   S    
C7    C8    A    
C36   H23   S    
C24   N6    A    
C11   C19   S    
C35   H22   S    
C5    C6    A    
C28   C29   A    
C19   H4    S    
C1    O1    A    
C25   H6    S    
C21   N5    A    
C4    N4    A    
C38   H29   S    
C16   C17   A    
C15   C16   A    
C21   O10   S    
C7    C27   S    
C2    C32   A    
C18   C19   S    
C32   H11   S    
C34   H18   S    
C12   O4    A    
C31   C32   A    
C28   H1    S    
C8    C9    A    
C33   H17   S    
C35   C36   S    
Cu2   O2    S    
C9    C10   A    
C12   O3    A    
Cu1   O1    S    
C21   C22   A    
C19   Cl1   S    
C26   H9    S    
Cu1   Cu2   S    
C36   H24   S    
C23   O5    A    
C31   H10   S    
C22   Cl2   S    
C20   C24   A    
C9    H15   S    
C24   C25   S    
C20   N5    A    
C6    H13   S    
C3    N2    A    
C38   H28   S    
Cu1   O7    S    
N1    N2    A    
C25   C26   S    
Cu2   O6    S    
C4    N1    A    
C8    H14   S    
C29   C30   A    
C27   O7    A    
C1    O2    A    
C37   H26   S    
C33   C34   S    
C17   C18   S    
C6    C7    A    
C27   O8    A    
C37   H27   S    
Cu2   N5    S    
Cu1   O5    S    
Cu2   O4    S    
C1    C13   S    
C14   O11   S    
C15   H2    S    
N3    N4    A    
C36   H25   S    
C11   C17   A    
C18   H3    S    
C38   H30   S    
C3    N3    A    
C22   N6    A    
C16   C23   S    
C5    H12   S    
O9    C33   S    
C5    C10   A    
C3    C10   S    
C25   H5    S    
C11   C13   A    
C18   O9    S    
C30   C31   A    
C20   C26   S    
C34   H20   S    
Cu2   O8    S    
C33   H16   S    
C23   O6    A    
C37   C38   S    
C35   H21   S    
C34   H19   S    
O11   C37   S    
C14   C15   A    
C2    C28   A    
C13   C14   A    
C4    C30   S    
C26   H7    S    
