data_mof_unit_39070.cif
_audit_creation_date              2012-10-26T20:38:00-0400
_audit_creation_method            fapswitch 2.2
_symmetry_space_group_name_H-M    P1
_symmetry_Int_Tables_number       1
_space_group_crystal_system       triclinic
_cell_length_a                    9.810059
_cell_length_b                    10.884796
_cell_length_c                    13.007686
_cell_angle_alpha                 90.178342
_cell_angle_beta                  75.260074
_cell_angle_gamma                 109.316661
_cell_volume                      1262.62946543

loop_
_atom_site_label
_atom_site_type_symbol
_atom_type_description
_atom_site_fract_x
_atom_site_fract_y
_atom_site_fract_z
_atom_type_partial_charge
C1    C     C_R   0.443424 0.254223 0.501106 0.560350
C2    C     C_R   0.659107 0.651456 0.013542 -0.028107
C3    C     C_R   0.349468 0.368677 0.879301 -0.052200
C4    C     C_R   0.647176 0.635877 0.122516 -0.046243
C5    C     C_R   0.548345 0.580111 0.861631 -0.037052
C6    C     C_R   0.453121 0.422276 0.137910 -0.034587
C7    C     C_R   0.552785 0.560170 0.968298 -0.008210
C8    C     C_R   0.446775 0.444064 0.032176 -0.007661
C9    C     C_2   0.421267 0.115937 0.488437 -0.110191
C10   C     C_2   0.586413 0.886084 0.476243 -0.106616
C11   C     C_2   0.530972 0.075350 0.430010 -0.058568
C12   C     C_R   0.558456 0.746186 0.488304 0.564908
C13   C     C_2   0.506108 0.935958 0.429594 -0.055670
C14   C     C_1   0.379674 0.294929 0.198498 0.228255
C15   C     C_1   0.626286 0.705390 0.798434 0.229242
C16   C     C_1   0.740714 0.738291 0.172063 0.234182
C17   C     C_1   0.252057 0.267336 0.831430 0.229878
C18   C     C_1   0.207240 0.251715 0.053349 0.233068
C19   C     C_1   0.787153 0.757856 0.950283 0.227786
C20   C     C_1   0.403630 0.859953 0.371555 0.247402
C21   C     C_1   0.674726 0.163335 0.366458 0.261372
C22   C     C_2   0.081537 0.508110 0.489350 -0.000794
C23   C     C_2   0.917266 0.487533 0.508006 0.003188
C24   C     C_R   0.472442 0.492212 0.702204 0.549733
C25   C     C_R   0.527565 0.508128 0.297887 0.548224
C26   C     C_R   0.544204 0.521921 0.183772 -0.021687
C27   C     C_R   0.455760 0.480271 0.816590 -0.029507
C28   C     C_R   0.338039 0.354237 0.988191 -0.030357
Cu1   Cu    Cu3+1 0.647370 0.522180 0.481340 1.013815
Cu2   Cu    Cu3+1 0.352630 0.477820 0.518660 1.011031
H1    H     H_    0.673884 0.950613 0.508149 0.122907
H2    H     H_    0.312579 0.044653 0.528394 0.127464
H3    H     H_    0.836438 0.413354 0.569438 0.150708
H4    H     H_    0.161393 0.578297 0.425317 0.178665
H5    H     H_    0.947957 0.625805 0.395798 0.231852
H6    H     H_    0.052747 0.377482 0.606884 0.220037
N1    N     N_2   0.131210 0.444490 0.546730 -0.348680
N2    N     N_1   0.789417 0.233212 0.315649 -0.242277
N3    N     N_2   0.868790 0.555510 0.453270 -0.339184
N4    N     N_1   0.322590 0.194031 0.247415 -0.247819
N5    N     N_1   0.686912 0.804558 0.747222 -0.259893
N6    N     N_1   0.814955 0.819816 0.211449 -0.238366
N7    N     N_1   0.174656 0.186687 0.793376 -0.246542
N8    N     N_1   0.102229 0.170124 0.104356 -0.208345
N9    N     N_1   0.890087 0.842683 0.900979 -0.223718
N10   N     N_1   0.322873 0.801014 0.323736 -0.301464
O1    O     O_R   0.578710 0.332530 0.490040 -0.497852
O2    O     O_R   0.421290 0.667470 0.509960 -0.493225
O3    O     O_R   0.329810 0.295070 0.521560 -0.468261
O4    O     O_R   0.670190 0.704930 0.478440 -0.468795
O5    O     O_R   0.604230 0.515670 0.637800 -0.498228
O6    O     O_R   0.395770 0.484330 0.362200 -0.494540
O7    O     O_R   0.355330 0.478200 0.669330 -0.485247
O8    O     O_R   0.644670 0.521800 0.330670 -0.484184

loop_
_geom_bond_atom_site_label_1
_geom_bond_atom_site_label_2
_ccdc_geom_bond_type
C4    C16   S    
C2    C4    A    
C17   N7    T    
Cu1   Cu2   S    
C18   N8    T    
C6    C14   S    
C11   C13   S    
C12   O4    A    
C2    C7    A    
C13   C20   S    
C24   C27   S    
C12   O2    A    
Cu1   N3    S    
C24   O5    A    
C19   N9    T    
C24   O7    A    
C25   O6    A    
C18   C28   S    
C7    C8    A    
C5    C27   A    
C9    C11   D    
C6    C26   A    
C10   C12   S    
Cu1   O1    S    
C22   H4    S    
C3    C27   A    
C3    C28   A    
Cu2   O3    S    
C3    C17   S    
Cu1   O4    S    
H5    N3    S    
C8    C28   A    
Cu2   O7    S    
C23   N3    D    
C4    C26   A    
C5    C15   S    
Cu1   O8    S    
C14   N4    T    
C16   N6    T    
C1    C9    S    
C25   O8    A    
C15   N5    T    
H6    N1    S    
Cu1   O5    S    
Cu2   O2    S    
C5    C7    A    
Cu2   O6    S    
C22   C23   S    
C1    O1    A    
C6    C8    A    
C9    H2    S    
C25   C26   S    
C2    C19   S    
C22   N1    D    
C1    O3    A    
C10   H1    S    
C11   C21   S    
C20   N10   T    
C21   N2    T    
Cu2   N1    S    
C23   H3    S    
C10   C13   D    
