data_mof_unit_12566.cif
_audit_creation_date              2012-12-10T18:25:44-0500
_audit_creation_method            fapswitch 2.2
_symmetry_space_group_name_H-M    P1
_symmetry_Int_Tables_number       1
_space_group_crystal_system       triclinic
_cell_length_a                    23.558233
_cell_length_b                    15.864035
_cell_length_c                    14.622713
_cell_angle_alpha                 89.967479
_cell_angle_beta                  90.068716
_cell_angle_gamma                 90.134731
_cell_volume                      5464.90662689

loop_
_atom_site_label
_atom_site_type_symbol
_atom_type_description
_atom_site_fract_x
_atom_site_fract_y
_atom_site_fract_z
_atom_type_partial_charge
C1    C     C_R   0.500018 0.339450 0.500025 0.822150
C2    C     C_R   0.499913 0.660545 0.499990 0.819433
C3    C     C_R   0.237806 0.553203 0.558158 -0.130954
C4    C     C_R   0.763940 0.465951 0.569303 -0.131327
C5    C     C_R   0.297298 0.556334 0.560745 0.042938
C6    C     C_R   0.704529 0.461975 0.573733 0.053786
C7    C     C_R   0.328568 0.505459 0.499072 -0.059142
C8    C     C_R   0.672059 0.495408 0.500000 -0.063422
C9    C     C_R   0.299665 0.456564 0.433893 -0.239745
C10   C     C_R   0.700405 0.528124 0.423095 -0.249971
C11   C     C_R   0.240648 0.456003 0.430707 -0.101735
C12   C     C_R   0.759409 0.529122 0.418982 -0.106900
C13   C     C_R   0.209365 0.503608 0.493329 0.320204
C14   C     C_R   0.791491 0.498587 0.492248 0.323722
C15   C     C_3   0.503165 0.972129 0.584675 0.539478
C16   C     C_3   0.496387 0.027839 0.415360 0.540423
C17   C     C_3   0.548696 0.027884 0.538851 -0.301196
C18   C     C_3   0.450858 0.972083 0.461193 -0.301317
C19   C     C_1   0.500010 0.249853 0.500195 -0.167239
C20   C     C_1   0.499755 0.750132 0.499859 -0.167580
C21   C     C_3   0.454448 0.027745 0.548522 -0.297690
C22   C     C_3   0.545106 0.972225 0.451521 -0.296166
C23   C     C_R   0.390868 0.502383 0.499937 0.787308
C24   C     C_R   0.609350 0.497522 0.500205 0.789387
C25   C     C_3   0.499910 0.082822 0.501042 0.068086
C26   C     C_3   0.499642 0.917152 0.499000 0.067472
C27   C     C_1   0.499975 0.174370 0.500536 0.011815
C28   C     C_1   0.499661 0.825609 0.499529 0.012292
C29   C     C_3   0.446591 0.518861 0.970066 -0.468730
C30   C     C_3   0.553916 0.480120 0.029916 -0.486538
C31   C     C_3   0.463588 0.442653 0.030751 0.423859
C32   C     C_3   0.536911 0.556314 0.969120 0.411590
C33   C     C_3   0.485465 0.575058 0.030522 0.418475
C34   C     C_3   0.515047 0.423957 0.969351 0.404964
C35   C     C_3   0.501413 0.499225 0.091846 -0.122016
C36   C     C_3   0.499027 0.499810 0.908105 -0.121417
C37   C     C_1   0.500621 0.499660 0.194265 0.257232
C38   C     C_1   0.499519 0.499953 0.805719 0.233489
C39   C     C_R   0.880750 0.574245 0.478415 0.532079
C40   C     C_R   0.120010 0.427731 0.501770 0.531473
C41   C     C_R   0.881347 0.424406 0.495616 0.530212
C42   C     C_R   0.119536 0.576607 0.476534 0.532247
C43   C     C_R   0.940868 0.423609 0.496277 -0.013681
C44   C     C_R   0.059989 0.577455 0.475873 -0.014153
C45   C     C_R   0.970459 0.500250 0.486330 -0.018846
C46   C     C_R   0.030370 0.500965 0.486957 -0.018915
C47   C     C_R   0.940291 0.576217 0.476224 -0.014661
C48   C     C_R   0.060507 0.425230 0.499102 -0.014120
C49   C     C_R   0.971354 0.348237 0.507071 -0.166008
C50   C     C_R   0.029490 0.652765 0.464560 -0.165427
C51   C     C_R   0.030549 0.349098 0.508976 -0.165668
C52   C     C_R   0.970267 0.652212 0.465217 -0.165729
Cu1   Cu    Cu3+1 0.500010 0.500000 0.590220 0.973001
Cu2   Cu    Cu3+1 0.499990 0.500000 0.409780 0.994839
H1    H     H_    0.949604 0.288445 0.514885 0.188141
H2    H     H_    0.051249 0.712451 0.455903 0.188152
H3    H     H_    0.403008 0.533709 0.946694 0.156333
H4    H     H_    0.597324 0.464454 0.053960 0.154540
H5    H     H_    0.052706 0.289944 0.518138 0.188261
H6    H     H_    0.948100 0.711483 0.457073 0.188138
H7    H     H_    0.213326 0.590909 0.605596 0.148302
H8    H     H_    0.789203 0.441943 0.625541 0.146157
H9    H     H_    0.322904 0.418081 0.385593 0.168263
H10   H     H_    0.676817 0.553543 0.365769 0.164041
H11   H     H_    0.219143 0.418297 0.379532 0.155779
H12   H     H_    0.780261 0.553760 0.358630 0.152788
H13   H     H_    0.588144 0.052030 0.571235 0.153435
H14   H     H_    0.411413 0.947947 0.428790 0.155197
H15   H     H_    0.581543 0.948217 0.411222 0.154944
H16   H     H_    0.418026 0.051731 0.588873 0.154942
N1    N     N_R   0.852483 0.499098 0.488071 -0.461937
N2    N     N_R   0.148341 0.502614 0.490322 -0.461792
N3    N     N_1   0.499980 0.500000 0.274190 -0.159779
N4    N     N_1   0.500020 0.500000 0.725810 -0.163781
O1    O     O_R   0.500010 0.379080 0.576170 -0.576255
O2    O     O_R   0.499990 0.620920 0.423830 -0.568555
O3    O     O_R   0.500000 0.379080 0.423800 -0.559004
O4    O     O_R   0.500000 0.620920 0.576200 -0.565186
O5    O     O_R   0.417890 0.499980 0.576200 -0.579820
O6    O     O_R   0.582110 0.500020 0.423800 -0.579921
O7    O     O_R   0.417870 0.499970 0.423830 -0.566108
O8    O     O_R   0.582130 0.500030 0.576170 -0.578207
O9    O     O_2   0.851372 0.646957 0.472300 -0.545231
O10   O     O_2   0.149311 0.356042 0.516810 -0.545636
O11   O     O_2   0.852505 0.351036 0.502048 -0.547694
O12   O     O_2   0.148434 0.649064 0.462823 -0.546582
O13   O     O_3   0.427160 0.381168 0.068566 -0.578062
C53   C     C_3   0.391985 0.347459 0.999523 0.082822
H17   H     H_    0.416638 0.328446 0.937973 0.172642
H18   H     H_    0.359202 0.394303 0.979386 0.145934
C54   C     C_3   0.362168 0.269414 0.036311 -0.774742
H19   H     H_    0.336256 0.286067 0.097053 0.256496
H20   H     H_    0.333910 0.242582 0.982856 0.199407
H21   H     H_    0.394044 0.221215 0.056136 0.246009
O14   O     O_3   0.573179 0.617729 0.930805 -0.583514
C55   C     C_3   0.609136 0.650718 0.999139 0.075213
H22   H     H_    0.641272 0.602950 0.019447 0.140012
H23   H     H_    0.584907 0.671098 0.060612 0.175812
C56   C     C_3   0.640079 0.727306 0.961213 -0.776992
H24   H     H_    0.608933 0.776444 0.941093 0.247560
H25   H     H_    0.668952 0.753626 0.014110 0.199491
H26   H     H_    0.665493 0.709100 0.900444 0.254118
O15   O     O_3   0.527957 0.344521 0.931447 -0.594634
C57   C     C_3   0.549922 0.291057 0.999832 0.093996
H27   H     H_    0.522642 0.290295 0.062011 0.179982
H28   H     H_    0.593608 0.311304 0.018832 0.146814
C58   C     C_3   0.552731 0.201603 0.962772 -0.811732
H29   H     H_    0.579878 0.199720 0.900751 0.251296
H30   H     H_    0.571017 0.158993 0.015308 0.201395
H31   H     H_    0.509420 0.179138 0.944888 0.245883
O16   O     O_3   0.472755 0.654725 0.068041 -0.582792
C59   C     C_3   0.450471 0.707842 0.999555 0.097782
H32   H     H_    0.405787 0.689827 0.984698 0.148784
H33   H     H_    0.475718 0.705355 0.935203 0.174774
C60   C     C_3   0.451262 0.798352 0.033798 -0.801782
H34   H     H_    0.495671 0.818734 0.046982 0.243822
H35   H     H_    0.432226 0.840550 0.981576 0.199426
H36   H     H_    0.426425 0.803546 0.098057 0.254803
C61   C     C_3   0.325043 0.619163 0.624781 -0.387466
C62   C     C_3   0.325241 0.586541 0.723406 -0.317889
C63   C     C_3   0.353150 0.650025 0.787729 -0.855665
H37   H     H_    0.399101 0.656170 0.771942 0.262111
H38   H     H_    0.332549 0.712673 0.781398 0.259817
H39   H     H_    0.348257 0.628184 0.859289 0.225137
H40   H     H_    0.280901 0.575326 0.746433 0.212951
H41   H     H_    0.348705 0.525922 0.727316 0.233899
H42   H     H_    0.368913 0.634872 0.603009 0.206970
H43   H     H_    0.301172 0.679525 0.621539 0.199299
C64   C     C_3   0.678738 0.416884 0.655151 -0.399452
C65   C     C_3   0.672452 0.476577 0.736995 -0.325254
C66   C     C_3   0.647875 0.430534 0.819639 -0.782337
H44   H     H_    0.605678 0.403487 0.802600 0.280658
H45   H     H_    0.676670 0.378972 0.841533 0.240150
H46   H     H_    0.642955 0.475389 0.877282 0.255885
H47   H     H_    0.714667 0.502829 0.755878 0.212114
H48   H     H_    0.644147 0.529975 0.718945 0.253673
H49   H     H_    0.637521 0.387134 0.637387 0.211552
H50   H     H_    0.706685 0.363479 0.675136 0.195952
O17   O     O_3   0.506444 0.935943 0.672700 -0.570093
C67   C     C_3   0.510729 0.000342 0.738820 0.073245
H51   H     H_    0.473613 0.043551 0.735324 0.138440
H52   H     H_    0.550572 0.037190 0.729550 0.141254
C68   C     C_3   0.511932 0.960774 0.833606 -0.780143
H53   H     H_    0.548952 0.917927 0.840009 0.252738
H54   H     H_    0.515338 0.010844 0.886399 0.197409
H55   H     H_    0.472345 0.924235 0.845371 0.246483
O18   O     O_3   0.492989 0.063989 0.327319 -0.569191
C69   C     C_3   0.489480 0.999527 0.261149 0.074285
H56   H     H_    0.450379 0.961046 0.270878 0.142037
H57   H     H_    0.527398 0.957858 0.264098 0.139008
C70   C     C_3   0.487038 0.039110 0.166419 -0.778362
H58   H     H_    0.525842 0.077324 0.154099 0.247180
H59   H     H_    0.484304 0.988949 0.113625 0.197681
H60   H     H_    0.449173 0.080368 0.160576 0.252314

loop_
_geom_bond_atom_site_label_1
_geom_bond_atom_site_label_2
_ccdc_geom_bond_type
C68   H55   S    
O13   C53   S    
C4    H8    S    
C18   C21   S    
C1    O3    A    
C14   N1    S    
C40   O10   S    
O18   C69   S    
C18   C26   S    
C69   C70   S    
C66   H46   S    
C57   H28   S    
Cu1   Cu2   S    
C29   C36   S    
C30   C35   S    
C5    C61   S    
C16   O18   S    
C32   C36   S    
C35   C37   S    
C67   H52   S    
C62   H41   S    
C18   H14   S    
C68   H53   S    
C55   C56   S    
C29   C33   S    
C7    C9    A    
C70   H60   S    
C24   O8    A    
C59   H32   S    
C63   H39   S    
C37   N3    T    
C52   H6    S    
C33   C35   S    
C24   O6    A    
C48   C51   A    
C64   H50   S    
O14   C55   S    
C60   H35   S    
C55   H23   S    
C50   C52   A    
C70   H58   S    
C67   C68   S    
C42   O12   S    
C19   C27   T    
C22   H15   S    
Cu2   O6    S    
C3    C13   A    
C41   N1    A    
Cu2   O3    S    
C61   H43   S    
C3    H7    S    
C70   H59   S    
C57   C58   S    
C41   C43   A    
Cu1   O1    S    
C42   C44   A    
C6    C64   S    
C59   H33   S    
C57   H27   S    
C44   C46   A    
C15   O17   S    
C45   C47   A    
C46   C48   A    
C17   H13   S    
C31   O13   S    
C30   C34   S    
C2    C20   S    
C1    O1    A    
C69   H56   S    
C4    C6    A    
C54   H19   S    
C5    C7    A    
C62   H40   S    
C43   C49   A    
C15   C26   S    
C6    C8    A    
C20   C28   T    
C49   C51   A    
C45   C46   A    
C1    C19   S    
C12   H12   S    
C50   H2    S    
C23   O7    A    
Cu1   O8    S    
C2    O4    A    
C54   H20   S    
Cu2   N3    S    
C9    C11   A    
C56   H24   S    
C53   C54   S    
C58   H29   S    
C60   H36   S    
C55   H22   S    
C56   H26   S    
C42   N2    A    
C31   C34   S    
C67   H51   S    
C61   C62   S    
C43   C45   A    
C63   H37   S    
C10   C12   A    
C33   O16   S    
C69   H57   S    
C16   C18   S    
C56   H25   S    
C65   H47   S    
C53   H18   S    
C58   H31   S    
Cu2   O2    S    
C51   H5    S    
C66   H44   S    
C3    C5    A    
C2    O2    A    
C62   C63   S    
C39   C47   A    
C64   C65   S    
C38   N4    T    
C44   C50   A    
C16   C25   S    
C68   H54   S    
C21   C25   S    
C40   C48   A    
C16   C22   S    
C40   N2    A    
O16   C59   S    
Cu1   O5    S    
C9    H9    S    
C65   H48   S    
C34   O15   S    
C29   H3    S    
C66   H45   S    
O17   C67   S    
C15   C17   S    
C47   C52   A    
C13   N2    S    
C25   C27   S    
C41   O11   S    
C26   C28   S    
C17   C22   S    
C21   H16   S    
C17   C25   S    
C10   H10   S    
C36   C38   S    
Cu1   O4    S    
C12   C14   A    
C39   O9    S    
C29   C31   S    
C49   H1    S    
C32   C33   S    
C54   H21   S    
C30   C32   S    
C11   C13   A    
C58   H30   S    
C7    C23   S    
C30   H4    S    
C8    C24   S    
C34   C36   S    
C65   C66   S    
C31   C35   S    
Cu2   O7    S    
C4    C14   A    
C63   H38   S    
C11   H11   S    
C15   C21   S    
C32   O14   S    
C64   H49   S    
C53   H17   S    
C8    C10   A    
C22   C26   S    
O15   C57   S    
C39   N1    A    
C23   O5    A    
C59   C60   S    
C60   H34   S    
Cu1   N4    S    
C61   H42   S    
