data_mof_unit_42154.cif
_audit_creation_date              2013-03-05T15:51:41-0500
_audit_creation_method            fapswitch 2.2
_symmetry_space_group_name_H-M    P1
_symmetry_Int_Tables_number       1
_space_group_crystal_system       triclinic
_cell_length_a                    30.27444
_cell_length_b                    22.512435
_cell_length_c                    18.188873
_cell_angle_alpha                 90.098927
_cell_angle_beta                  123.720445
_cell_angle_gamma                 90.130906
_cell_volume                      10310.8962659

loop_
_atom_site_label
_atom_site_type_symbol
_atom_site_description
_atom_site_fract_x
_atom_site_fract_y
_atom_site_fract_z
_atom_type_partial_charge
C1    C     C_R   0.546168 0.578190 0.744867 -0.105526
C2    C     C_R   0.454343 0.420906 0.255928 -0.081037
C3    C     C_R   0.462317 0.600089 0.278025 -0.135206
C4    C     C_R   0.545629 0.420588 0.743846 -0.120646
C5    C     C_R   0.032383 0.108887 0.704613 -0.073109
C6    C     C_R   0.963544 0.896570 0.283289 -0.072994
C7    C     C_R   0.967836 0.109352 0.296478 -0.058765
C8    C     C_R   0.044773 0.919386 0.742321 -0.031514
H1    H     H_    0.522260 0.571206 0.770974 0.166717
H2    H     H_    0.478618 0.427493 0.230320 0.169918
H3    H     H_    0.490436 0.609653 0.261700 0.151638
H4    H     H_    0.521406 0.426436 0.769555 0.167072
H5    H     H_    0.000914 0.122991 0.710965 0.152525
H6    H     H_    0.990028 0.888816 0.263186 0.173157
H7    H     H_    0.999545 0.124425 0.291385 0.150353
H8    H     H_    0.020210 0.925024 0.767646 0.167224
N1    N     N_R   0.532910 0.558440 0.665240 -0.057660
N2    N     N_R   0.467090 0.441560 0.334760 -0.059896
N3    N     N_R   0.467090 0.558440 0.334760 -0.044376
N4    N     N_R   0.532910 0.441560 0.665240 -0.055948
N5    N     N_R   0.032910 0.058440 0.665240 -0.039186
N6    N     N_R   0.967090 0.941560 0.334760 -0.042849
N7    N     N_R   0.967090 0.058440 0.334760 -0.035422
N8    N     N_R   0.032910 0.941560 0.665240 -0.050954
C9    C     C_R   0.630128 0.605262 0.575742 -0.194307
C10   C     C_R   0.373026 0.391933 0.425069 -0.192708
C11   C     C_R   0.369910 0.605355 0.426812 -0.195014
C12   C     C_R   0.626080 0.391578 0.574841 -0.191969
C13   C     C_R   0.144976 0.081458 0.574958 -0.226777
C14   C     C_R   0.855230 0.918089 0.424788 -0.219596
C15   C     C_R   0.855169 0.081385 0.425508 -0.222732
C16   C     C_R   0.145170 0.919375 0.577439 -0.195493
H9    H     H_    0.656775 0.617512 0.644368 0.121388
H10   H     H_    0.346101 0.379659 0.356538 0.123705
H11   H     H_    0.338813 0.615391 0.359615 0.118268
H12   H     H_    0.653238 0.379775 0.643353 0.124012
H13   H     H_    0.179043 0.077322 0.642276 0.118203
H14   H     H_    0.821089 0.921963 0.357501 0.118485
H15   H     H_    0.821027 0.077384 0.358171 0.118935
H16   H     H_    0.178138 0.923444 0.645714 0.113832
N9    N     N_R   0.597030 0.558910 0.545540 -0.056653
N10   N     N_R   0.402970 0.441090 0.454460 -0.057051
N11   N     N_R   0.402970 0.558910 0.454460 -0.056930
N12   N     N_R   0.597030 0.441090 0.545540 -0.057821
N13   N     N_R   0.097030 0.058910 0.545540 -0.058320
N14   N     N_R   0.902970 0.941090 0.454460 -0.057670
N15   N     N_R   0.902970 0.058910 0.454460 -0.057815
N16   N     N_R   0.097030 0.941090 0.545540 -0.059864
C17   C     C_R   0.585240 0.602582 0.428405 0.281580
C18   C     C_R   0.420316 0.392569 0.572760 0.323326
C19   C     C_R   0.420125 0.606222 0.574141 0.333168
C20   C     C_R   0.577987 0.391016 0.427324 0.335823
C21   C     C_R   0.097125 0.081601 0.428902 0.287443
C22   C     C_R   0.903662 0.916049 0.570802 0.359192
C23   C     C_R   0.903141 0.081221 0.571641 0.290723
C24   C     C_R   0.098844 0.918344 0.431971 0.341818
N17   N     N_R   0.566200 0.559270 0.454460 -0.079119
N18   N     N_R   0.433800 0.440730 0.545540 -0.082119
N19   N     N_R   0.433800 0.559270 0.545540 -0.085274
N20   N     N_R   0.566200 0.440730 0.454460 -0.082275
N21   N     N_R   0.066200 0.059270 0.454460 -0.094440
N22   N     N_R   0.933800 0.940730 0.545540 -0.096375
N23   N     N_R   0.933800 0.059270 0.545540 -0.094115
N24   N     N_R   0.066200 0.940730 0.454460 -0.096555
C25   C     C_R   0.387582 0.598905 0.274337 -0.119830
C26   C     C_R   0.618575 0.418931 0.742979 -0.129912
C27   C     C_R   0.618840 0.580534 0.743263 -0.129840
C28   C     C_R   0.381428 0.418567 0.256938 -0.133798
C29   C     C_R   0.893401 0.108838 0.294272 -0.115454
C30   C     C_R   0.117863 0.916195 0.740709 -0.103654
C31   C     C_R   0.106689 0.108975 0.706166 -0.117556
C32   C     C_R   0.891231 0.893633 0.287603 -0.110415
H17   H     H_    0.346499 0.603540 0.251564 0.088308
H18   H     H_    0.659752 0.422438 0.765156 0.086783
H19   H     H_    0.659854 0.576858 0.764747 0.087536
H20   H     H_    0.340263 0.421585 0.234875 0.090886
H21   H     H_    0.855949 0.119891 0.284697 0.096199
H22   H     H_    0.158839 0.916416 0.761213 0.086982
H23   H     H_    0.144139 0.120298 0.715741 0.095823
H24   H     H_    0.853517 0.882524 0.277263 0.093207
N25   N     N_R   0.421050 0.559750 0.334770 -0.043286
N26   N     N_R   0.578950 0.440250 0.665230 -0.044489
N27   N     N_R   0.578950 0.559750 0.665230 -0.045280
N28   N     N_R   0.421050 0.440250 0.334770 -0.047620
N29   N     N_R   0.921050 0.059750 0.334770 -0.046932
N30   N     N_R   0.078950 0.940250 0.665230 -0.045507
N31   N     N_R   0.078950 0.059750 0.665230 -0.047007
N32   N     N_R   0.921050 0.940250 0.334770 -0.044855
C33   C     C_R   0.599639 0.592868 0.795467 0.032601
C34   C     C_R   0.401093 0.405199 0.205599 0.027461
C35   C     C_R   0.414173 0.628518 0.242691 0.037233
C36   C     C_R   0.598920 0.405342 0.794195 0.034713
C37   C     C_R   0.077716 0.141939 0.730276 0.013506
C38   C     C_R   0.918027 0.863640 0.256529 0.016209
C39   C     C_R   0.922436 0.142051 0.270567 0.006312
C40   C     C_R   0.097622 0.902705 0.791249 0.013565
C41   C     C_R   0.622161 0.635151 0.503300 -0.035896
C42   C     C_R   0.384018 0.359304 0.497751 -0.062621
C43   C     C_R   0.381722 0.637439 0.500441 -0.065525
C44   C     C_R   0.614177 0.358095 0.502244 -0.070025
C45   C     C_R   0.146753 0.096127 0.503424 -0.038468
C46   C     C_R   0.854363 0.901484 0.496365 -0.052069
C47   C     C_R   0.853593 0.095946 0.497421 -0.040697
C48   C     C_R   0.148033 0.904933 0.507500 -0.041438
Ni1   Ni    Ni4+2 0.483090 0.500000 0.604440 0.289850
Ni2   Ni    Ni4+2 0.516910 0.500000 0.395560 0.302230
Ni3   Ni    Ni4+2 0.983090 1.000000 0.604440 0.298270
Ni4   Ni    Ni4+2 0.016910 0.000000 0.395560 0.309582
Ni5   Ni    Ni4+2 0.586780 0.500000 0.604440 0.198751
Ni6   Ni    Ni4+2 0.413220 0.500000 0.395560 0.203055
Ni7   Ni    Ni4+2 0.086780 1.000000 0.604440 0.194529
Ni8   Ni    Ni4+2 0.913220 0.000000 0.395560 0.199689
C49   C     C_R   0.278056 0.750415 0.445834 0.586097
C50   C     C_R   0.717931 0.240162 0.576215 0.570333
C51   C     C_R   0.718296 0.761836 0.578765 0.564382
C52   C     C_R   0.282756 0.237471 0.423174 0.568750
C53   C     C_R   0.726401 0.174486 0.423214 0.576862
C54   C     C_R   0.279963 0.834577 0.592748 0.567216
C55   C     C_R   0.275008 0.173499 0.578812 0.574790
C56   C     C_R   0.727364 0.822075 0.420801 0.568645
C57   C     C_R   0.302212 0.698108 0.445233 -0.348102
C58   C     C_R   0.692630 0.292771 0.573084 -0.346534
C59   C     C_R   0.695523 0.707725 0.577573 -0.337698
C60   C     C_R   0.307135 0.290856 0.425660 -0.348751
C61   C     C_R   0.770313 0.152547 0.425581 -0.366133
C62   C     C_R   0.235612 0.856234 0.588647 -0.324950
C63   C     C_R   0.230735 0.152075 0.576032 -0.368596
C64   C     C_R   0.771896 0.843228 0.424550 -0.346332
H25   H     H_    0.277901 0.660433 0.406720 0.152342
H26   H     H_    0.715892 0.328587 0.618203 0.145540
H27   H     H_    0.719407 0.675273 0.628379 0.145130
H28   H     H_    0.283471 0.325528 0.378976 0.145150
H29   H     H_    0.779789 0.170366 0.380606 0.138235
H30   H     H_    0.229518 0.843761 0.639894 0.147680
H31   H     H_    0.221349 0.170200 0.620992 0.138193
H32   H     H_    0.781371 0.825512 0.379474 0.139007
C65   C     C_R   0.357330 0.693281 0.498320 0.139164
C66   C     C_R   0.638644 0.300837 0.507986 0.142566
C67   C     C_R   0.643996 0.693584 0.507155 0.152197
C68   C     C_R   0.360540 0.301236 0.492218 0.149559
C69   C     C_R   0.804659 0.112012 0.490809 0.138094
C70   C     C_R   0.197103 0.888800 0.515063 0.136346
C71   C     C_R   0.195936 0.111658 0.510411 0.140164
C72   C     C_R   0.806481 0.883322 0.490758 0.136700
C73   C     C_R   0.388920 0.741997 0.547930 -0.084335
C74   C     C_R   0.608720 0.253812 0.451072 -0.090412
C75   C     C_R   0.612995 0.736003 0.442278 -0.093019
C76   C     C_R   0.391108 0.255631 0.551070 -0.085428
C77   C     C_R   0.791982 0.088573 0.548326 -0.090854
C78   C     C_R   0.206099 0.905434 0.450196 -0.130414
C79   C     C_R   0.208500 0.087591 0.453048 -0.088749
C80   C     C_R   0.793979 0.907012 0.548249 -0.125142
H33   H     H_    0.431841 0.739015 0.586755 0.134003
H34   H     H_    0.566172 0.257536 0.405102 0.148781
H35   H     H_    0.572200 0.726433 0.389595 0.116508
H36   H     H_    0.433307 0.261524 0.599065 0.136632
H37   H     H_    0.816052 0.054373 0.595405 0.150363
H38   H     H_    0.178575 0.933609 0.395685 0.160221
H39   H     H_    0.184018 0.053362 0.405746 0.148719
H40   H     H_    0.818420 0.941025 0.595792 0.158379
C81   C     C_R   0.365096 0.793930 0.550590 -0.216617
C82   C     C_R   0.634155 0.202599 0.450339 -0.216065
C83   C     C_R   0.635753 0.789450 0.441692 -0.194303
C84   C     C_R   0.366552 0.203600 0.552119 -0.205628
C85   C     C_R   0.749779 0.112099 0.549125 -0.221072
C86   C     C_R   0.249294 0.882355 0.452339 -0.228356
C87   C     C_R   0.250994 0.110687 0.452490 -0.214553
C88   C     C_R   0.750562 0.885109 0.546667 -0.207326
H41   H     H_    0.743663 0.098452 0.599937 0.138091
H42   H     H_    0.252570 0.889632 0.396675 0.137827
H43   H     H_    0.256960 0.096721 0.401589 0.138399
H44   H     H_    0.743945 0.899490 0.596669 0.136681
H45   H     H_    0.389455 0.829969 0.593948 0.132898
H46   H     H_    0.611798 0.169184 0.399801 0.135569
H47   H     H_    0.613380 0.819342 0.386278 0.131619
H48   H     H_    0.389163 0.171471 0.604190 0.133803
C89   C     C_R   0.309756 0.797529 0.501317 0.007429
C90   C     C_R   0.689115 0.197098 0.509996 0.005013
C91   C     C_R   0.689290 0.800647 0.506672 -0.009169
C92   C     C_R   0.311875 0.195950 0.491240 0.000935
C93   C     C_R   0.718809 0.157120 0.489690 0.010841
C94   C     C_R   0.283883 0.843545 0.520191 -0.004089
C95   C     C_R   0.282333 0.155889 0.512026 0.008344
C96   C     C_R   0.719219 0.840239 0.486532 0.007814
C97   C     C_R   0.398157 0.685040 0.193655 0.130351
C98   C     C_R   0.630345 0.388500 0.888898 0.125051
C99   C     C_R   0.631731 0.607559 0.891011 0.123211
C100  C     C_R   0.369739 0.388394 0.110780 0.124537
C101  C     C_R   0.908560 0.201424 0.228385 0.129991
C102  C     C_R   0.128163 0.884179 0.884358 0.121618
C103  C     C_R   0.091400 0.201602 0.771940 0.129180
C104  C     C_R   0.903370 0.805644 0.210245 0.127474
C105  C     C_R   0.411926 0.765575 0.119816 -0.209024
C106  C     C_R   0.634727 0.352664 0.018727 -0.189086
C107  C     C_R   0.638018 0.641158 0.023559 -0.186473
C108  C     C_R   0.365325 0.352305 0.980871 -0.190187
C109  C     C_R   0.921446 0.280077 0.150752 -0.200494
C110  C     C_R   0.131221 0.839445 0.007940 -0.194755
C111  C     C_R   0.078520 0.280686 0.849141 -0.199512
C112  C     C_R   0.916280 0.728324 0.130754 -0.204317
C113  C     C_R   0.427325 0.710995 0.163108 -0.168373
C114  C     C_R   0.605351 0.374653 0.932727 -0.155463
C115  C     C_R   0.607701 0.619932 0.936848 -0.152051
C116  C     C_R   0.394825 0.373963 0.067297 -0.147416
C117  C     C_R   0.938461 0.227694 0.199435 -0.154271
C118  C     C_R   0.102274 0.864740 0.924364 -0.136087
C119  C     C_R   0.061631 0.227785 0.801133 -0.155514
C120  C     C_R   0.931972 0.781793 0.177290 -0.138894
C121  C     C_R   0.354965 0.715574 0.183259 -0.248147
C122  C     C_R   0.685702 0.383300 0.934872 -0.252110
C123  C     C_R   0.686978 0.612686 0.935731 -0.251670
C124  C     C_R   0.314310 0.383976 0.064272 -0.249083
C125  C     C_R   0.863468 0.230990 0.213148 -0.242232
C126  C     C_R   0.183612 0.882447 0.931962 -0.244088
C127  C     C_R   0.136077 0.231711 0.786002 -0.243047
C128  C     C_R   0.860810 0.773193 0.200301 -0.240786
C129  C     C_R   0.338617 0.770283 0.139803 0.077236
C130  C     C_R   0.716019 0.360681 0.021320 0.082584
C131  C     C_R   0.718053 0.635110 0.022228 0.082671
C132  C     C_R   0.283881 0.361597 0.977503 0.081991
C133  C     C_R   0.844989 0.283266 0.162604 0.079460
C134  C     C_R   0.213399 0.854878 0.014652 0.076886
C135  C     C_R   0.154513 0.284379 0.836045 0.079876
C136  C     C_R   0.843860 0.719585 0.152567 0.080056
C137  C     C_R   0.366866 0.794525 0.105614 0.187467
C138  C     C_R   0.689392 0.343100 0.061744 0.175668
C139  C     C_R   0.692496 0.651741 0.064794 0.172221
C140  C     C_R   0.310456 0.343556 0.937189 0.175326
C141  C     C_R   0.873721 0.306432 0.128606 0.180553
C142  C     C_R   0.186035 0.831445 0.050958 0.189065
C143  C     C_R   0.126029 0.307537 0.870457 0.179636
C144  C     C_R   0.871248 0.698338 0.115087 0.179423
C145  C     C_R   0.291479 0.797900 0.121244 0.082184
C146  C     C_R   0.771077 0.348894 0.064348 0.075016
C147  C     C_R   0.772493 0.648906 0.062172 0.075323
C148  C     C_R   0.228679 0.350288 0.934120 0.074341
C149  C     C_R   0.795623 0.309087 0.136781 0.071434
C150  C     C_R   0.268101 0.842256 0.055282 0.075179
C151  C     C_R   0.203830 0.310405 0.861445 0.071771
C152  C     C_R   0.796868 0.690327 0.132757 0.070789
C153  C     C_R   0.801874 0.373669 0.035579 -0.210356
C154  C     C_R   0.264886 0.779691 0.161305 -0.223694
C155  C     C_R   0.198083 0.375288 0.963074 -0.208629
C156  C     C_R   0.802375 0.625533 0.030814 -0.211800
C157  C     C_R   0.299075 0.868932 0.028032 -0.213962
C158  C     C_R   0.769023 0.294875 0.178290 -0.206899
C159  C     C_R   0.771916 0.703094 0.177480 -0.205602
C160  C     C_R   0.230259 0.296012 0.819714 -0.207480
C161  C     C_R   0.853138 0.353769 0.069369 -0.221297
C162  C     C_R   0.212896 0.796625 0.126393 -0.234411
C163  C     C_R   0.146773 0.355245 0.929519 -0.219904
C164  C     C_R   0.851852 0.649061 0.058955 -0.218858
C165  C     C_R   0.348381 0.845916 0.054513 -0.230488
C166  C     C_R   0.717129 0.313383 0.142498 -0.211775
C167  C     C_R   0.720959 0.682192 0.145251 -0.207699
C168  C     C_R   0.282409 0.314098 0.855914 -0.209598
H49   H     H_    0.875346 0.372899 0.044637 0.134211
H50   H     H_    0.192013 0.778070 0.153429 0.121694
H51   H     H_    0.124756 0.374418 0.954534 0.135576
H52   H     H_    0.873230 0.631236 0.031938 0.135332
H53   H     H_    0.370428 0.866144 0.030217 0.127385
H54   H     H_    0.697607 0.301029 0.175229 0.142368
H55   H     H_    0.702440 0.693820 0.179877 0.144872
H56   H     H_    0.301861 0.301500 0.823164 0.142723
H57   H     H_    0.704453 0.392432 0.900397 0.112131
H58   H     H_    0.332820 0.694860 0.206140 0.114908
H59   H     H_    0.295496 0.393590 0.098497 0.113182
H60   H     H_    0.705063 0.604462 0.900008 0.112865
H61   H     H_    0.202786 0.897907 0.900615 0.113822
H62   H     H_    0.840692 0.210504 0.235151 0.112691
H63   H     H_    0.839039 0.791904 0.225382 0.113468
H64   H     H_    0.158672 0.211346 0.763627 0.112877
H65   H     H_    0.562818 0.378345 0.899859 0.144101
H66   H     H_    0.461615 0.689205 0.171482 0.135973
H67   H     H_    0.437467 0.376985 0.100744 0.149364
H68   H     H_    0.565242 0.615924 0.904987 0.146884
H69   H     H_    0.059500 0.866172 0.889803 0.153339
H70   H     H_    0.973943 0.206975 0.211010 0.142758
H71   H     H_    0.965744 0.804752 0.185201 0.154897
H72   H     H_    0.026381 0.206640 0.790246 0.142362
H73   H     H_    0.434190 0.784157 0.094850 0.126118
H74   H     H_    0.614193 0.340135 0.049797 0.139169
H75   H     H_    0.618266 0.652891 0.056225 0.140680
H76   H     H_    0.385855 0.339350 0.949978 0.139474
H77   H     H_    0.944136 0.298161 0.126271 0.132850
H78   H     H_    0.110237 0.822368 0.036121 0.135769
H79   H     H_    0.056002 0.298739 0.873922 0.132859
H80   H     H_    0.937956 0.711838 0.103528 0.134683
H81   H     H_    0.787200 0.409034 0.987575 0.130874
H82   H     H_    0.283075 0.751486 0.218830 0.121992
H83   H     H_    0.213015 0.410795 0.011230 0.134418
H84   H     H_    0.788126 0.588875 0.984571 0.131262
H85   H     H_    0.285822 0.907523 0.985886 0.127606
H86   H     H_    0.787892 0.270084 0.239216 0.136589
H87   H     H_    0.791236 0.728946 0.237746 0.138887
H88   H     H_    0.211108 0.271249 0.758480 0.136942
N33   N     N_R   0.584928 0.599148 0.349276 0.219935
O1    O     O_R   0.567596 0.551254 0.301068 -0.361032
O2    O     O_R   0.609368 0.638913 0.332475 -0.394878
N34   N     N_R   0.426219 0.389670 0.656517 0.220821
O3    O     O_R   0.423560 0.339366 0.688775 -0.429364
O4    O     O_R   0.425665 0.438609 0.694012 -0.358069
N35   N     N_R   0.429095 0.610190 0.659976 0.220712
O5    O     O_R   0.425698 0.562483 0.696729 -0.352329
O6    O     O_R   0.432776 0.661495 0.695904 -0.426760
N36   N     N_R   0.569931 0.384936 0.342322 0.220772
O7    O     O_R   0.558305 0.333839 0.302307 -0.450891
O8    O     O_R   0.578410 0.430183 0.307433 -0.343192
N37   N     N_R   0.084100 0.079264 0.340239 0.208695
O9    O     O_R   0.047975 0.042529 0.283336 -0.380118
O10   O     O_R   0.100900 0.120911 0.311975 -0.419477
N38   N     N_R   0.923262 0.896527 0.658375 0.216573
O11   O     O_R   0.939878 0.842166 0.680171 -0.401685
O12   O     O_R   0.914437 0.927524 0.709253 -0.391093
N39   N     N_R   0.915882 0.076696 0.659914 0.208110
O13   O     O_R   0.950064 0.037500 0.713665 -0.399841
O14   O     O_R   0.900994 0.118212 0.691413 -0.421967
N40   N     N_R   0.082264 0.897561 0.346270 0.198898
O15   O     O_R   0.081210 0.840663 0.332911 -0.442615
O16   O     O_R   0.076822 0.933995 0.286546 -0.385961
O17   O     O_3   0.223345 0.753250 0.400937 -0.597101
C169  C     C_3   0.201989 0.758361 0.309868 0.156167
H89   H     H_    0.204156 0.714983 0.282605 0.100356
H90   H     H_    0.223335 0.793138 0.297331 0.079520
C170  C     C_3   0.144117 0.776695 0.261538 -0.681078
H91   H     H_    0.125242 0.774438 0.189014 0.166854
H92   H     H_    0.122255 0.746697 0.279255 0.272251
H93   H     H_    0.141783 0.823111 0.279624 0.282374
O18   O     O_3   0.772444 0.234783 0.633833 -0.605266
C171  C     C_3   0.785480 0.230566 0.721220 0.199761
H94   H     H_    0.759666 0.197675 0.726374 0.073908
H95   H     H_    0.781872 0.274683 0.745082 0.096538
C172  C     C_3   0.842676 0.209983 0.781376 -0.738014
H96   H     H_    0.869735 0.241413 0.777704 0.256040
H97   H     H_    0.853884 0.207986 0.850733 0.188059
H98   H     H_    0.847019 0.165044 0.760870 0.280840
O19   O     O_3   0.771879 0.771596 0.640354 -0.600878
C173  C     C_3   0.779919 0.784508 0.722934 0.196846
H99   H     H_    0.773758 0.744020 0.751308 0.095339
H100  H     H_    0.752764 0.820349 0.717203 0.071766
C174  C     C_3   0.836742 0.805948 0.786308 -0.736016
H101  H     H_    0.843818 0.846871 0.760113 0.272613
H102  H     H_    0.843771 0.815987 0.851824 0.188526
H103  H     H_    0.865029 0.771059 0.794475 0.258962
O20   O     O_3   0.228513 0.230039 0.364246 -0.603664
C175  C     C_3   0.216803 0.224332 0.277791 0.196523
H104  H     H_    0.243823 0.192065 0.275088 0.073368
H105  H     H_    0.219832 0.268204 0.252793 0.097255
C176  C     C_3   0.160243 0.201480 0.216834 -0.730432
H106  H     H_    0.132016 0.232228 0.218084 0.258074
H107  H     H_    0.150033 0.198296 0.148118 0.186589
H108  H     H_    0.156546 0.156717 0.238529 0.277908
O21   O     O_3   0.696621 0.220779 0.367315 -0.604180
C177  C     C_3   0.671117 0.202606 0.278253 0.205911
H109  H     H_    0.655161 0.156373 0.267324 0.067650
H110  H     H_    0.699166 0.205613 0.257107 0.093567
C178  C     C_3   0.624596 0.243812 0.220491 -0.770497
H111  H     H_    0.638542 0.290623 0.230766 0.270326
H112  H     H_    0.605578 0.231889 0.149792 0.180060
H113  H     H_    0.594781 0.239583 0.237651 0.272648
O22   O     O_3   0.313100 0.794555 0.657968 -0.597908
C179  C     C_3   0.348195 0.826351 0.736522 0.214616
H114  H     H_    0.326259 0.847917 0.762218 0.082909
H115  H     H_    0.370514 0.860785 0.725591 0.068673
C180  C     C_3   0.388235 0.783458 0.806241 -0.758673
H116  H     H_    0.411277 0.761789 0.782916 0.278911
H117  H     H_    0.416066 0.807916 0.868560 0.176599
H118  H     H_    0.367355 0.748822 0.819515 0.260532
O23   O     O_3   0.305478 0.219550 0.635461 -0.601099
C181  C     C_3   0.329854 0.201659 0.724273 0.210122
H119  H     H_    0.344969 0.155162 0.735257 0.064868
H120  H     H_    0.301332 0.205548 0.744313 0.092177
C182  C     C_3   0.376951 0.242305 0.783293 -0.768744
H121  H     H_    0.363847 0.289331 0.773051 0.274723
H122  H     H_    0.395071 0.230589 0.853726 0.178323
H123  H     H_    0.407245 0.237213 0.767362 0.267149
O24   O     O_3   0.697479 0.775788 0.364230 -0.595786
C183  C     C_3   0.670927 0.794938 0.275614 0.217683
H124  H     H_    0.698496 0.794195 0.253339 0.090584
H125  H     H_    0.654176 0.840502 0.266525 0.061256
C184  C     C_3   0.624985 0.752725 0.217322 -0.780902
H126  H     H_    0.595690 0.754473 0.235868 0.256319
H127  H     H_    0.605029 0.765724 0.146932 0.180587
H128  H     H_    0.639764 0.706530 0.225449 0.277454

loop_
_geom_bond_atom_site_label_1
_geom_bond_atom_site_label_2
_geom_bond_distance
_ccdc_geom_bond_type
C169  H90   1.115574 S    
C108  C140  1.400712 A    
C178  H111  1.110583 S    
N14   Ni8   1.837114 S    
C110  C118  1.389007 A    
N33   O2    1.300447 A    
C49   C89   1.407397 A    
N10   N18   1.378045 A    
O19   C173  1.411433 S    
N35   O6    1.299789 A    
C172  H96   1.111058 S    
C54   O22   1.382748 S    
C11   C43   1.380884 A    
N14   N22   1.378045 A    
C169  C170  1.518992 S    
C107  C115  1.395127 A    
C51   O19   1.383700 S    
C89   C94   1.451082 S    
C105  C113  1.394826 A    
C14   H14   1.081705 S    
C2    C34   1.385552 A    
C111  C143  1.400170 A    
C18   N34   1.433601 S    
C126  C134  1.400149 A    
C140  C168  1.395176 A    
C102  C118  1.402874 A    
C116  H67   1.081105 S    
C6    C38   1.390941 A    
C28   C34   1.390691 A    
C16   C48   1.361105 A    
C3    N3    1.342887 A    
C144  C164  1.394735 A    
N11   Ni6   1.835464 S    
C21   N37   1.432673 S    
C108  C116  1.393947 A    
C75   H35   1.083550 S    
C5    H5    1.070181 S    
C32   C38   1.394167 A    
C7    H7    1.068917 S    
C8    H8    1.077903 S    
C129  C145  1.416670 A    
C22   C46   1.385941 A    
C54   C94   1.403996 A    
C85   H41   1.083299 S    
C121  H58   1.071981 S    
C51   C59   1.392568 A    
C171  H94   1.116592 S    
C153  C161  1.390039 A    
C182  H123  1.110708 S    
C9    N9    1.332975 A    
C87   H43   1.083305 S    
C124  C132  1.405049 A    
C11   H11   1.074978 S    
C157  C165  1.390978 A    
C12   N12   1.336420 A    
C118  H69   1.081452 S    
C13   N13   1.335782 A    
C151  C160  1.412801 A    
C146  C149  1.418164 A    
C128  C136  1.404461 A    
C26   N26   1.338173 A    
C114  H65   1.080912 S    
N35   O5    1.299701 A    
C74   H34   1.081790 S    
C14   C46   1.369287 A    
N36   O7    1.299116 A    
N8    Ni3   1.841443 S    
C63   C71   1.399332 A    
C17   N33   1.436011 S    
C64   C72   1.397563 A    
C99   C123  1.400248 A    
C178  H113  1.110726 S    
C168  H56   1.082480 S    
C184  H126  1.110924 S    
C97   C121  1.395754 A    
C81   C89   1.396574 A    
N34   O3    1.299063 A    
C164  H52   1.083978 S    
C53   C61   1.397387 A    
C172  H98   1.110699 S    
C165  H53   1.083973 S    
C25   C35   1.391828 A    
C105  H73   1.083863 S    
C52   O20   1.384706 S    
C103  C119  1.405090 A    
C108  H76   1.084061 S    
C29   C39   1.391616 A    
C158  H86   1.080100 S    
N13   Ni7   1.837113 S    
C31   C37   1.393325 A    
C21   C45   1.391663 A    
C107  C139  1.401290 A    
C121  C129  1.399454 A    
C182  H122  1.110516 S    
C105  C137  1.402085 A    
C135  C151  1.419539 A    
C180  H116  1.110864 S    
C19   N35   1.431049 S    
C100  C124  1.401542 A    
C70   C78   1.401541 A    
C73   C81   1.389898 A    
C79   C87   1.391736 A    
C150  C157  1.414247 A    
C20   C44   1.398635 A    
C3    H3    1.067352 S    
C153  H81   1.080238 S    
C4    N4    1.344342 A    
N3    Ni2   1.841442 S    
C5    N5    1.346423 A    
N25   Ni6   1.839237 S    
C62   H30   1.083211 S    
C137  C165  1.394537 A    
O17   C169  1.409607 S    
C112  C144  1.399765 A    
C183  H124  1.112003 S    
C130  C138  1.415878 A    
C141  C161  1.395136 A    
C110  H78   1.084085 S    
C6    N6    1.341068 A    
C27   N27   1.335621 A    
C176  H106  1.110931 S    
N4    N26   1.394318 A    
C147  C152  1.415345 A    
C29   H21   1.077027 S    
C86   C94   1.398597 A    
N29   Ni8   1.839239 S    
C143  C163  1.394941 A    
C31   H23   1.077032 S    
C181  H119  1.116421 S    
C27   H19   1.078506 S    
C98   C114  1.405275 A    
C104  C128  1.401109 A    
C36   C98   1.483380 S    
C179  H114  1.113788 S    
C26   H18   1.078951 S    
C59   C67   1.397585 A    
C17   N17   1.345323 A    
N38   O11   1.300361 A    
C60   H28   1.083035 S    
C57   C65   1.393137 A    
C170  H92   1.110621 S    
N40   O16   1.298063 A    
C20   N20   1.348701 A    
C21   N21   1.351759 A    
C78   H38   1.080286 S    
C61   C69   1.399968 A    
C50   C90   1.406105 A    
C23   N23   1.349677 A    
C184  H128  1.110313 S    
C24   N24   1.359547 A    
N11   N19   1.377987 A    
C181  C182  1.521158 S    
C163  H51   1.083979 S    
N17   Ni2   1.834630 S    
N9    Ni5   1.837113 S    
C55   O23   1.387109 S    
C53   O21   1.386688 S    
C46   C72   1.453241 S    
C47   C69   1.464495 S    
N24   Ni4   1.842266 S    
C174  H102  1.110733 S    
C18   C42   1.399249 A    
C155  C163  1.390069 A    
C76   C84   1.391736 A    
N26   Ni5   1.839239 S    
C131  C147  1.417039 A    
C77   C85   1.391696 A    
C180  H118  1.110723 S    
C101  C117  1.405126 A    
C26   C36   1.389609 A    
C17   C41   1.394610 A    
C100  C116  1.405326 A    
C79   H39   1.081880 S    
C30   C40   1.392223 A    
N2    Ni2   1.833775 S    
C6    H6    1.064394 S    
C56   C96   1.408380 A    
C175  H105  1.112675 S    
C55   C95   1.407078 A    
C136  C152  1.418925 A    
C101  C125  1.402929 A    
C9    C41   1.377694 A    
C86   H42   1.083393 S    
C176  H108  1.110699 S    
C173  H100  1.116199 S    
C83   C91   1.399173 A    
C4    H4    1.074608 S    
C133  C141  1.416778 A    
C29   N29   1.336774 A    
C10   N10   1.336982 A    
C175  C176  1.520569 S    
C91   C96   1.454494 S    
C57   H25   1.083707 S    
C14   N14   1.333374 A    
C109  C141  1.400136 A    
C115  H68   1.080990 S    
C28   H20   1.078905 S    
C173  C174  1.521087 S    
C123  C131  1.402449 A    
C1    N1    1.344617 A    
C148  C151  1.417094 A    
N18   Ni1   1.834630 S    
N30   Ni7   1.839241 S    
N10   Ni6   1.837114 S    
N2    N28   1.394181 A    
C32   H24   1.077839 S    
C75   C83   1.388135 A    
C66   C74   1.401304 A    
C7    N7    1.348750 A    
C71   C79   1.402304 A    
C8    N8    1.337154 A    
C22   N38   1.427106 S    
C82   C90   1.399326 A    
C145  C154  1.413516 A    
C49   C57   1.390812 A    
C166  H54   1.082418 S    
C112  C120  1.392306 A    
C177  H109  1.116479 S    
C106  H74   1.084060 S    
C43   C65   1.449131 S    
N3    N25   1.394315 A    
N8    N30   1.394319 A    
C41   C67   1.454859 S    
C129  C137  1.416140 A    
C119  H72   1.080465 S    
C30   N30   1.332535 A    
C120  H71   1.080378 S    
C16   N16   1.328556 A    
C109  C117  1.392872 A    
C80   H40   1.079963 S    
O21   C177  1.412554 S    
N20   Ni2   1.842266 S    
C74   C82   1.392051 A    
N19   Ni1   1.842263 S    
C171  H95   1.112804 S    
C148  C155  1.412466 A    
C65   C73   1.401905 A    
C63   H31   1.083236 S    
C64   H32   1.083541 S    
N15   N23   1.377987 A    
C154  H82   1.079519 S    
N31   Ni7   1.837238 S    
C106  C114  1.393907 A    
C99   C115  1.405522 A    
C132  C140  1.416119 A    
C3    C35   1.383006 A    
O18   C171  1.412584 S    
C97   C113  1.404781 A    
C103  C127  1.401960 A    
C125  C133  1.406712 A    
N34   O4    1.299765 A    
C171  C172  1.520566 S    
C125  H62   1.074185 S    
N36   O8    1.299265 A    
N6    N32   1.394181 A    
C127  H64   1.074071 S    
C128  H63   1.074419 S    
C84   C92   1.399567 A    
N12   Ni5   1.835467 S    
C37   C103  1.481667 S    
C169  H89   1.112912 S    
C35   C97   1.475223 S    
C83   H47   1.083499 S    
N39   O13   1.299691 A    
C178  H112  1.110512 S    
C15   N15   1.336296 A    
C155  H83   1.080199 S    
C33   C99   1.481671 S    
C80   C88   1.388029 A    
C135  C143  1.416840 A    
C172  H97   1.110678 S    
C28   N28   1.338205 A    
C1    H1    1.074904 S    
C24   C48   1.388576 A    
N22   Ni3   1.834630 S    
C158  C166  1.390665 A    
C174  H101  1.111556 S    
C62   C70   1.401023 A    
C18   N18   1.345926 A    
C145  C150  1.414942 A    
C23   N39   1.431853 S    
C81   H45   1.083217 S    
C25   N25   1.335193 A    
C15   H15   1.081767 S    
C110  C142  1.399519 A    
C13   C45   1.372580 A    
C58   C66   1.399887 A    
C44   C66   1.462879 S    
C31   N31   1.336542 A    
C122  H57   1.073702 S    
C98   C122  1.402445 A    
C48   C70   1.460628 S    
C183  H125  1.116492 S    
C111  H79   1.083908 S    
N4    Ni1   1.841443 S    
C52   C60   1.396378 A    
C59   H27   1.083232 S    
C60   C68   1.399425 A    
C161  H49   1.083993 S    
C112  H80   1.083926 S    
C181  H120  1.111693 S    
C56   C64   1.394265 A    
C22   N22   1.347742 A    
C106  C138  1.400693 A    
C183  C184  1.521508 S    
C180  H117  1.110535 S    
C154  C162  1.385586 A    
N9    N17   1.378045 A    
C179  H115  1.115481 S    
N12   N20   1.377987 A    
N6    Ni4   1.833775 S    
N7    Ni4   1.841442 S    
N13   N21   1.378045 A    
N38   O12   1.299179 A    
C149  C158  1.412660 A    
C84   H48   1.083319 S    
C24   N40   1.424238 S    
C170  H91   1.109932 S    
C147  C156  1.412346 A    
C90   C93   1.457987 S    
N32   Ni8   1.837239 S    
C11   N11   1.340038 A    
C88   H44   1.083344 S    
C12   H12   1.078918 S    
C72   C80   1.399870 A    
C133  C149  1.420462 A    
C184  H127  1.110474 S    
C76   H36   1.082774 S    
C131  C139  1.415530 A    
C77   H37   1.081255 S    
C4    C36   1.386574 A    
C179  C180  1.520790 S    
C159  C167  1.391620 A    
N5    N31   1.394184 A    
C23   C47   1.392098 A    
C30   H22   1.079030 S    
N33   O1    1.300016 A    
C8    C40   1.384166 A    
C68   C76   1.401640 A    
C69   C77   1.402469 A    
N37   O9    1.298984 A    
C67   C75   1.401294 A    
C34   C100  1.482258 S    
C136  C144  1.417502 A    
C53   C93   1.406223 A    
C40   C102  1.470585 S    
N15   Ni8   1.835464 S    
C159  H87   1.080188 S    
C27   C33   1.388983 A    
C25   H17   1.076155 S    
C56   O24   1.386175 S    
C160  H88   1.080203 S    
C107  H75   1.083993 S    
N21   Ni4   1.834630 S    
N16   N24   1.377987 A    
C10   H10   1.078989 S    
C87   C95   1.399791 A    
C124  H59   1.073582 S    
C157  H85   1.079722 S    
C88   C96   1.398782 A    
C117  H70   1.080405 S    
N27   Ni5   1.837238 S    
C92   C95   1.459154 S    
C113  H66   1.080999 S    
C73   H33   1.083246 S    
C5    C37   1.392118 A    
C12   C44   1.381566 A    
C176  H107  1.110631 S    
C104  C120  1.405217 A    
C32   N32   1.336044 A    
C156  H84   1.080621 S    
C19   C43   1.385347 A    
N39   O14   1.300669 A    
C78   C86   1.388558 A    
C130  C146  1.419742 A    
C139  C167  1.395636 A    
C134  C150  1.418980 A    
N28   Ni6   1.837239 S    
C126  H61   1.072600 S    
C42   C68   1.462904 S    
N1    N27   1.394184 A    
C15   C47   1.374247 A    
C170  H93   1.109070 S    
N40   O15   1.300351 A    
N1    Ni1   1.833773 S    
C152  C159  1.413324 A    
C111  C119  1.392901 A    
C102  C126  1.398510 A    
C134  C142  1.416795 A    
O24   C183  1.412601 S    
N5    Ni3   1.833773 S    
C10   C42   1.383510 A    
C177  H110  1.111789 S    
C13   H13   1.081823 S    
C20   N36   1.431453 S    
C19   N19   1.341079 A    
N23   Ni3   1.842263 S    
C2    H2    1.076485 S    
O23   C181  1.412925 S    
C174  H103  1.111130 S    
C61   H29   1.083303 S    
C1    C33   1.385315 A    
C156  C164  1.389382 A    
C132  C148  1.419020 A    
C167  H55   1.082439 S    
C2    N2    1.342992 A    
C127  C135  1.405387 A    
C109  H77   1.083918 S    
C160  C168  1.390633 A    
C82   H46   1.083286 S    
C177  C178  1.521319 S    
C7    C39   1.392759 A    
O22   C179  1.410758 S    
C122  C130  1.405945 A    
C85   C93   1.399203 A    
C52   C92   1.406993 A    
C50   O18   1.384802 S    
C182  H121  1.110590 S    
C45   C71   1.463854 S    
C175  H104  1.116472 S    
N37   O10   1.300716 A    
C49   O17   1.383222 S    
C123  H60   1.072969 S    
C58   H26   1.083049 S    
C16   H16   1.081559 S    
C38   C104  1.479566 S    
C39   C101  1.483214 S    
C146  C153  1.412253 A    
C50   C58   1.395934 A    
C138  C166  1.395224 A    
N16   Ni7   1.835467 S    
C173  H99   1.113390 S    
N7    N29   1.394315 A    
C9    H9    1.079208 S    
C54   C62   1.392138 A    
O20   C175  1.412484 S    
C142  C162  1.387869 A    
C162  H50   1.077356 S    
C51   C91   1.408186 A    
C55   C63   1.397632 A    
