data_mof_unit_46841.cif
_audit_creation_date              2012-12-10T19:00:13-0500
_audit_creation_method            fapswitch 2.2
_symmetry_space_group_name_H-M    P1
_symmetry_Int_Tables_number       1
_space_group_crystal_system       triclinic
_cell_length_a                    9.591184
_cell_length_b                    10.900125
_cell_length_c                    13.539878
_cell_angle_alpha                 92.268002
_cell_angle_beta                  73.650482
_cell_angle_gamma                 91.14063
_cell_volume                      1357.16661629

loop_
_atom_site_label
_atom_site_type_symbol
_atom_type_description
_atom_site_fract_x
_atom_site_fract_y
_atom_site_fract_z
_atom_type_partial_charge
C1    C     C_R   0.500252 0.737166 0.502693 0.821240
C2    C     C_R   0.444015 0.465727 0.975097 0.069380
C3    C     C_R   0.490485 0.458145 0.865860 0.087155
C4    C     C_R   0.549821 0.485692 0.029861 0.076818
C5    C     C_R   0.699120 0.492521 0.975033 0.161984
C6    C     C_R   0.743205 0.465813 0.870111 -0.163151
C7    C     C_R   0.640816 0.442903 0.817457 -0.156998
C8    C     C_R   0.512632 0.499836 0.137322 -0.208916
C9    C     C_R   0.765042 0.528201 0.133195 -0.151797
C10   C     C_R   0.384564 0.463651 0.809919 -0.084272
C11   C     C_R   0.396350 0.931793 0.475176 0.055877
C12   C     C_R   0.424105 0.488431 0.698564 0.803216
C13   C     C_R   0.502465 0.869926 0.504246 -0.109044
C14   C     C_R   0.606191 0.937756 0.538456 -0.199630
C15   C     C_R   0.598761 0.065835 0.547132 0.137684
C16   C     C_R   0.495918 0.128489 0.509876 -0.130518
C17   C     C_R   0.397752 0.058406 0.470791 0.080090
C18   C     C_3   0.234828 0.059337 0.505936 -0.457885
C19   C     C_3   0.235531 0.922797 0.518482 0.016010
C20   C     C_R   0.955891 0.442768 0.421273 0.237495
C21   C     C_R   0.901085 0.569529 0.571212 0.028686
C22   C     C_R   0.049368 0.566272 0.571357 -0.048007
C23   C     C_R   0.497266 0.262479 0.505093 0.832449
C24   C     C_R   0.103323 0.441702 0.421884 0.222157
C25   C     C_3   0.111442 0.306978 0.398448 -0.100905
C26   C     C_3   0.956233 0.309899 0.390939 -0.307928
C27   C     C_R   0.577032 0.505136 0.301168 0.827034
C28   C     C_R   0.803840 0.521072 0.026348 -0.167416
C29   C     C_R   0.619759 0.511461 0.189042 -0.059740
C30   C     C_R   0.237286 0.447931 0.862635 -0.186146
C31   C     C_R   0.194483 0.434763 0.968466 -0.115762
C32   C     C_R   0.294427 0.449660 0.024827 -0.127274
Cu1   Cu    Cu3+1 0.359330 0.500020 0.500010 0.974491
Cu2   Cu    Cu3+1 0.640670 0.499980 0.499990 0.950144
H1    H     H_    0.848253 0.546293 0.171861 0.194743
H2    H     H_    0.189863 0.114471 0.578462 0.226155
H3    H     H_    0.188376 0.077826 0.442007 0.197113
H4    H     H_    0.182818 0.869189 0.467041 0.146714
H5    H     H_    0.086143 0.617230 0.629462 0.207739
H6    H     H_    0.116067 0.262081 0.469077 0.152555
H7    H     H_    0.857656 0.459872 0.828709 0.152089
H8    H     H_    0.881297 0.254095 0.449482 0.169449
H9    H     H_    0.915612 0.536361 0.983257 0.138632
H10   H     H_    0.401036 0.500535 0.182763 0.170691
H11   H     H_    0.154797 0.444434 0.821947 0.157548
H12   H     H_    0.251046 0.444407 0.106909 0.184930
H13   H     H_    0.082487 0.415180 0.008127 0.178889
H14   H     H_    0.684240 0.408659 0.739616 0.202542
H15   H     H_    0.685381 0.891182 0.566571 0.178345
N1    N     N_R   0.852320 0.499070 0.499340 -0.245802
N2    N     N_R   0.148230 0.499110 0.499340 -0.230930
O1    O     O_R   0.381190 0.680360 0.500000 -0.569478
O2    O     O_R   0.618780 0.680320 0.499990 -0.620989
O3    O     O_R   0.323230 0.500000 0.650990 -0.580520
O4    O     O_R   0.560820 0.499960 0.650980 -0.624754
O5    O     O_R   0.381220 0.319680 0.500010 -0.568024
O6    O     O_R   0.618810 0.319640 0.500000 -0.580735
O7    O     O_R   0.439180 0.500040 0.349020 -0.568236
O8    O     O_R   0.676770 0.500000 0.349010 -0.573842
I1    I     I_    0.723452 0.149069 0.639467 -0.398070
I2    I     I_    0.165126 0.879500 0.678983 -0.289225
C33   C     C_2   0.804353 0.652445 0.649535 0.373659
H16   H     H_    0.699913 0.679266 0.644316 0.143759
O9    O     O_2   0.842383 0.695142 0.722725 -0.544467
I3    I     I_    0.280802 0.250285 0.263430 -0.373610
C34   C     C_2   0.936257 0.286298 0.285385 0.492239
H17   H     H_    0.884594 0.201445 0.269124 0.072986
O10   O     O_2   0.979878 0.359367 0.217172 -0.578619

loop_
_geom_bond_atom_site_label_1
_geom_bond_atom_site_label_2
_ccdc_geom_bond_type
Cu2   O6    S    
C34   O10   D    
C6    C7    A    
C19   H4    S    
C27   C29   S    
C5    C28   A    
C15   I1    S    
C10   C30   A    
C28   H9    S    
C2    C4    A    
C31   C32   A    
C9    C29   A    
C30   C31   A    
C4    C8    A    
C32   H12   S    
C7    H14   S    
Cu1   O5    S    
Cu1   Cu2   S    
C25   I3    S    
C23   O5    A    
C3    C10   A    
C27   O8    A    
C21   C22   A    
Cu1   O1    S    
Cu1   N2    S    
C11   C13   A    
C11   C19   S    
C21   C33   S    
Cu1   O7    S    
C20   C26   S    
C24   N2    A    
C23   O6    A    
C22   H5    S    
C10   C12   S    
C2    C32   A    
C21   N1    A    
C31   H13   S    
C18   H3    S    
C19   I2    S    
C2    C3    A    
C16   C23   S    
C3    C7    A    
C25   H6    S    
C5    C6    A    
C1    O1    A    
C12   O3    A    
Cu2   N1    S    
C14   H15   S    
C1    C13   S    
C8    C29   A    
C33   O9    D    
C15   C16   A    
C12   O4    A    
C16   C17   A    
C8    H10   S    
Cu2   O4    S    
C34   H17   S    
C24   C25   S    
C26   H8    S    
Cu2   O2    S    
C17   C18   S    
C18   C19   S    
Cu1   O3    S    
C9    H1    S    
C1    O2    A    
C14   C15   A    
C22   N2    A    
C20   N1    A    
C30   H11   S    
C25   C26   S    
C13   C14   A    
Cu2   O8    S    
C18   H2    S    
C6    H7    S    
C11   C17   A    
C33   H16   S    
C20   C24   A    
C9    C28   A    
C4    C5    A    
C27   O7    A    
C26   C34   S    
