data_mof_unit_16197.cif
_audit_creation_date              2012-10-26T20:14:33-0400
_audit_creation_method            fapswitch 2.2
_symmetry_space_group_name_H-M    P1
_symmetry_Int_Tables_number       1
_space_group_crystal_system       triclinic
_cell_length_a                    7.778624
_cell_length_b                    9.09168
_cell_length_c                    17.264279
_cell_angle_alpha                 90.042224
_cell_angle_beta                  87.033678
_cell_angle_gamma                 90.044931
_cell_volume                      1219.30635363

loop_
_atom_site_label
_atom_site_type_symbol
_atom_type_description
_atom_site_fract_x
_atom_site_fract_y
_atom_site_fract_z
_atom_type_partial_charge
C1    C     C_R   0.500043 0.779992 0.499985 0.550074
C2    C     C_R   0.390986 0.397971 0.230272 0.267602
C3    C     C_R   0.621376 0.521705 0.856510 -0.076397
C4    C     C_R   0.402748 0.374039 0.150223 -0.081354
C5    C     C_R   0.462706 0.523700 0.898188 0.017367
C6    C     C_R   0.544246 0.426598 0.105700 0.023691
C7    C     C_R   0.309789 0.522829 0.859014 -0.144074
C8    C     C_R   0.678211 0.499660 0.140552 -0.148900
C9    C     C_R   0.315851 0.516587 0.778269 -0.193035
C10   C     C_R   0.670201 0.521046 0.220415 -0.193885
C11   C     C_2   0.458450 0.523330 0.983725 0.280168
C12   C     C_R   0.499958 0.220010 0.500009 0.552729
C13   C     C_2   0.543950 0.417071 0.020628 0.275914
C14   C     C_3   0.854127 0.359162 0.742173 -0.100990
C15   C     C_3   0.102168 0.411596 0.259748 -0.089796
C16   C     C_3   0.692571 0.193168 0.023272 -0.136541
C17   C     C_3   0.384914 0.767391 0.999458 -0.131555
C18   C     C_1   0.500060 0.934634 0.499989 -0.042589
C19   C     C_1   0.499945 0.065378 0.499996 -0.041563
C20   C     C_R   0.479931 0.501761 0.650757 0.548301
C21   C     C_R   0.520323 0.493517 0.349669 0.562256
C22   C     C_R   0.474876 0.508452 0.735990 0.013472
C23   C     C_R   0.526948 0.471334 0.265657 0.027672
C24   C     C_R   0.629291 0.508649 0.776111 0.266765
Cu1   Cu    Cu3+1 0.330920 0.500000 0.500000 1.045266
Cu2   Cu    Cu3+1 0.669080 0.500000 0.500000 1.038082
H1    H     H_    0.186239 0.525740 0.890968 0.144536
H2    H     H_    0.000369 0.376041 0.303125 0.160999
H3    H     H_    0.057828 0.382791 0.201472 0.104055
H4    H     H_    0.116055 0.533059 0.265482 0.124894
H5    H     H_    0.584465 0.140168 0.057557 0.117305
H6    H     H_    0.793677 0.232489 0.061551 0.126132
H7    H     H_    0.751802 0.107958 0.984409 0.137920
H8    H     H_    0.320328 0.785515 0.944367 0.129902
H9    H     H_    0.524743 0.793712 0.992084 0.107314
H10   H     H_    0.327354 0.845411 0.042877 0.143702
H11   H     H_    0.787139 0.541795 0.105702 0.123520
H12   H     H_    0.301438 0.315322 0.122462 0.110138
H13   H     H_    0.740037 0.527192 0.886673 0.134880
H14   H     H_    0.774167 0.578775 0.246715 0.121821
H15   H     H_    0.196228 0.517707 0.748985 0.160885
H16   H     H_    0.761133 0.275745 0.722179 0.123032
H17   H     H_    0.890174 0.334169 0.802275 0.119616
H18   H     H_    0.972131 0.350286 0.703562 0.145829
N1    N     N_1   0.923170 0.500000 0.500010 -0.079145
N2    N     N_1   0.076830 0.500000 0.499990 -0.078770
O1    O     O_R   0.357240 0.711600 0.500000 -0.499090
O2    O     O_3   0.255999 0.337390 0.275048 -0.553887
O3    O     O_3   0.633282 0.308719 0.977169 -0.607786
O4    O     O_3   0.356702 0.622863 0.027056 -0.595968
O5    O     O_R   0.642760 0.288400 0.500000 -0.505363
O6    O     O_R   0.642760 0.711600 0.500000 -0.495804
O7    O     O_R   0.357240 0.288400 0.500000 -0.489292
O8    O     O_R   0.340660 0.500000 0.613590 -0.522119
O9    O     O_R   0.659340 0.500000 0.386410 -0.530179
O10   O     O_R   0.626230 0.500000 0.613600 -0.450408
O11   O     O_R   0.373770 0.500000 0.386400 -0.463902
O12   O     O_3   0.788917 0.503414 0.737003 -0.553442

loop_
_geom_bond_atom_site_label_1
_geom_bond_atom_site_label_2
_ccdc_geom_bond_type
C17   O4    S    
C2    C4    A    
C21   O11   A    
C17   H10   S    
Cu2   O6    S    
C16   H7    S    
C16   H6    S    
Cu1   O1    S    
C9    H15   S    
C12   O7    A    
C14   H16   S    
C20   O10   A    
Cu2   O9    S    
C1    C18   S    
C3    H13   S    
C11   O4    S    
C4    H12   S    
N1    N2    T    
Cu1   O8    S    
C16   H5    S    
C11   C13   D    
C20   O8    A    
C6    C13   S    
C3    C24   A    
Cu1   O11   S    
C15   O2    S    
C13   O3    S    
C12   C19   S    
C4    C6    A    
Cu1   O7    S    
C15   H3    S    
C10   C23   A    
C5    C7    A    
C21   C23   S    
C5    C11   S    
C14   O12   S    
C1    O6    A    
C22   C24   A    
C9    C22   A    
C17   H8    S    
C15   H2    S    
C24   O12   S    
C7    C9    A    
C12   O5    A    
C7    H1    S    
C16   O3    S    
C15   H4    S    
C14   H18   S    
C18   C19   T    
C8    H11   S    
C2    C23   A    
C21   O9    A    
C1    O1    A    
C10   H14   S    
C6    C8    A    
C17   H9    S    
Cu2   N1    S    
C2    O2    S    
Cu1   Cu2   S    
Cu2   O5    S    
Cu1   N2    S    
C8    C10   A    
C20   C22   S    
C14   H17   S    
C3    C5    A    
Cu2   O10   S    
