data_mof_unit_44335.cif
_audit_creation_date              2012-12-10T17:23:09-0500
_audit_creation_method            fapswitch 2.2
_symmetry_space_group_name_H-M    P1
_symmetry_Int_Tables_number       1
_space_group_crystal_system       triclinic
_cell_length_a                    15.864341
_cell_length_b                    10.827759
_cell_length_c                    9.664997
_cell_angle_alpha                 88.608558
_cell_angle_beta                  89.835233
_cell_angle_gamma                 94.202348
_cell_volume                      1655.23759851

loop_
_atom_site_label
_atom_site_type_symbol
_atom_type_description
_atom_site_fract_x
_atom_site_fract_y
_atom_site_fract_z
_atom_type_partial_charge
C1    C     C_R   0.493697 0.262299 0.501699 0.754540
C2    C     C_3   0.083811 0.504498 0.501170 -0.175694
C3    C     C_3   0.976459 0.619410 0.507703 0.275175
C4    C     C_3   0.916132 0.501420 0.500527 -0.232341
C5    C     C_3   0.030405 0.568495 0.392815 -0.019173
C6    C     C_3   0.969960 0.451496 0.384085 0.329603
C7    C     C_1   0.175502 0.506357 0.500585 0.190349
C8    C     C_1   0.824596 0.500248 0.500114 0.191492
C9    C     C_R   0.328284 0.102824 0.455792 0.126104
C10   C     C_R   0.258996 0.028959 0.410411 -0.066698
C11   C     C_R   0.269104 0.912190 0.362889 -0.190023
C12   C     C_R   0.340524 0.505297 0.500118 0.798600
C13   C     C_R   0.347273 0.862590 0.370396 0.320842
C14   C     C_R   0.416105 0.927026 0.439965 0.000370
C15   C     C_R   0.409888 0.055104 0.466652 0.003868
C16   C     C_R   0.484926 0.127116 0.505962 -0.057720
C17   C     C_R   0.557770 0.069432 0.541110 -0.132511
C18   C     C_R   0.558962 0.942422 0.536715 -0.146500
C19   C     C_R   0.489421 0.870310 0.487854 -0.042703
C20   C     C_R   0.643442 0.607965 0.135209 0.409484
C21   C     C_R   0.719454 0.602639 0.063948 -0.261048
C22   C     C_R   0.718104 0.606857 0.920168 0.119865
C23   C     C_R   0.494464 0.736541 0.497180 0.820469
C24   C     C_R   0.640305 0.616720 0.855243 0.274553
C25   C     C_R   0.566633 0.561584 0.923580 -0.013416
C26   C     C_R   0.567299 0.560108 0.072260 0.062755
C27   C     C_R   0.438690 0.435838 0.076978 0.235002
C28   C     C_R   0.439253 0.434591 0.929147 0.428952
C29   C     C_R   0.659718 0.499585 0.499906 0.815811
C30   C     C_3   0.968781 0.436346 0.610508 0.260892
C31   C     C_3   0.023196 0.386721 0.494093 0.316806
C32   C     C_1   0.250984 0.506630 0.500427 -0.051451
C33   C     C_1   0.749175 0.499789 0.499786 -0.087729
C34   C     C_3   0.029691 0.554214 0.617476 0.293936
Cu1   Cu    Cu3+1 0.499990 0.499990 0.640660 1.019637
Cu2   Cu    Cu3+1 0.500010 0.500010 0.359340 1.056523
H1    H     H_    0.216591 0.862893 0.312115 0.191768
H2    H     H_    0.616061 0.900649 0.567425 0.166688
H3    H     H_    0.778849 0.624930 0.116098 0.212008
H4    H     H_    0.614478 0.123480 0.572422 0.162587
H5    H     H_    0.197550 0.066039 0.402616 0.230954
N1    N     N_R   0.500800 0.501210 0.147910 -0.178567
N2    N     N_R   0.500830 0.501290 0.852040 -0.217332
O1    O     O_R   0.499990 0.319640 0.618810 -0.541249
O2    O     O_R   0.500000 0.319660 0.381240 -0.566748
O3    O     O_R   0.379070 0.499980 0.618770 -0.524001
O4    O     O_R   0.379080 0.500000 0.381190 -0.531206
O5    O     O_R   0.500000 0.680340 0.618760 -0.614147
O6    O     O_R   0.500010 0.680360 0.381190 -0.467675
O7    O     O_R   0.620920 0.500000 0.618810 -0.589209
O8    O     O_R   0.620930 0.500020 0.381230 -0.557553
Cl1   Cl    Cl    0.054777 0.232524 0.485679 -0.422002
Cl2   Cl    Cl    0.357349 0.743113 0.253272 -0.557809
N3    N     N_3   0.374746 0.363260 0.153615 -0.512259
H6    H     H_    0.315640 0.391234 0.123782 0.270839
H7    H     H_    0.378108 0.270124 0.129592 0.239182
Cl3   Cl    Cl    0.647477 0.734554 0.245889 -0.558188
N4    N     N_3   0.794744 0.635323 0.843440 -0.508657
H8    H     H_    0.834673 0.564453 0.863445 0.283100
H9    H     H_    0.824314 0.717381 0.880588 0.277614
N5    N     N_3   0.636736 0.728823 0.774753 -0.540590
H10   H     H_    0.581741 0.772692 0.795719 0.249825
H11   H     H_    0.646764 0.713814 0.670188 0.249037
Cl4   Cl    Cl    0.362460 0.336455 0.847834 -0.579325
Cl5   Cl    Cl    0.926887 0.347589 0.755898 -0.412263
Cl6   Cl    Cl    0.930178 0.385712 0.227908 -0.434714
N6    N     N_3   0.064623 0.639615 0.273097 -0.450135
H12   H     H_    0.013486 0.671024 0.217947 0.281665
H13   H     H_    0.098564 0.718003 0.310355 0.243534
Cl7   Cl    Cl    0.945240 0.773881 0.514970 -0.455147
Cl8   Cl    Cl    0.069529 0.621721 0.772678 -0.426780
N7    N     N_3   0.311628 0.224833 0.491815 -0.551700
H14   H     H_    0.340229 0.282904 0.415840 0.232050
H15   H     H_    0.336243 0.243103 0.589548 0.277787

loop_
_geom_bond_atom_site_label_1
_geom_bond_atom_site_label_2
_ccdc_geom_bond_type
C24   N5    S    
Cu2   N1    S    
C2    C7    S    
C9    N7    S    
C31   Cl1   S    
C5    N6    S    
C25   N2    A    
C27   N3    S    
C5    C6    S    
C23   O6    A    
N4    H9    S    
C15   C16   A    
C29   C33   S    
Cu2   O4    S    
N5    H11   S    
C18   C19   A    
C11   H1    S    
Cu1   Cu2   S    
C16   C17   A    
C23   O5    A    
Cu1   N2    S    
C9    C10   A    
C4    C8    S    
C2    C34   S    
C6    C31   S    
C13   C14   A    
C12   C32   S    
C10   H5    S    
C12   O4    A    
Cu1   O5    S    
C25   C26   A    
C13   Cl2   S    
C29   O7    A    
N3    H7    S    
C30   C34   S    
N6    H12   S    
C3    Cl7   S    
C24   C25   A    
N7    H15   S    
C3    C34   S    
N4    H8    S    
C2    C31   S    
N6    H13   S    
C12   O3    A    
C19   C23   S    
C1    O1    A    
C21   H3    S    
Cu1   O7    S    
C17   C18   A    
Cu2   O2    S    
C1    C16   S    
Cu1   O1    S    
Cu2   O8    S    
C28   Cl4   S    
C4    C6    S    
C22   C24   A    
C2    C5    S    
C3    C4    S    
C26   N1    A    
C29   O8    A    
N3    H6    S    
C7    C32   T    
C14   C19   A    
N7    H14   S    
C3    C5    S    
C22   N4    S    
C28   N2    A    
C18   H2    S    
C11   C13   A    
C27   N1    A    
C1    O2    A    
C30   C31   S    
C20   C26   A    
C8    C33   T    
C9    C15   A    
N5    H10   S    
C30   Cl5   S    
C10   C11   A    
C6    Cl6   S    
C20   C21   A    
C27   C28   A    
C14   C15   A    
C20   Cl3   S    
C21   C22   A    
Cu1   O3    S    
C34   Cl8   S    
C17   H4    S    
C4    C30   S    
Cu2   O6    S    
