data_mof_unit_64308.cif
_audit_creation_date              2012-12-10T21:20:54-0500
_audit_creation_method            fapswitch 2.2
_symmetry_space_group_name_H-M    P1
_symmetry_Int_Tables_number       1
_space_group_crystal_system       triclinic
_cell_length_a                    17.64982
_cell_length_b                    16.725069
_cell_length_c                    19.256284
_cell_angle_alpha                 89.76041
_cell_angle_beta                  89.688465
_cell_angle_gamma                 90.291862
_cell_volume                      5684.14017007

loop_
_atom_site_label
_atom_site_type_symbol
_atom_type_description
_atom_site_fract_x
_atom_site_fract_y
_atom_site_fract_z
_atom_type_partial_charge
C1    C     C_R   0.353348 0.499746 0.499671 1.063959
C2    C     C_R   0.549833 0.167743 0.542439 -0.232212
C3    C     C_R   0.549859 0.832390 0.542396 -0.229616
C4    C     C_R   0.450008 0.167607 0.457738 -0.229531
C5    C     C_R   0.451200 0.747992 0.458198 0.068309
C6    C     C_R   0.548930 0.252010 0.541675 0.067443
C7    C     C_R   0.548958 0.748125 0.541636 0.076927
C8    C     C_R   0.450910 0.251873 0.458495 0.077779
C9    C     C_R   0.500050 0.875567 0.499943 0.132553
C10   C     C_R   0.499950 0.124432 0.500059 0.132505
C11   C     C_1   0.500016 0.963414 0.499981 0.002819
C12   C     C_R   0.646640 0.500255 0.500344 1.064766
C13   C     C_1   0.499985 0.036586 0.500021 0.002824
C14   C     C_R   0.499802 0.500190 0.365558 0.985532
C15   C     C_R   0.500191 0.499809 0.634436 0.985947
C16   C     C_R   0.551279 0.548929 0.253571 0.340384
C17   C     C_R   0.448566 0.451265 0.746403 0.340076
C18   C     C_R   0.553889 0.546454 0.745341 0.344245
C19   C     C_R   0.446389 0.453206 0.254628 0.344246
C20   C     C_R   0.550863 0.548633 0.181602 -0.173026
C21   C     C_R   0.449094 0.451420 0.818370 -0.172865
C22   C     C_R   0.553777 0.546045 0.817392 -0.163901
C23   C     C_R   0.729100 0.501020 0.501474 -0.238313
C24   C     C_R   0.446612 0.453485 0.182577 -0.163938
C25   C     C_R   0.498893 0.500861 0.145739 -0.063648
C26   C     C_R   0.501344 0.498854 0.854233 -0.063663
C27   C     C_R   0.499199 0.500718 0.290420 -0.223651
C28   C     C_R   0.500822 0.499261 0.709561 -0.223381
C29   C     C_R   0.500892 0.499210 0.929951 0.350645
C30   C     C_R   0.499432 0.500403 0.070020 0.350655
C31   C     C_R   0.848205 0.561235 0.465260 0.269350
C32   C     C_R   0.151794 0.438592 0.534819 0.269178
C33   C     C_R   0.152921 0.558765 0.461552 0.277911
C34   C     C_R   0.270864 0.499011 0.498706 -0.238443
C35   C     C_R   0.846966 0.441896 0.539558 0.278065
C36   C     C_R   0.768655 0.561434 0.464905 0.324545
C37   C     C_R   0.231351 0.438317 0.534985 0.325431
C38   C     C_R   0.232527 0.558666 0.461083 0.327743
C39   C     C_R   0.767354 0.441798 0.539667 0.327850
C40   C     C_R   0.886135 0.501293 0.502136 -0.188667
C41   C     C_R   0.113811 0.499017 0.498598 -0.188627
C42   C     C_1   0.966331 0.500476 0.501045 0.246969
C43   C     C_1   0.033616 0.499869 0.499837 0.247078
C44   C     C_R   0.450300 0.832259 0.457432 -0.232131
Cl1   Cl    Cl    0.620038 0.608236 0.295265 -0.511569
Cl2   Cl    Cl    0.379461 0.392427 0.704687 -0.512433
Cl3   Cl    Cl    0.623730 0.603969 0.701977 -0.586165
Cl4   Cl    Cl    0.376715 0.395430 0.297959 -0.586452
Cl5   Cl    Cl    0.901249 0.634606 0.419001 -0.470194
Cl6   Cl    Cl    0.098792 0.364599 0.580369 -0.470474
Cl7   Cl    Cl    0.101304 0.633233 0.416530 -0.481444
Cl8   Cl    Cl    0.898519 0.368163 0.585547 -0.481372
H1    H     H_    0.591719 0.585512 0.153918 0.204493
H2    H     H_    0.587479 0.284868 0.574569 0.172521
H3    H     H_    0.587592 0.715379 0.574437 0.181380
H4    H     H_    0.412171 0.284616 0.425798 0.181609
H5    H     H_    0.761165 0.658440 0.407241 0.405405
H6    H     H_    0.238870 0.341272 0.592617 0.405487
H7    H     H_    0.241896 0.651197 0.398139 0.390778
H8    H     H_    0.757837 0.349581 0.602932 0.390801
H9    H     H_    0.408098 0.414713 0.846053 0.204490
H10   H     H_    0.595052 0.582439 0.844357 0.203901
H11   H     H_    0.405542 0.416836 0.155608 0.203896
H12   H     H_    0.411037 0.863283 0.423866 0.164183
H13   H     H_    0.589201 0.136720 0.575902 0.164192
H14   H     H_    0.589188 0.863517 0.575898 0.167286
H15   H     H_    0.410573 0.136479 0.424340 0.167354
H16   H     H_    0.412754 0.715135 0.425202 0.172439
N1    N     N_R   0.450199 0.453549 0.034727 -0.152282
N2    N     N_R   0.550137 0.546050 0.965245 -0.152256
N3    N     N_R   0.450907 0.452990 0.965875 -0.151969
N4    N     N_R   0.549428 0.546609 0.034097 -0.151947
N5    N     N_R   0.500000 0.707230 0.500000 -0.107688
N6    N     N_R   0.500000 0.292770 0.500000 -0.107733
O1    O     O_R   0.389110 0.566570 0.500000 -0.605961
O2    O     O_3   0.272622 0.381467 0.570834 -0.667977
O3    O     O_3   0.275001 0.614087 0.423730 -0.734438
O4    O     O_3   0.724788 0.386655 0.577239 -0.734418
O5    O     O_R   0.610890 0.433430 0.500000 -0.606490
O6    O     O_R   0.610890 0.566570 0.500000 -0.570350
O7    O     O_R   0.389110 0.433430 0.500000 -0.570022
O8    O     O_R   0.499990 0.566560 0.398140 -0.586631
O9    O     O_R   0.500010 0.433440 0.601860 -0.586546
O10   O     O_R   0.500010 0.566560 0.601860 -0.613784
O11   O     O_R   0.499990 0.433440 0.398140 -0.613526
O12   O     O_3   0.727431 0.617893 0.428551 -0.667801
Zn1   Zn    Zn3+2 0.500000 0.588860 0.500000 1.050773
Zn2   Zn    Zn3+2 0.500000 0.411140 0.500000 1.050816

loop_
_geom_bond_atom_site_label_1
_geom_bond_atom_site_label_2
_ccdc_geom_bond_type
C21   C26   A    
C34   C37   A    
O10   Zn1   S    
C7    H3    S    
C4    C8    A    
C2    H13   S    
C18   Cl3   S    
C8    H4    S    
H6    O2    S    
C7    N5    A    
C44   H12   S    
C12   C23   S    
H8    O4    S    
C31   Cl5   S    
O6    Zn1   S    
C3    C7    A    
C20   C25   A    
C1    O7    A    
O8    Zn1   S    
C12   O5    A    
H5    O12   S    
N1    N3    A    
N5    Zn1   S    
C31   C40   A    
C32   C41   A    
C14   C27   S    
C19   C27   A    
C21   H9    S    
C16   C27   A    
C40   C42   S    
O9    Zn2   S    
C18   C22   A    
C41   C43   S    
H7    O3    S    
C2    C6    A    
C6    H2    S    
C5    H16   S    
O5    Zn2   S    
C1    C34   S    
C6    N6    A    
C1    O1    A    
C39   O4    S    
C18   C28   A    
C24   C25   A    
C19   Cl4   S    
C15   O9    A    
C36   O12   S    
C17   C21   A    
C35   C39   A    
C3    C9    A    
C22   H10   S    
C16   C20   A    
C8    N6    A    
C32   C37   A    
C17   Cl2   S    
C9    C11   S    
C32   Cl6   S    
O1    Zn1   S    
C37   O2    S    
C24   H11   S    
C3    H14   S    
C42   C43   T    
C14   O8    A    
C4    C10   A    
C2    C10   A    
C30   N1    A    
C29   N2    A    
O11   Zn2   S    
C25   C30   S    
C9    C44   A    
C34   C38   A    
C17   C28   A    
C5    C44   A    
C14   O11   A    
C20   H1    S    
C10   C13   S    
C16   Cl1   S    
C4    H15   S    
C30   N4    A    
C15   O10   A    
C38   O3    S    
C33   Cl7   S    
C33   C38   A    
C33   C41   A    
C19   C24   A    
C11   C13   T    
C15   C28   S    
C23   C39   A    
C12   O6    A    
C35   C40   A    
C5    N5    A    
O7    Zn2   S    
C26   C29   S    
C23   C36   A    
C22   C26   A    
C35   Cl8   S    
C31   C36   A    
N2    N4    A    
N6    Zn2   S    
C29   N3    A    
