data_mof_unit_5803.cif
_audit_creation_date              2012-12-10T19:34:12-0500
_audit_creation_method            fapswitch 2.2
_symmetry_space_group_name_H-M    P1
_symmetry_Int_Tables_number       1
_space_group_crystal_system       triclinic
_cell_length_a                    13.027843
_cell_length_b                    15.791497
_cell_length_c                    16.9302
_cell_angle_alpha                 96.500317
_cell_angle_beta                  90.755839
_cell_angle_gamma                 87.378522
_cell_volume                      3456.90964881

loop_
_atom_site_label
_atom_site_type_symbol
_atom_type_description
_atom_site_fract_x
_atom_site_fract_y
_atom_site_fract_z
_atom_type_partial_charge
C1    C     C_R   0.502480 0.489168 0.348354 0.861782
C2    C     C_R   0.439794 0.578128 0.786081 0.053963
C3    C     C_R   0.447206 0.752467 0.461615 0.001406
C4    C     C_R   0.540731 0.249397 0.546936 -0.020995
C5    C     C_R   0.440884 0.842237 0.465796 0.212156
C6    C     C_R   0.550140 0.159681 0.543593 0.215466
C7    C     C_R   0.506617 0.890307 0.519343 0.262750
C8    C     C_R   0.499410 0.109277 0.481172 0.287696
C9    C     C_R   0.572671 0.845719 0.568110 -0.247774
C10   C     C_R   0.447057 0.152042 0.423211 -0.257256
C11   C     C_R   0.574871 0.756199 0.562274 0.087075
C12   C     C_R   0.499583 0.510600 0.651727 0.812310
C13   C     C_R   0.442678 0.241505 0.428331 0.108134
C14   C     C_R   0.301185 0.515054 0.497972 0.870785
C15   C     C_R   0.698440 0.484752 0.497359 0.898174
C16   C     C_R   0.810291 0.477389 0.497196 -0.252581
C17   C     C_R   0.188698 0.523341 0.496431 -0.260754
C18   C     C_R   0.034059 0.615747 0.509482 0.487821
C19   C     C_R   0.965079 0.393694 0.522138 0.479038
C20   C     C_R   0.140715 0.604675 0.511996 -0.292293
C21   C     C_R   0.858702 0.403838 0.521556 -0.302151
C22   C     C_R   0.128378 0.451015 0.483785 0.389245
C23   C     C_R   0.422223 0.528820 0.142218 0.426295
C24   C     C_R   0.868935 0.545379 0.478649 0.423922
C25   C     C_R   0.023591 0.461220 0.501721 -0.169734
C26   C     C_R   0.974554 0.542391 0.496776 -0.176823
C27   C     C_R   0.502335 0.482418 0.261499 -0.107976
C28   C     C_R   0.501691 0.516578 0.738686 -0.125337
C29   C     C_R   0.431935 0.535506 0.224810 -0.296696
C30   C     C_R   0.568289 0.459592 0.774293 -0.293163
C31   C     C_3   0.650554 0.367293 0.250127 -0.377335
C32   C     C_3   0.757216 0.382357 0.217753 -0.361298
C33   C     C_3   0.843010 0.344954 0.267447 -0.647131
C34   C     C_R   0.576616 0.463296 0.856797 0.419733
C35   C     C_3   0.362871 0.636505 0.746993 -0.359883
C36   C     C_3   0.281778 0.684345 0.802549 -0.405080
C37   C     C_3   0.200439 0.730492 0.755499 -0.683735
C38   C     C_R   0.485509 0.468399 0.095569 0.254554
C39   C     C_R   0.514905 0.524019 0.904361 0.254887
C40   C     C_R   0.554209 0.414101 0.131906 -0.203812
C41   C     C_R   0.449339 0.581606 0.869169 -0.186124
C42   C     C_R   0.566564 0.421945 0.214714 0.055580
Cu1   Cu    Cu3+1 0.494970 0.415610 0.496200 1.013423
Cu2   Cu    Cu3+1 0.505030 0.584390 0.503800 0.998212
H1    H     H_    0.621847 0.880431 0.611207 0.228338
H2    H     H_    0.404533 0.627738 0.908002 0.192674
H3    H     H_    0.580274 0.288236 0.593312 0.181923
H4    H     H_    0.397160 0.715068 0.421434 0.181656
H5    H     H_    0.709819 0.600197 0.310560 0.382938
H6    H     H_    0.211239 0.435560 0.323160 0.348104
H7    H     H_    0.029215 0.828162 0.620202 0.394724
H8    H     H_    0.970696 0.228815 0.656441 0.403048
H9    H     H_    0.763849 0.399769 0.003377 0.370858
H10   H     H_    0.333159 0.712543 0.044913 0.376250
H11   H     H_    0.841569 0.377236 0.329287 0.260432
H12   H     H_    0.410512 0.115834 0.373292 0.225065
H13   H     H_    0.834160 0.275469 0.268599 0.259133
H14   H     H_    0.918626 0.354642 0.241137 0.267786
H15   H     H_    0.764246 0.352029 0.155455 0.221655
H16   H     H_    0.767807 0.451776 0.217922 0.274141
H17   H     H_    0.654155 0.380534 0.315678 0.225647
H18   H     H_    0.633237 0.298957 0.235884 0.207797
H19   H     H_    0.236706 0.776382 0.720546 0.260554
H20   H     H_    0.158698 0.683643 0.714557 0.277880
H21   H     H_    0.144235 0.766121 0.797002 0.260512
H22   H     H_    0.242972 0.638524 0.836134 0.259500
H23   H     H_    0.625368 0.722837 0.600792 0.170386
H24   H     H_    0.319190 0.732433 0.845179 0.234395
H25   H     H_    0.405777 0.684082 0.718605 0.217009
H26   H     H_    0.321222 0.596856 0.699507 0.201675
H27   H     H_    0.517389 0.121243 0.704252 0.358571
H28   H     H_    0.259429 0.950613 0.510001 0.356552
H29   H     H_    0.404552 0.272871 0.381808 0.205465
H30   H     H_    0.813331 0.353705 0.539798 0.229362
H31   H     H_    0.186547 0.660163 0.524951 0.224261
H32   H     H_    0.615388 0.413029 0.737254 0.205172
H33   H     H_    0.382906 0.581260 0.261091 0.202611
H34   H     H_    0.601215 0.367597 0.094844 0.201100
N1    N     N_2   0.484371 0.462923 0.011892 -0.136252
N2    N     N_2   0.516389 0.528575 0.988005 -0.127934
N3    N     N_R   0.512580 0.711160 0.509520 -0.203623
N4    N     N_R   0.487420 0.288840 0.490480 -0.202032
N5    N     N_2   0.501711 0.981814 0.531831 -0.117754
N6    N     N_2   0.505307 0.017536 0.469685 -0.107308
O1    O     O_R   0.495300 0.420890 0.382510 -0.587642
O2    O     O_2   0.908021 0.636715 0.357697 -0.223458
O3    O     O_3   0.737807 0.558215 0.345398 -0.587104
O4    O     O_2   0.225239 0.295860 0.461745 -0.184208
O5    O     O_2   0.080079 0.321351 0.373153 -0.259133
O6    O     O_3   0.250933 0.391501 0.349480 -0.540455
O7    O     O_2   0.962156 0.768560 0.471896 -0.153656
O8    O     O_2   0.882126 0.713009 0.585231 -0.276068
O9    O     O_3   0.064251 0.772042 0.603853 -0.572546
O10   O     O_2   0.032929 0.229734 0.505094 -0.180126
O11   O     O_2   0.120758 0.326768 0.605339 -0.255125
O12   O     O_R   0.504700 0.579110 0.617490 -0.602654
O13   O     O_3   0.938676 0.280647 0.636810 -0.488514
O14   O     O_2   0.611181 0.318713 0.922293 -0.267058
O15   O     O_2   0.747880 0.361465 0.839091 -0.224088
O16   O     O_3   0.722187 0.444512 0.979491 -0.514738
O17   O     O_2   0.281529 0.547275 0.027239 -0.274064
O18   O     O_2   0.246834 0.625552 0.158369 -0.233430
O19   O     O_3   0.387436 0.680257 0.071981 -0.506753
O20   O     O_2   0.701993 0.045988 0.571289 -0.201918
O21   O     O_2   0.698898 0.182255 0.655767 -0.237283
O22   O     O_3   0.563168 0.073365 0.680873 -0.482551
O23   O     O_R   0.503790 0.563430 0.388930 -0.567776
O24   O     O_2   0.394420 0.921698 0.338100 -0.205905
O25   O     O_2   0.265747 0.828113 0.379451 -0.234255
O26   O     O_3   0.286788 0.974528 0.463333 -0.456961
O27   O     O_R   0.496210 0.436570 0.611070 -0.581527
O28   O     O_R   0.345440 0.440310 0.497300 -0.500774
O29   O     O_R   0.654560 0.559690 0.502700 -0.520752
O30   O     O_R   0.353930 0.582840 0.503720 -0.612805
O31   O     O_R   0.646070 0.417160 0.496280 -0.610908
O32   O     O_2   0.766343 0.690695 0.446521 -0.203587
S1    S     S_3+6 0.821119 0.611852 0.406583 0.072115
S2    S     S_3+6 0.170278 0.361171 0.416750 0.070923
S3    S     S_3+6 0.981016 0.719195 0.541907 0.069060
S4    S     S_3+6 0.019112 0.305481 0.566837 0.086327
S5    S     S_3+6 0.666461 0.393328 0.898675 0.049375
S6    S     S_3+6 0.329326 0.595313 0.099173 0.046747
S7    S     S_3+6 0.633194 0.115242 0.613429 0.062691
S8    S     S_3+6 0.344992 0.890862 0.408613 0.071839

loop_
_geom_bond_atom_site_label_1
_geom_bond_atom_site_label_2
_ccdc_geom_bond_type
C2    C35   S    
C33   H11   S    
O14   S5    D    
C7    N5    S    
C9    H1    S    
C33   H14   S    
C31   C42   S    
C27   C29   A    
C31   H17   S    
C35   C36   S    
C18   C26   A    
C39   C41   A    
O20   S7    D    
C11   N3    A    
O7    S3    D    
C14   O28   A    
C5    S8    S    
C24   S1    S    
C16   C21   A    
C12   C28   S    
C23   C29   A    
C36   C37   S    
C19   C21   A    
O8    S3    D    
C24   C26   A    
O3    S1    S    
C36   H22   S    
C38   N1    S    
C2    C41   A    
C15   C16   S    
H8    O13   S    
C17   C20   A    
O32   S1    D    
O21   S7    D    
C22   S2    S    
O16   S5    S    
H5    O3    S    
O26   S8    S    
O10   S4    D    
H6    O6    S    
C31   C32   S    
C35   H26   S    
C22   C25   A    
C37   H21   S    
O22   S7    S    
C3    N3    A    
C41   H2    S    
C15   O29   A    
C10   H12   S    
O15   S5    D    
Cu1   O31   S    
C40   C42   A    
Cu2   O30   S    
C16   C24   A    
C31   H18   S    
Cu1   O27   S    
C6    S7    S    
O24   S8    D    
C37   H19   S    
C11   H23   S    
C23   S6    S    
H9    O16   S    
C1    O1    A    
H28   O26   S    
C30   C34   A    
C34   C39   A    
Cu1   O1    S    
H10   O19   S    
C4    C6    A    
Cu2   N3    S    
C5    C7    A    
C6    C8    A    
C25   C26   A    
C14   O30   A    
C13   N4    A    
C20   H31   S    
Cu1   Cu2   S    
Cu2   O12   S    
C30   H32   S    
N5    N6    D    
C3    H4    S    
C29   H33   S    
C9    C11   A    
C1    O23   A    
H7    O9    S    
Cu2   O29   S    
C34   S5    S    
C40   H34   S    
Cu1   O28   S    
C32   H16   S    
O4    S2    D    
O6    S2    S    
C37   H20   S    
C15   O31   A    
Cu2   O23   S    
C7    C9    A    
C33   H13   S    
C8    N6    S    
C17   C22   A    
C13   H29   S    
C3    C5    A    
C10   C13   A    
C19   S4    S    
C36   H24   S    
O25   S8    D    
O11   S4    D    
C23   C38   A    
O17   S6    D    
C39   N2    S    
O13   S4    S    
C28   C30   A    
C32   C33   S    
C38   C40   A    
C27   C42   A    
C21   H30   S    
O2    S1    D    
C18   C20   A    
C19   C25   A    
N1    N2    D    
C4    N4    A    
O5    S2    D    
C35   H25   S    
C8    C10   A    
H27   O22   S    
C1    C27   S    
Cu1   N4    S    
C12   O12   A    
C2    C28   A    
O9    S3    S    
C32   H15   S    
O18   S6    D    
O19   S6    S    
C18   S3    S    
C12   O27   A    
C4    H3    S    
C14   C17   S    
