data_mof_unit_13673.cif
_audit_creation_date              2012-12-10T17:18:54-0500
_audit_creation_method            fapswitch 2.2
_symmetry_space_group_name_H-M    P1
_symmetry_Int_Tables_number       1
_space_group_crystal_system       triclinic
_cell_length_a                    9.642795
_cell_length_b                    10.744958
_cell_length_c                    13.44801
_cell_angle_alpha                 93.133389
_cell_angle_beta                  73.995675
_cell_angle_gamma                 90.014625
_cell_volume                      1337.20012707

loop_
_atom_site_label
_atom_site_type_symbol
_atom_type_description
_atom_site_fract_x
_atom_site_fract_y
_atom_site_fract_z
_atom_type_partial_charge
C1    C     C_R   0.500111 0.737040 0.499592 0.792266
C2    C     C_R   0.448710 0.564337 0.975968 0.095634
C3    C     C_R   0.492450 0.565652 0.866943 0.077301
C4    C     C_R   0.553301 0.543689 0.029539 0.011466
C5    C     C_R   0.700834 0.555786 0.977063 0.124285
C6    C     C_R   0.742019 0.583070 0.873172 -0.238888
C7    C     C_R   0.639155 0.588147 0.819034 -0.197783
C8    C     C_R   0.516634 0.501268 0.130960 0.188403
C9    C     C_R   0.765864 0.522139 0.134396 -0.249168
C10   C     C_R   0.386040 0.552017 0.811682 -0.115359
C11   C     C_R   0.562289 0.858110 0.304522 -0.151363
C12   C     C_R   0.424509 0.516028 0.699042 0.807371
C13   C     C_R   0.592060 0.917421 0.211419 -0.141602
C14   C     C_R   0.592663 0.047044 0.211985 -0.143921
C15   C     C_R   0.563363 0.117970 0.305635 -0.194052
C16   C     C_R   0.532520 0.059586 0.400914 0.033557
C17   C     C_R   0.532182 0.928186 0.400222 0.099738
C18   C     C_R   0.501499 0.870592 0.495509 -0.118121
C19   C     C_R   0.470481 0.940643 0.589484 -0.282423
C20   C     C_R   0.471003 0.069920 0.591117 0.251103
C21   C     C_R   0.501780 0.128971 0.497005 -0.124672
C22   C     C_R   0.904983 0.322597 0.372071 -0.145160
C23   C     C_R   0.499983 0.263089 0.500272 0.841572
C24   C     C_R   0.996739 0.227465 0.317835 -0.209693
C25   C     C_R   0.138332 0.224139 0.321058 -0.192155
C26   C     C_R   0.190248 0.318737 0.375093 -0.133549
C27   C     C_R   0.097697 0.410800 0.438955 0.191136
C28   C     C_R   0.948677 0.411472 0.438463 0.207022
C29   C     C_R   0.905580 0.587806 0.554863 -0.066837
C30   C     C_R   0.052523 0.586797 0.556046 -0.059200
C31   C     C_R   0.576796 0.497334 0.300251 0.762652
C32   C     C_R   0.805659 0.539873 0.028819 -0.211170
C33   C     C_R   0.620370 0.505520 0.187017 -0.083728
C34   C     C_R   0.240924 0.576045 0.866232 -0.194379
C35   C     C_R   0.203340 0.606250 0.972629 -0.171827
C36   C     C_R   0.304262 0.594496 0.027890 -0.154500
Cu1   Cu    Cu3+1 0.359340 0.500010 0.500010 0.936823
Cu2   Cu    Cu3+1 0.640660 0.499990 0.499990 0.925644
H1    H     H_    0.849299 0.518766 0.174122 0.174526
H2    H     H_    0.562803 0.757456 0.300953 0.124473
H3    H     H_    0.614791 0.862553 0.138625 0.138612
H4    H     H_    0.615946 0.092861 0.139609 0.137390
H5    H     H_    0.565102 0.218393 0.302641 0.112753
H6    H     H_    0.835496 0.662458 0.597242 0.122519
H7    H     H_    0.802118 0.323666 0.357585 0.195242
H8    H     H_    0.958665 0.158017 0.270524 0.158898
H9    H     H_    0.210018 0.150708 0.277500 0.155347
H10   H     H_    0.304336 0.318827 0.360526 0.205810
H11   H     H_    0.854087 0.599262 0.833296 0.137396
H12   H     H_    0.917770 0.541725 0.986786 0.141803
H13   H     H_    0.157691 0.576668 0.826190 0.147148
H14   H     H_    0.270471 0.617370 0.110298 0.130066
H15   H     H_    0.096256 0.638872 0.013686 0.136015
H16   H     H_    0.675417 0.619482 0.742124 0.168308
H17   H     H_    0.446230 0.894450 0.661918 0.133774
N1    N     N_R   0.852480 0.498790 0.499000 -0.198653
N2    N     N_R   0.148360 0.498710 0.498970 -0.198929
O1    O     O_R   0.381190 0.680360 0.500010 -0.581550
O2    O     O_R   0.618760 0.680340 0.500000 -0.579805
O3    O     O_R   0.323240 0.499990 0.650990 -0.569446
O4    O     O_R   0.560820 0.499960 0.650980 -0.583476
O5    O     O_R   0.381240 0.319660 0.500000 -0.589100
O6    O     O_R   0.618810 0.319640 0.499990 -0.599420
O7    O     O_R   0.439180 0.500040 0.349020 -0.591901
O8    O     O_R   0.676760 0.500010 0.349010 -0.605486
N3    N     N_2   0.435440 0.140646 0.687724 -0.433455
H18   H     H_    0.353568 0.102432 0.743714 0.249906
C37   C     C_3   0.557986 0.171974 0.726086 -0.665497
H19   H     H_    0.521864 0.234010 0.797513 0.222830
H20   H     H_    0.640196 0.221897 0.667942 0.260410
H21   H     H_    0.607551 0.086066 0.744783 0.213674
H22   H     H_    0.089600 0.658188 0.602118 0.131574
N4    N     N_2   0.391301 0.428346 0.167317 -0.433402
H23   H     H_    0.299053 0.472566 0.212879 0.259994
C38   C     C_3   0.374432 0.318879 0.103769 -0.672097
H24   H     H_    0.269309 0.323948 0.085253 0.232056
H25   H     H_    0.378676 0.234486 0.146382 0.219329
H26   H     H_    0.462260 0.308697 0.030129 0.225944

loop_
_geom_bond_atom_site_label_1
_geom_bond_atom_site_label_2
_ccdc_geom_bond_type
N3    C37   S    
C16   C21   A    
C35   H15   S    
N4    H23   S    
C19   C20   A    
C4    C8    A    
C13   H3    S    
Cu1   O5    S    
C28   N1    A    
C26   C27   A    
Cu1   Cu2   S    
C20   N3    S    
C18   C19   A    
C3    C7    A    
C1    O2    A    
C5    C6    A    
C19   H17   S    
C15   C16   A    
C30   N2    A    
C9    H1    S    
C34   C35   A    
C9    C32   A    
C23   O5    A    
C35   C36   A    
C37   H19   S    
C31   C33   S    
C25   H9    S    
Cu1   O1    S    
C36   H14   S    
C26   H10   S    
C14   H4    S    
Cu2   O4    S    
C23   O6    A    
N3    H18   S    
C22   C28   A    
C13   C14   A    
C9    C33   A    
N4    C38   S    
C24   C25   A    
C27   N2    A    
C16   C17   A    
C25   C26   A    
C34   H13   S    
C2    C4    A    
C38   H24   S    
C29   C30   A    
Cu2   O8    S    
C17   C18   A    
C1    C18   S    
C10   C34   A    
C38   H25   S    
C32   H12   S    
C10   C12   S    
C21   C23   S    
C29   H6    S    
C22   C24   A    
Cu1   O7    S    
Cu2   O6    S    
C2    C36   A    
C31   O8    A    
C11   C17   A    
C31   O7    A    
C4    C5    A    
C30   H22   S    
C6    C7    A    
C29   N1    A    
C24   H8    S    
C5    C32   A    
C2    C3    A    
C15   H5    S    
C3    C10   A    
C1    O1    A    
C12   O4    A    
C11   C13   A    
C37   H21   S    
C8    N4    S    
C8    C33   A    
C6    H11   S    
C11   H2    S    
C38   H26   S    
Cu1   O3    S    
Cu2   O2    S    
C12   O3    A    
C22   H7    S    
Cu2   N1    S    
C20   C21   A    
C37   H20   S    
C27   C28   A    
C14   C15   A    
C7    H16   S    
Cu1   N2    S    
