data_mof_unit_64469.cif
_audit_creation_date              2012-12-10T19:35:16-0500
_audit_creation_method            fapswitch 2.2
_symmetry_space_group_name_H-M    P1
_symmetry_Int_Tables_number       1
_space_group_crystal_system       triclinic
_cell_length_a                    30.661306
_cell_length_b                    31.853372
_cell_length_c                    21.634594
_cell_angle_alpha                 89.678078
_cell_angle_beta                  135.08347
_cell_angle_gamma                 90.507181
_cell_volume                      14918.6319966

loop_
_atom_site_label
_atom_site_type_symbol
_atom_type_description
_atom_site_fract_x
_atom_site_fract_y
_atom_site_fract_z
_atom_type_partial_charge
C1    C     C_R   0.499974 0.999880 0.380014 0.884465
C2    C     C_R   0.999974 0.499884 0.380017 0.884382
C3    C     C_3   0.478991 0.735808 0.532869 -0.364304
C4    C     C_3   0.444492 0.263181 0.462673 -0.360317
C5    C     C_3   0.978166 0.235805 0.531715 -0.363619
C6    C     C_3   0.944315 0.763190 0.461958 -0.360797
C7    C     C_3   0.500068 0.708674 0.498710 0.068054
C8    C     C_3   0.500576 0.291279 0.501081 0.069699
C9    C     C_3   0.000087 0.208674 0.498732 0.068999
C10   C     C_3   0.000564 0.791281 0.501043 0.069760
C11   C     C_3   0.536509 0.763651 0.579152 0.479438
C12   C     C_3   0.489663 0.235739 0.545482 0.483164
C13   C     C_3   0.035850 0.263647 0.579045 0.480606
C14   C     C_3   0.989134 0.735751 0.544847 0.482594
C15   C     C_3   0.558532 0.736000 0.547210 -0.298753
C16   C     C_3   0.545332 0.264339 0.585046 -0.303643
C17   C     C_3   0.058698 0.236000 0.548273 -0.301869
C18   C     C_3   0.044953 0.764345 0.585066 -0.303363
C19   C     C_1   0.499604 0.836798 0.498250 0.115541
C20   C     C_1   0.501371 0.163190 0.500547 0.113460
C21   C     C_1   0.999615 0.336798 0.498258 0.115308
C22   C     C_1   0.001370 0.663191 0.500571 0.113182
C23   C     C_1   0.500067 0.663257 0.499166 -0.012601
C24   C     C_1   0.500075 0.336708 0.500803 -0.017519
C25   C     C_1   0.000081 0.163258 0.499182 -0.015671
C26   C     C_1   0.000064 0.836709 0.500769 -0.017365
C27   C     C_R   0.460780 0.023999 0.241375 0.129323
C28   C     C_R   0.961008 0.524170 0.241617 0.128728
C29   C     C_R   0.500182 0.998820 0.314744 -0.098150
C30   C     C_R   0.000177 0.498824 0.314749 -0.097577
C31   C     C_R   0.541288 0.972605 0.324073 -0.191003
C32   C     C_R   0.041043 0.472438 0.323844 -0.191208
C33   C     C_R   0.541000 0.972373 0.259029 -0.209045
C34   C     C_R   0.040751 0.472205 0.258796 -0.209021
C35   C     C_R   0.499837 0.918760 0.499846 0.891136
C36   C     C_R   0.500220 0.081234 0.500108 0.887797
C37   C     C_R   0.999838 0.418760 0.499843 0.891052
C38   C     C_R   0.000220 0.581234 0.500111 0.887937
C39   C     C_R   0.501008 0.999338 0.186535 -0.102005
C40   C     C_R   0.001003 0.499337 0.186541 -0.102644
C41   C     C_R   0.462082 0.024879 0.180791 0.127923
C42   C     C_R   0.962314 0.525045 0.181037 0.127243
C43   C     C_3   0.412862 0.057126 0.126360 -0.491498
C44   C     C_3   0.913415 0.557519 0.126941 -0.487391
C45   C     C_3   0.411832 0.056469 0.196567 -0.473053
C46   C     C_3   0.912385 0.556863 0.197147 -0.474084
C47   C     C_R   0.502019 0.037838 0.718773 0.084628
C48   C     C_R   0.999475 0.537728 0.716151 0.087556
C49   C     C_R   0.501663 0.999971 0.686943 -0.047242
C50   C     C_R   0.001739 0.499894 0.687007 -0.048328
C51   C     C_R   0.512635 0.962372 0.729563 -0.206162
C52   C     C_R   0.015130 0.462693 0.732132 -0.206192
C53   C     C_R   0.514170 0.962382 0.795352 -0.202879
C54   C     C_R   0.016401 0.462768 0.797667 -0.205048
C55   C     C_R   0.505376 0.000187 0.818560 -0.114431
C56   C     C_R   0.004999 0.500264 0.818173 -0.111759
C57   C     C_R   0.503661 0.037969 0.783888 0.122451
C58   C     C_R   0.000821 0.537927 0.780970 0.139707
C59   C     C_R   0.500193 0.000189 0.620057 0.869003
C60   C     C_R   0.000205 0.500040 0.620066 0.868987
C61   C     C_3   0.459119 0.073479 0.743025 -0.407693
C62   C     C_3   0.953750 0.571928 0.737213 -0.440502
C63   C     C_3   0.457197 0.073187 0.670943 -0.473164
C64   C     C_3   0.952434 0.571677 0.665743 -0.467178
C65   C     C_R   0.380031 0.500111 0.379995 0.878142
C66   C     C_R   0.880031 0.000112 0.379996 0.878629
C67   C     C_R   0.499993 0.581272 0.499829 0.905705
C68   C     C_R   0.499831 0.418718 0.499992 0.904227
C69   C     C_R   0.999995 0.081272 0.499831 0.902625
C70   C     C_R   0.999830 0.918719 0.499989 0.904789
C71   C     C_R   0.620324 0.499519 0.620395 0.873654
C72   C     C_R   0.120310 0.999538 0.620369 0.871958
C73   C     C_R   0.620141 0.000160 0.120281 0.888676
C74   C     C_R   0.120141 0.500160 0.120279 0.889682
C75   C     C_R   0.500054 0.999862 0.120144 0.887214
C76   C     C_R   0.000055 0.499863 0.120148 0.888881
C77   C     C_R   0.379981 0.999843 0.879660 0.858665
C78   C     C_R   0.879992 0.499863 0.879215 0.846141
C79   C     C_R   0.500488 0.000083 0.879882 0.864074
C80   C     C_R   0.000297 0.500092 0.879688 0.858298
C81   C     C_R   0.280586 0.475191 0.242491 0.132088
C82   C     C_R   0.780587 0.975180 0.242512 0.131872
C83   C     C_3   0.462794 0.735478 0.414834 -0.304228
C84   C     C_3   0.513754 0.265049 0.455901 -0.306080
C85   C     C_3   0.963524 0.235482 0.415006 -0.303914
C86   C     C_3   0.014283 0.765041 0.456542 -0.305731
C87   C     C_R   0.314600 0.501199 0.314765 -0.095011
C88   C     C_R   0.814601 0.001200 0.314766 -0.095110
C89   C     C_R   0.282926 0.528289 0.323036 -0.214335
C90   C     C_R   0.782927 0.028303 0.323019 -0.214300
C91   C     C_R   0.718198 0.028553 0.257995 -0.216226
C92   C     C_R   0.218196 0.528539 0.258012 -0.216242
C93   C     C_R   0.685602 0.000729 0.186638 -0.100106
C94   C     C_R   0.185601 0.500728 0.186636 -0.100518
C95   C     C_R   0.718733 0.974329 0.182019 0.132045
C96   C     C_R   0.218732 0.474341 0.181997 0.132317
C97   C     C_3   0.713494 0.940905 0.129179 -0.487268
C98   C     C_3   0.213490 0.440934 0.129129 -0.487708
C99   C     C_3   0.284679 0.441587 0.199240 -0.490350
C100  C     C_3   0.784682 0.941559 0.199290 -0.490316
C101  C     C_R   0.718882 0.493042 0.663824 0.069876
C102  C     C_R   0.218966 0.996108 0.663615 0.084684
C103  C     C_R   0.686537 0.496068 0.686967 -0.081652
C104  C     C_R   0.186493 0.996087 0.686749 -0.088213
C105  C     C_R   0.719335 0.494440 0.776022 -0.195846
C106  C     C_R   0.219132 0.991236 0.775351 -0.199820
C107  C     C_3   0.520683 0.763655 0.464263 -0.056490
C108  C     C_3   0.556987 0.237261 0.538812 -0.057178
C109  C     C_3   0.021537 0.263658 0.465444 -0.055552
C110  C     C_3   0.057145 0.737257 0.539494 -0.057212
C111  C     C_R   0.283456 0.992255 0.839538 -0.189499
C112  C     C_R   0.783618 0.495634 0.839925 -0.183683
C113  C     C_R   0.314588 0.998890 0.814907 -0.079922
C114  C     C_R   0.814615 0.499029 0.814518 -0.057692
C115  C     C_R   0.282211 0.998306 0.726992 -0.094208
C116  C     C_R   0.782196 0.495186 0.726834 -0.083355
C117  C     C_3   0.284232 0.026366 0.673021 -0.057358
C118  C     C_3   0.783883 0.520247 0.669477 -0.064405
C119  C     C_3   0.713033 0.517055 0.598675 -0.348015
C120  C     C_3   0.213502 0.023249 0.601760 -0.399110
C121  C     C_1   0.499516 0.874293 0.498927 -0.132757
C122  C     C_1   0.500748 0.125693 0.500250 -0.136751
C123  C     C_1   0.999518 0.374293 0.498925 -0.132604
C124  C     C_1   0.000747 0.625694 0.500265 -0.137158
C125  C     C_1   0.500035 0.625751 0.499497 -0.192295
C126  C     C_1   0.499879 0.374223 0.500437 -0.198228
C127  C     C_1   0.000044 0.125751 0.499506 -0.196368
C128  C     C_1   0.999871 0.874224 0.500420 -0.197954
C129  C     C_3   0.443252 0.763143 0.450213 0.483084
C130  C     C_3   0.458897 0.236452 0.419706 0.481724
C131  C     C_3   0.943142 0.263143 0.449235 0.482861
C132  C     C_3   0.959253 0.736450 0.419675 0.481736
C133  C     C_3   0.500073 0.791319 0.497613 0.054519
C134  C     C_3   0.502225 0.208676 0.501251 0.056357
C135  C     C_3   0.000102 0.291319 0.497644 0.054526
C136  C     C_3   0.002223 0.708677 0.501277 0.056459
H1    H     H_    0.368167 0.043702 0.172556 0.213452
H2    H     H_    0.429141 0.086020 0.235093 0.210126
H3    H     H_    0.868600 0.544293 0.173017 0.213651
H4    H     H_    0.929987 0.586334 0.235969 0.210335
H5    H     H_    0.517345 0.933081 0.709536 0.148089
H6    H     H_    0.021857 0.433575 0.714176 0.148679
H7    H     H_    0.519543 0.932806 0.825026 0.172301
H8    H     H_    0.023747 0.433427 0.829398 0.171775
H9    H     H_    0.480851 0.102326 0.783984 0.205475
H10   H     H_    0.414639 0.064132 0.720161 0.232312
H11   H     H_    0.973162 0.601430 0.776132 0.204941
H12   H     H_    0.909710 0.561067 0.714136 0.206315
H13   H     H_    0.477774 0.101879 0.670277 0.213932
H14   H     H_    0.411547 0.063564 0.606111 0.240029
H15   H     H_    0.971337 0.600967 0.663626 0.212534
H16   H     H_    0.907603 0.560725 0.601327 0.240125
H17   H     H_    0.307955 0.549293 0.378560 0.159289
H18   H     H_    0.807957 0.049317 0.378528 0.159374
H19   H     H_    0.693889 0.049682 0.264051 0.161179
H20   H     H_    0.193888 0.549659 0.264082 0.161168
H21   H     H_    0.691972 0.952537 0.064144 0.203737
H22   H     H_    0.693574 0.911304 0.128265 0.211689
H23   H     H_    0.191968 0.452581 0.064103 0.203592
H24   H     H_    0.193569 0.411326 0.128192 0.211640
H25   H     H_    0.304326 0.453328 0.174603 0.215230
H26   H     H_    0.305851 0.412461 0.239175 0.197284
H27   H     H_    0.804329 0.953285 0.174643 0.215296
H28   H     H_    0.805856 0.912440 0.239248 0.197294
H29   H     H_    0.695658 0.494136 0.796357 0.166707
H30   H     H_    0.195302 0.988420 0.795291 0.167526
H31   H     H_    0.432445 0.723204 0.347169 0.149345
H32   H     H_    0.523667 0.277787 0.418992 0.148447
H33   H     H_    0.933749 0.223211 0.347455 0.149207
H34   H     H_    0.024631 0.777772 0.420159 0.148657
H35   H     H_    0.308636 0.989709 0.907954 0.134014
H36   H     H_    0.808892 0.495609 0.908539 0.131056
H37   H     H_    0.693398 0.497057 0.541741 0.200966
H38   H     H_    0.688145 0.547122 0.580212 0.219503
H39   H     H_    0.193729 0.005445 0.542438 0.220507
H40   H     H_    0.189392 0.053238 0.587382 0.187740
H41   H     H_    0.606005 0.724150 0.587158 0.154381
H42   H     H_    0.580859 0.276496 0.653123 0.148184
H43   H     H_    0.106284 0.224150 0.589063 0.149969
H44   H     H_    0.080179 0.776504 0.653164 0.148222
H45   H     H_    0.461954 0.723788 0.560954 0.143169
H46   H     H_    0.398515 0.274421 0.431641 0.142212
H47   H     H_    0.960442 0.223781 0.558846 0.143007
H48   H     H_    0.898199 0.774435 0.430348 0.142022
H49   H     H_    0.572683 0.952244 0.380433 0.173899
H50   H     H_    0.072252 0.451947 0.380023 0.173848
H51   H     H_    0.572268 0.951923 0.265891 0.164150
H52   H     H_    0.071835 0.451623 0.265479 0.164284
H53   H     H_    0.369978 0.044441 0.061943 0.196614
H54   H     H_    0.430364 0.087150 0.123945 0.215742
H55   H     H_    0.870403 0.545036 0.062401 0.196895
H56   H     H_    0.931210 0.587467 0.124825 0.216439
O1    O     O_R   0.448310 1.000000 0.356640 -0.621283
O2    O     O_R   0.948310 0.500000 0.356640 -0.621207
O3    O     O_R   0.500000 0.561620 0.551710 -0.619693
O4    O     O_R   0.500000 0.438380 0.551710 -0.616054
O5    O     O_R   1.000000 0.061620 0.551710 -0.619482
O6    O     O_R   0.000000 0.938380 0.551710 -0.616188
O7    O     O_R   0.591480 0.500000 0.539730 -0.623624
O8    O     O_R   0.091480 0.000000 0.539730 -0.620093
O9    O     O_R   0.591580 0.500000 0.643270 -0.627738
O10   O     O_R   0.091580 0.000000 0.643270 -0.628442
O11   O     O_R   0.591630 0.965220 0.091680 -0.623406
O12   O     O_R   0.591630 0.034780 0.091680 -0.622389
O13   O     O_R   0.091630 0.465220 0.091680 -0.623112
O14   O     O_R   0.091630 0.534780 0.091680 -0.621888
O15   O     O_R   0.500040 0.965230 0.091630 -0.620002
O16   O     O_R   0.500040 0.034770 0.091630 -0.621987
O17   O     O_R   0.000040 0.465230 0.091630 -0.619319
O18   O     O_R   0.000040 0.534770 0.091630 -0.620833
O19   O     O_R   0.408450 0.965250 0.908360 -0.608031
O20   O     O_R   0.408450 0.034750 0.908360 -0.641248
O21   O     O_R   0.908450 0.465250 0.908360 -0.610853
O22   O     O_R   0.908450 0.534750 0.908360 -0.635737
O23   O     O_R   0.500040 0.965230 0.908410 -0.628437
O24   O     O_R   0.500040 0.034770 0.908410 -0.621256
O25   O     O_R   0.000040 0.465230 0.908410 -0.628268
O26   O     O_R   0.000040 0.534770 0.908410 -0.626388
O27   O     O_R   0.551720 1.000000 0.460130 -0.619591
O28   O     O_R   0.051720 0.500000 0.460130 -0.619523
O29   O     O_R   0.448310 0.938390 0.448250 -0.609787
O30   O     O_R   0.448310 0.061610 0.448250 -0.616772
O31   O     O_R   0.948310 0.438390 0.448250 -0.609560
O32   O     O_R   0.948310 0.561610 0.448250 -0.617313
O33   O     O_R   0.551720 0.938410 0.551740 -0.611310
O34   O     O_R   0.551720 0.061590 0.551740 -0.599240
O35   O     O_R   0.051720 0.438410 0.551740 -0.611554
O36   O     O_R   0.051720 0.561590 0.551740 -0.598880
O37   O     O_R   0.448310 1.000000 0.539870 -0.611298
O38   O     O_R   0.948310 0.500000 0.539870 -0.611071
O39   O     O_R   0.551720 1.000000 0.643360 -0.620649
O40   O     O_R   0.051720 0.500000 0.643360 -0.621137
O41   O     O_R   0.408300 0.500000 0.356580 -0.621412
O42   O     O_R   0.908300 1.000000 0.356580 -0.621247
O43   O     O_R   0.408400 0.500000 0.460120 -0.623079
O44   O     O_R   0.908400 1.000000 0.460120 -0.622901
O45   O     O_R   0.499900 0.561630 0.448170 -0.611626
O46   O     O_R   0.499900 0.438370 0.448170 -0.617055
O47   O     O_R   0.999900 0.061630 0.448170 -0.612870
O48   O     O_R   0.999900 0.938370 0.448170 -0.616461
Zn1   Zn    Zn3+2 0.430960 1.000000 0.430900 0.994027
Zn2   Zn    Zn3+2 0.930960 0.500000 0.430900 0.993687
Zn3   Zn    Zn3+2 0.569060 1.000000 0.569100 0.998951
Zn4   Zn    Zn3+2 0.069060 0.500000 0.569100 0.998771
Zn5   Zn    Zn3+2 0.499870 0.500000 0.430790 0.966533
Zn6   Zn    Zn3+2 0.999870 1.000000 0.430790 0.966714
Zn7   Zn    Zn3+2 0.500010 0.500000 0.569060 0.959089
Zn8   Zn    Zn3+2 0.000010 1.000000 0.569060 0.957882
Zn9   Zn    Zn3+2 0.500030 0.953570 0.000010 0.961809
Zn10  Zn    Zn3+2 0.500030 0.046430 0.000010 0.952028
Zn11  Zn    Zn3+2 0.000030 0.453570 0.000010 0.959964
Zn12  Zn    Zn3+2 0.000030 0.546430 0.000010 0.950900
C137  C     C_2   0.543966 0.778170 0.425910 0.432944
H57   H     H_    0.557112 0.755206 0.404795 0.066364
O49   O     O_2   0.548286 0.815534 0.418183 -0.567938
C138  C     C_2   0.619787 0.223806 0.581271 0.428548
H58   H     H_    0.654552 0.247355 0.605163 0.060651
O50   O     O_2   0.632217 0.186651 0.589243 -0.559100
C139  C     C_2   0.045757 0.278177 0.428394 0.431537
H59   H     H_    0.059430 0.255214 0.408014 0.065097
O51   O     O_2   0.050255 0.315542 0.420910 -0.567886
C140  C     C_2   0.120134 0.723796 0.582737 0.428811
H60   H     H_    0.155001 0.747343 0.607044 0.060960
O52   O     O_2   0.132606 0.686641 0.590884 -0.558935
C141  C     C_2   0.316079 0.005472 0.651518 0.465592
H61   H     H_    0.359012 0.988813 0.702241 0.026849
O53   O     O_2   0.295441 0.008342 0.578442 -0.541852
C142  C     C_2   0.307536 0.070328 0.708492 0.368172
H62   H     H_    0.320292 0.080018 0.767571 0.089723
O54   O     O_2   0.309897 0.096080 0.668905 -0.548026
C143  C     C_2   0.814475 0.496623 0.648649 0.343745
H63   H     H_    0.850903 0.474364 0.695399 0.066354
O55   O     O_2   0.800401 0.503498 0.580785 -0.540560
C144  C     C_2   0.810068 0.564076 0.702945 0.433760
H64   H     H_    0.858246 0.568261 0.763447 0.062657
O56   O     O_2   0.778505 0.595103 0.662003 -0.557069
O57   O     O_3   0.574596 0.781418 0.663367 -0.602135
C145  C     C_3   0.602483 0.749100 0.726070 0.121471
H65   H     H_    0.631829 0.729085 0.725603 0.141244
H66   H     H_    0.566998 0.729235 0.713981 0.139191
C146  C     C_3   0.643535 0.768535 0.816619 -0.811156
H67   H     H_    0.615507 0.788370 0.819715 0.256811
H68   H     H_    0.665787 0.743377 0.866652 0.203423
H69   H     H_    0.680049 0.788216 0.831290 0.260182
O58   O     O_3   0.477835 0.217082 0.591737 -0.605221
C147  C     C_3   0.467888 0.248653 0.625961 0.111987
H70   H     H_    0.427132 0.268047 0.572527 0.142724
H71   H     H_    0.509363 0.269247 0.672232 0.139341
C148  C     C_3   0.455337 0.228115 0.675791 -0.792377
H72   H     H_    0.495504 0.208817 0.730323 0.253886
H73   H     H_    0.447429 0.252642 0.703205 0.205537
H74   H     H_    0.413677 0.207665 0.631141 0.267353
O59   O     O_3   0.073229 0.281413 0.663125 -0.602117
C149  C     C_3   0.100593 0.249095 0.725724 0.121074
H75   H     H_    0.130394 0.229082 0.726165 0.138638
H76   H     H_    0.064758 0.229227 0.712742 0.139259
C150  C     C_3   0.140887 0.268528 0.816131 -0.813171
H77   H     H_    0.112385 0.288361 0.818318 0.257199
H78   H     H_    0.162720 0.243370 0.866080 0.202952
H79   H     H_    0.177728 0.288211 0.831686 0.259763
O60   O     O_3   0.976768 0.717121 0.590468 -0.605611
C151  C     C_3   0.966382 0.748715 0.624115 0.114942
H80   H     H_    0.925721 0.768082 0.570374 0.142383
H81   H     H_    0.007790 0.769334 0.670669 0.139375
C152  C     C_3   0.953281 0.728215 0.673305 -0.799698
H82   H     H_    0.993341 0.708951 0.728132 0.254397
H83   H     H_    0.945015 0.752763 0.700245 0.206520
H84   H     H_    0.911674 0.707740 0.628357 0.264572
O61   O     O_3   0.384101 0.780340 0.399968 -0.598199
C153  C     C_3   0.340571 0.747593 0.363957 0.115627
H85   H     H_    0.351745 0.728053 0.416450 0.138552
H86   H     H_    0.338652 0.727342 0.320294 0.137905
C154  C     C_3   0.276935 0.766394 0.309660 -0.796901
H87   H     H_    0.263969 0.785735 0.255848 0.259709
H88   H     H_    0.242205 0.740888 0.280922 0.201547
H89   H     H_    0.276997 0.786436 0.351570 0.260717
O62   O     O_3   0.415020 0.218818 0.335009 -0.601845
C155  C     C_3   0.381425 0.251211 0.272376 0.119537
H90   H     H_    0.412543 0.272201 0.276293 0.137728
H91   H     H_    0.355887 0.270056 0.281447 0.138162
C156  C     C_3   0.334535 0.231928 0.181296 -0.812877
H92   H     H_    0.302154 0.211148 0.174731 0.259942
H93   H     H_    0.307749 0.257145 0.131305 0.202607
H94   H     H_    0.358587 0.213242 0.169661 0.257470
O63   O     O_3   0.883857 0.280341 0.397949 -0.598140
C157  C     C_3   0.840217 0.247594 0.361161 0.115905
H95   H     H_    0.850759 0.228054 0.413189 0.138555
H96   H     H_    0.838942 0.227345 0.318122 0.137951
C158  C     C_3   0.776440 0.266396 0.305738 -0.797203
H97   H     H_    0.764099 0.285737 0.252357 0.259714
H98   H     H_    0.741622 0.240890 0.276382 0.201470
H99   H     H_    0.775856 0.286438 0.346994 0.260748
O64   O     O_3   0.915754 0.718809 0.334961 -0.602000
C159  C     C_3   0.882434 0.751197 0.272268 0.119033
H100  H     H_    0.913806 0.772172 0.276711 0.138034
H101  H     H_    0.856584 0.770058 0.280773 0.138114
C160  C     C_3   0.835943 0.731904 0.181178 -0.811710
H102  H     H_    0.803321 0.711139 0.174089 0.259699
H103  H     H_    0.809377 0.757117 0.131140 0.202761
H104  H     H_    0.860317 0.713201 0.170105 0.257847

loop_
_geom_bond_atom_site_label_1
_geom_bond_atom_site_label_2
_ccdc_geom_bond_type
C150  H78   S    
C73   C93   S    
C78   O22   A    
C160  H102  S    
C39   C41   A    
O64   C159  S    
C146  H69   S    
C66   O42   A    
C106  H30   S    
C86   C110  S    
C35   O29   A    
C92   H20   S    
C143  H63   S    
C144  H64   S    
C61   C63   S    
C62   C64   S    
C82   C88   A    
C75   O15   A    
C12   C16   S    
C49   C51   A    
C119  H37   S    
C50   C52   A    
C157  H95   S    
C4    C12   S    
O14   Zn12  S    
C5    C13   S    
C147  C148  S    
C7    C15   S    
C8    C16   S    
C3    C129  S    
C2    O28   A    
C41   C43   S    
C130  C134  S    
C42   C44   S    
C77   C113  S    
C44   C46   S    
C65   C87   S    
C153  H86   S    
C6    C132  S    
C4    C130  S    
C81   C99   S    
O60   C151  S    
O3    Zn7   S    
C85   H33   S    
C40   C76   S    
C6    H48   S    
C32   C34   A    
C21   C123  T    
C1    O1    A    
C61   H10   S    
C84   H32   S    
C99   H26   S    
C120  H39   S    
O36   Zn4   S    
C157  C158  S    
C92   C94   A    
O45   Zn5   S    
C111  C113  A    
O16   Zn10  S    
O19   Zn9   S    
C94   C96   A    
C69   O47   A    
C129  C133  S    
C105  C112  A    
C64   H16   S    
C87   C89   A    
O33   Zn3   S    
C90   C91   A    
C80   O25   A    
C160  H104  S    
C76   O18   A    
C12   C134  S    
C155  C156  S    
C35   O33   A    
C139  O51   D    
C17   C109  S    
C95   C97   S    
C57   C61   S    
C85   C109  S    
C67   C125  S    
C85   C131  S    
C147  H71   S    
C159  C160  S    
O41   Zn5   S    
C10   C18   S    
O46   Zn5   S    
C84   C130  S    
C116  C118  S    
C100  H27   S    
C117  C142  S    
C3    C11   S    
C156  H92   S    
C66   O44   A    
O23   Zn9   S    
C20   C134  S    
C21   C135  S    
C44   H56   S    
C46   H3    S    
C113  C115  A    
C7    C83   S    
O9    Zn7   S    
C109  C135  S    
O44   Zn8   S    
C110  C136  S    
C59   O39   A    
C112  C114  A    
C154  H87   S    
O29   Zn1   S    
C73   O11   A    
C28   C46   S    
O47   Zn6   S    
C83   C129  S    
C119  H38   S    
C66   C88   S    
C137  H57   S    
C154  H88   S    
C6    C14   S    
C38   O32   A    
C155  H91   S    
C9    C85   S    
C37   C123  S    
C152  H83   S    
C96   C98   S    
C39   C75   S    
C20   C122  T    
C17   H43   S    
C40   C42   A    
C18   H44   S    
C93   C95   A    
C99   H25   S    
O57   C145  S    
C24   C126  T    
C158  H98   S    
C70   O48   A    
O18   Zn12  S    
C16   H42   S    
C106  C111  A    
C51   H5    S    
C151  H81   S    
C37   O31   A    
C1    O27   A    
O35   Zn4   S    
C129  O61   S    
C159  H100  S    
C8    C84   S    
C83   H31   S    
C51   C53   A    
C102  C104  A    
C63   H14   S    
C5    C9    S    
O59   C149  S    
O38   Zn2   S    
C47   C57   A    
C43   C45   S    
C130  O62   S    
C5    C131  S    
C132  C136  S    
C156  H94   S    
C31   H49   S    
C148  H72   S    
C103  C105  A    
C141  O53   D    
C79   O24   A    
C98   H24   S    
C98   C99   S    
C15   H41   S    
O20   Zn10  S    
C59   O37   A    
C118  C144  S    
C97   C100  S    
C72   O10   A    
C71   C103  S    
C19   C121  T    
C82   C95   A    
C86   H34   S    
O1    Zn1   S    
C114  C116  A    
C48   C58   A    
C140  H60   S    
C146  H68   S    
O10   Zn8   S    
C13   O59   S    
C49   C59   S    
C13   C17   S    
C2    C30   S    
C50   C60   S    
C97   H22   S    
C7    C23   S    
C48   C50   A    
C45   H2    S    
C8    C24   S    
C56   C58   A    
O21   Zn11  S    
C144  O56   D    
C101  C103  A    
C145  H65   S    
C157  H96   S    
O25   Zn11  S    
C38   C124  S    
C74   O13   A    
C58   C62   S    
C54   H8    S    
C68   C126  S    
C74   C94   S    
C104  C106  A    
C9    C25   S    
C132  O64   S    
O40   Zn4   S    
C60   O38   A    
C65   O41   A    
O7    Zn5   S    
C3    C7    S    
C47   C63   S    
C149  H75   S    
C48   C64   S    
C27   C29   A    
C148  H74   S    
C107  C137  S    
C71   O9    A    
C158  H97   S    
C15   C107  S    
C61   H9    S    
C102  C115  A    
C77   O20   A    
C160  H103  S    
O11   Zn9   S    
C120  H40   S    
C10   C86   S    
C43   H54   S    
O6    Zn8   S    
C115  C117  S    
C145  C146  S    
C90   H18   S    
C27   C45   S    
C108  C138  S    
O48   Zn6   S    
C78   C114  S    
O26   Zn12  S    
C78   O21   A    
C131  O63   S    
O30   Zn1   S    
C64   H15   S    
C35   C121  S    
C149  C150  S    
C117  C120  S    
C81   C96   A    
C72   C104  S    
C67   O45   A    
C22   C136  S    
C2    O2    A    
C108  C134  S    
O58   C147  S    
C91   C93   A    
C55   C79   S    
C75   O16   A    
C68   O4    A    
O15   Zn9   S    
C81   C87   A    
C88   C90   A    
O4    Zn7   S    
O22   Zn12  S    
C102  C120  S    
C46   H4    S    
C153  H85   S    
C36   O34   A    
C60   O40   A    
C65   O43   A    
C18   C110  S    
C56   C80   S    
C6    C10   S    
C71   O7    A    
C19   C133  S    
C32   H50   S    
C25   C127  T    
C107  C133  S    
O42   Zn6   S    
C158  H99   S    
O32   Zn2   S    
O34   Zn3   S    
C112  H36   S    
C14   C136  S    
C84   C108  S    
C105  H29   S    
C14   O60   S    
O63   C157  S    
C37   O35   A    
C142  H62   S    
C69   C127  S    
O24   Zn10  S    
C152  H82   S    
C101  C116  A    
C4    H46   S    
C11   O57   S    
C153  C154  S    
C76   O17   A    
C30   C32   A    
C109  C139  S    
C150  H77   S    
C14   C18   S    
C4    C8    S    
C47   C49   A    
O61   C153  S    
C5    H47   S    
O28   Zn4   S    
C151  C152  S    
C33   C39   A    
C34   C40   A    
C131  C135  S    
C11   C133  S    
C44   H55   S    
C80   O26   A    
C147  H70   S    
C159  H101  S    
O31   Zn2   S    
O37   Zn1   S    
C118  C119  S    
C63   H13   S    
C83   C107  S    
C156  H93   S    
C31   C33   A    
C141  H61   S    
C111  H35   S    
C23   C125  T    
O12   Zn10  S    
C10   C26   S    
C79   O23   A    
C69   O5    A    
C67   O3    A    
O43   Zn7   S    
C52   C54   A    
C53   C55   A    
C73   O12   A    
C54   C56   A    
C101  C119  S    
C100  H28   S    
C13   C135  S    
O8    Zn6   S    
C137  O49   D    
C16   C108  S    
C154  H89   S    
C140  O52   D    
C146  H67   S    
C52   H6    S    
C138  O50   D    
C53   H7    S    
C97   H21   S    
C36   C122  S    
C91   H19   S    
C155  H90   S    
O13   Zn11  S    
C12   O58   S    
C72   O8    A    
C3    H45   S    
C27   C41   A    
C89   H17   S    
C152  H84   S    
C138  H58   S    
C45   H1    S    
C33   H51   S    
C55   C57   A    
C26   C128  T    
C89   C92   A    
C34   H52   S    
O17   Zn11  S    
C9    C17   S    
C11   C15   S    
C62   H11   S    
C150  H79   S    
C145  H66   S    
C1    C29   S    
C139  H59   S    
C36   O30   A    
C38   O36   A    
C118  C143  S    
C74   O14   A    
C70   C128  S    
C143  O55   D    
C151  H80   S    
O2    Zn2   S    
C82   C100  S    
C142  O54   D    
C22   C124  T    
O5    Zn8   S    
C86   C132  S    
C28   C30   A    
C29   C31   A    
C68   O46   A    
C149  H76   S    
C28   C42   A    
C148  H73   S    
O27   Zn3   S    
O62   C155  S    
C117  C141  S    
C110  C140  S    
C77   O19   A    
O39   Zn3   S    
C98   H23   S    
C43   H53   S    
C70   O6    A    
C62   H12   S    
