data_mof_unit_60534.cif
_audit_creation_date              2012-12-10T18:47:29-0500
_audit_creation_method            fapswitch 2.2
_symmetry_space_group_name_H-M    P1
_symmetry_Int_Tables_number       1
_space_group_crystal_system       triclinic
_cell_length_a                    38.670337
_cell_length_b                    38.641784
_cell_length_c                    47.133196
_cell_angle_alpha                 89.999932
_cell_angle_beta                  90.06636
_cell_angle_gamma                 90.000818
_cell_volume                      70430.654362

loop_
_atom_site_label
_atom_site_type_symbol
_atom_type_description
_atom_site_fract_x
_atom_site_fract_y
_atom_site_fract_z
_atom_type_partial_charge
C1    C     C_R   0.567344 0.000000 0.999999 0.893416
C2    C     C_R   0.999867 0.500130 0.854125 0.297884
C3    C     C_R   0.978771 0.877101 0.018969 -0.182558
C4    C     C_R   0.877081 0.978800 0.980934 -0.182311
C5    C     C_R   0.021183 0.877098 0.981017 -0.180585
C6    C     C_R   0.123243 0.003304 0.974463 -0.182591
C7    C     C_R   0.996673 0.123250 0.974406 -0.180358
C8    C     C_R   0.376756 0.503298 0.525537 -0.182042
C9    C     C_R   0.521245 0.622898 0.518997 -0.182424
C10   C     C_R   0.622916 0.478755 0.519023 -0.182207
C11   C     C_R   0.478816 0.377097 0.518982 -0.180435
C12   C     C_R   0.376726 0.496722 0.474357 -0.182124
C13   C     C_R   0.500079 0.000007 0.145883 0.297868
C14   C     C_R   0.521231 0.377102 0.481032 -0.182434
C15   C     C_R   0.622896 0.521286 0.481107 -0.182158
C16   C     C_R   0.478802 0.622901 0.480988 -0.180422
C17   C     C_R   0.895174 0.999998 0.999954 -0.031514
C18   C     C_R   0.999973 0.105052 0.000002 -0.043914
C19   C     C_R   0.105057 0.999981 0.000041 -0.044140
C20   C     C_R   0.999983 0.895179 0.999996 -0.031261
C21   C     C_R   0.394942 0.500007 0.499957 -0.044325
C22   C     C_R   0.500017 0.604820 0.499996 -0.031310
C23   C     C_R   0.604823 0.500014 0.500050 -0.031559
C24   C     C_R   0.000073 0.500145 0.145875 0.297882
C25   C     C_R   0.500017 0.395179 0.500004 -0.031333
C26   C     C_R   0.500020 0.999999 0.944515 0.878881
C27   C     C_R   0.999982 0.500018 0.944522 0.878404
C28   C     C_R   0.500015 0.000000 0.055484 0.878871
C29   C     C_R   0.000017 0.500020 0.055478 0.878404
C30   C     C_R   0.999983 0.500001 0.444516 0.878888
C31   C     C_R   0.499982 0.000002 0.444523 0.875400
C32   C     C_R   0.999981 0.499999 0.555484 0.878897
C33   C     C_R   0.500019 1.000000 0.555477 0.875399
C34   C     C_R   0.822994 0.000002 0.999906 0.082859
C35   C     C_R   0.999914 0.500037 0.354119 0.297936
C36   C     C_R   0.999949 0.177445 0.000004 0.082967
C37   C     C_R   0.177444 0.999968 0.000077 0.082666
C38   C     C_R   0.999969 0.822993 0.999990 0.083115
C39   C     C_R   0.322556 0.500018 0.499919 0.082642
C40   C     C_R   0.500032 0.677006 0.499990 0.083066
C41   C     C_R   0.677003 0.500032 0.500104 0.082886
C42   C     C_R   0.500033 0.322993 0.500011 0.083058
C43   C     C_R   0.999992 0.067243 0.000000 0.869384
C44   C     C_R   0.067246 0.999993 0.000014 0.868924
C45   C     C_R   0.999993 0.932838 0.999999 0.860228
C46   C     C_R   0.499905 0.999982 0.354128 0.297659
C47   C     C_R   0.932834 0.999995 0.999985 0.859821
C48   C     C_R   0.500007 0.567162 0.499999 0.860082
C49   C     C_R   0.567165 0.500002 0.500015 0.856404
C50   C     C_R   0.500007 0.432838 0.500000 0.860092
C51   C     C_R   0.432754 0.500001 0.499985 0.865574
C52   C     C_R   0.521771 0.022114 0.690458 0.509177
C53   C     C_R   0.021979 0.478483 0.690477 0.508463
C54   C     C_R   0.478652 0.977752 0.690430 0.509183
C55   C     C_R   0.977506 0.521485 0.690428 0.509109
C56   C     C_R   0.521464 0.977776 0.309587 0.509148
C57   C     C_R   0.999764 0.499992 0.645880 0.297933
C58   C     C_R   0.022180 0.521568 0.309588 0.508465
C59   C     C_R   0.478342 0.022133 0.309526 0.509207
C60   C     C_R   0.977704 0.478569 0.309506 0.509097
C61   C     C_R   0.021562 0.522347 0.190485 0.509160
C62   C     C_R   0.522334 0.978561 0.190488 0.509192
C63   C     C_R   0.978548 0.477882 0.190408 0.508459
C64   C     C_R   0.477760 0.021458 0.190422 0.508589
C65   C     C_R   0.021335 0.477859 0.809575 0.508487
C66   C     C_R   0.522552 0.021377 0.809561 0.509235
C67   C     C_R   0.978325 0.522326 0.809530 0.509128
C68   C     C_R   0.500155 0.999966 0.645872 0.297661
C69   C     C_R   0.477983 0.978475 0.809529 0.508559
C70   C     C_R   0.477995 0.977513 0.720129 -0.017313
C71   C     C_R   0.977291 0.522186 0.720128 -0.017462
C72   C     C_R   0.522479 0.022329 0.720159 -0.017326
C73   C     C_R   0.022219 0.477818 0.720176 -0.017121
C74   C     C_R   0.477688 0.022367 0.279824 -0.017302
C75   C     C_R   0.977504 0.477898 0.279806 -0.017414
C76   C     C_R   0.522176 0.977557 0.279888 -0.017333
C77   C     C_R   0.022436 0.522263 0.279888 -0.017170
C78   C     C_R   0.977838 0.477643 0.220107 -0.017168
C79   C     C_R   0.623032 0.022247 0.018024 -0.203009
C80   C     C_R   0.477492 0.022125 0.220122 -0.017173
C81   C     C_R   0.022219 0.522561 0.220187 -0.017432
C82   C     C_R   0.522527 0.977865 0.220188 -0.017441
C83   C     C_R   0.977614 0.522521 0.779829 -0.017455
C84   C     C_R   0.477750 0.977784 0.779829 -0.017151
C85   C     C_R   0.021990 0.477600 0.779876 -0.017142
C86   C     C_R   0.522781 0.022050 0.779861 -0.017466
C87   C     C_R   0.500246 0.999918 0.735050 -0.019114
C88   C     C_R   0.999765 0.500015 0.735058 -0.019170
C89   C     C_R   0.499951 0.999969 0.264950 -0.019116
C90   C     C_R   0.031154 0.376595 0.002978 -0.201108
C91   C     C_R   0.999984 0.500086 0.264941 -0.019169
C92   C     C_R   0.000014 0.500097 0.235053 -0.019170
C93   C     C_R   0.499990 0.999986 0.235061 -0.019101
C94   C     C_R   0.999789 0.500045 0.764947 -0.019170
C95   C     C_R   0.500261 0.999915 0.764939 -0.019100
C96   C     C_R   0.455763 0.955423 0.735180 -0.148690
C97   C     C_R   0.955159 0.544386 0.735171 -0.148739
C98   C     C_R   0.544732 0.044410 0.735241 -0.148561
C99   C     C_R   0.044370 0.455644 0.735266 -0.149172
C100  C     C_R   0.455462 0.044457 0.264725 -0.148686
C101  C     C_R   0.376593 0.968825 0.003040 -0.200856
C102  C     C_R   0.955376 0.455717 0.264699 -0.148902
C103  C     C_R   0.544439 0.955480 0.264854 -0.148568
C104  C     C_R   0.044594 0.544454 0.264863 -0.149011
C105  C     C_R   0.955632 0.455501 0.235132 -0.149010
C106  C     C_R   0.455276 0.044248 0.235157 -0.148901
C107  C     C_R   0.044397 0.544691 0.235294 -0.148858
C108  C     C_R   0.544702 0.955723 0.235286 -0.148660
C109  C     C_R   0.955409 0.544641 0.764739 -0.148730
C110  C     C_R   0.455553 0.955647 0.764748 -0.148926
C111  C     C_R   0.044166 0.455445 0.764834 -0.149144
C112  C     C_R   0.999999 0.432575 1.000000 0.902877
C113  C     C_R   0.977847 0.622968 0.018111 -0.203223
C114  C     C_R   0.544970 0.044182 0.764809 -0.148622
C115  C     C_R   0.491486 0.030118 0.868948 -0.089107
C116  C     C_R   0.029984 0.508939 0.868998 -0.086888
C117  C     C_R   0.508945 0.969826 0.869012 -0.086738
C118  C     C_R   0.969782 0.491307 0.868977 -0.089099
C119  C     C_R   0.491351 0.969856 0.131017 -0.089126
C120  C     C_R   0.030171 0.491323 0.131039 -0.089181
C121  C     C_R   0.508803 0.030152 0.131024 -0.086755
C122  C     C_R   0.969971 0.508959 0.130985 -0.086797
C123  C     C_R   0.991135 0.530159 0.368987 -0.086776
C124  C     C_R   0.622947 0.977753 0.981909 -0.203035
C125  C     C_R   0.529986 0.008905 0.369003 -0.087295
C126  C     C_R   0.008694 0.469896 0.368977 -0.089235
C127  C     C_R   0.469840 0.991081 0.368978 -0.087283
C128  C     C_R   0.991011 0.469864 0.630993 -0.086851
C129  C     C_R   0.530207 0.991066 0.631005 -0.087197
C130  C     C_R   0.008575 0.530127 0.631041 -0.089134
C131  C     C_R   0.470060 0.008884 0.631013 -0.087382
C132  C     C_R   0.491615 0.030220 0.898470 -0.202334
C133  C     C_R   0.030107 0.508706 0.898519 -0.203664
C134  C     C_R   0.508672 0.969754 0.898532 -0.203714
C135  C     C_R   0.022146 0.622973 0.981891 -0.203175
C136  C     C_R   0.969730 0.491478 0.898498 -0.202377
C137  C     C_R   0.491536 0.969767 0.101496 -0.202357
C138  C     C_R   0.030247 0.491493 0.101517 -0.202396
C139  C     C_R   0.508587 0.030235 0.101502 -0.203699
C140  C     C_R   0.969871 0.508725 0.101466 -0.203639
C141  C     C_R   0.991353 0.530232 0.398508 -0.203781
C142  C     C_R   0.530095 0.008716 0.398523 -0.202956
C143  C     C_R   0.008508 0.469793 0.398498 -0.202470
C144  C     C_R   0.469773 0.991294 0.398500 -0.203082
C145  C     C_R   0.991284 0.469780 0.601473 -0.203821
C146  C     C_R   0.376577 0.031173 0.997068 -0.200908
C147  C     C_R   0.530250 0.991280 0.601485 -0.203070
C148  C     C_R   0.008445 0.530217 0.601520 -0.202430
C149  C     C_R   0.469927 0.008696 0.601492 -0.202968
C150  C     C_R   0.500097 0.999991 0.913455 -0.048267
C151  C     C_R   0.999939 0.500066 0.913462 -0.048055
C152  C     C_R   0.500046 0.000001 0.086545 -0.048260
C153  C     C_R   0.000048 0.500079 0.086538 -0.048052
C154  C     C_R   0.999947 0.500007 0.413456 -0.048165
C155  C     C_R   0.499946 0.000007 0.413464 -0.047521
C156  C     C_R   0.999909 0.499997 0.586544 -0.048174
C157  C     C_R   0.968831 0.376604 0.997020 -0.200984
C158  C     C_R   0.500066 0.999993 0.586536 -0.047524
C159  C     C_R   0.123418 0.531179 0.502944 -0.200870
C160  C     C_R   0.522189 0.877032 0.518124 -0.203218
C161  C     C_R   0.877048 0.477726 0.518065 -0.203057
C162  C     C_R   0.477853 0.122972 0.518107 -0.203181
C163  C     C_R   0.123411 0.468835 0.496948 -0.200941
C164  C     C_R   0.432564 1.000000 0.000004 0.902871
C165  C     C_R   0.522157 0.122968 0.481891 -0.203232
C166  C     C_R   0.876969 0.522280 0.481999 -0.203078
C167  C     C_R   0.477818 0.877028 0.481878 -0.203169
C168  C     C_R   0.659055 0.021981 0.018572 0.172523
C169  C     C_R   0.031310 0.340622 0.003063 0.161046
C170  C     C_R   0.340633 0.968663 0.003162 0.161186
C171  C     C_R   0.978110 0.659004 0.018679 0.172453
C172  C     C_R   0.658967 0.978022 0.981311 0.172540
C173  C     C_R   0.021872 0.659009 0.981320 0.172416
C174  C     C_R   0.340617 0.031335 0.997016 0.161201
C175  C     C_R   0.000000 0.567332 0.000000 0.893309
C176  C     C_R   0.968664 0.340631 0.996936 0.161034
C177  C     C_R   0.159378 0.531347 0.502997 0.161181
C178  C     C_R   0.521927 0.840996 0.518692 0.172461
C179  C     C_R   0.841028 0.477999 0.518664 0.172449
C180  C     C_R   0.478128 0.159009 0.518678 0.172400
C181  C     C_R   0.159371 0.468679 0.496825 0.161176
C182  C     C_R   0.521895 0.159005 0.481323 0.172438
C183  C     C_R   0.840945 0.522020 0.481452 0.172469
C184  C     C_R   0.478091 0.840991 0.481307 0.172423
C185  C     C_R   0.677479 0.000002 0.999929 -0.042673
C186  C     C_R   0.067436 0.500000 0.499996 0.902865
C187  C     C_R   0.999984 0.322559 0.000000 -0.034926
C188  C     C_R   0.322550 0.999999 0.000104 -0.035109
C189  C     C_R   0.999988 0.677466 0.999999 -0.042491
C190  C     C_R   0.177450 0.500016 0.499895 -0.034972
C191  C     C_R   0.500012 0.822533 0.499999 -0.042481
C192  C     C_R   0.822519 0.500013 0.500072 -0.042622
C193  C     C_R   0.500015 0.177467 0.500002 -0.042471
C194  C     C_R   0.604992 0.999999 0.999978 -0.102878
C195  C     C_R   0.999996 0.394762 0.999999 -0.118748
C196  C     C_R   0.394750 0.999999 0.000034 -0.118931
C197  C     C_R   0.500000 0.932668 0.500000 0.893319
C198  C     C_R   0.999999 0.604977 0.000002 -0.102519
C199  C     C_R   0.105250 0.500004 0.499967 -0.118909
C200  C     C_R   0.500001 0.895023 0.500002 -0.102473
C201  C     C_R   0.895007 0.499999 0.500019 -0.102898
C202  C     C_R   0.500002 0.104977 0.499999 -0.102498
C203  C     C_R   0.785317 0.000001 0.999889 0.270932
C204  C     C_R   0.999953 0.215331 0.000004 0.290433
C205  C     C_R   0.215331 0.999976 0.000090 0.290317
C206  C     C_R   0.999972 0.785318 0.999993 0.271006
C207  C     C_R   0.284668 0.500023 0.499905 0.290084
C208  C     C_R   0.932656 0.500000 0.500000 0.893437
C209  C     C_R   0.500028 0.714682 0.499993 0.271027
C210  C     C_R   0.714681 0.500027 0.500117 0.270995
C211  C     C_R   0.500030 0.285318 0.500008 0.271047
C212  C     C_R   0.715430 0.000002 0.999906 0.342929
C213  C     C_R   0.999976 0.285094 0.000001 0.356077
C214  C     C_R   0.285075 0.999995 0.000104 0.356028
C215  C     C_R   0.999982 0.715410 0.999997 0.343023
C216  C     C_R   0.214925 0.500020 0.499894 0.356075
C217  C     C_R   0.500019 0.784589 0.499997 0.343017
C218  C     C_R   0.784568 0.500018 0.500097 0.343120
C219  C     C_R   0.500000 0.067332 0.499999 0.893313
C220  C     C_R   0.500021 0.215410 0.500004 0.343034
C221  C     C_R   0.841091 0.021648 0.018582 -0.137501
C222  C     C_R   0.003321 0.159197 0.025598 -0.142914
C223  C     C_R   0.159210 0.996556 0.025651 -0.142597
C224  C     C_R   0.978317 0.841078 0.018623 -0.137712
C225  C     C_R   0.841072 0.978352 0.981254 -0.137594
C226  C     C_R   0.021623 0.841075 0.981357 -0.137655
C227  C     C_R   0.159176 0.003379 0.974485 -0.142755
C228  C     C_R   0.996582 0.159198 0.974410 -0.142779
C229  C     C_R   0.340824 0.503386 0.525515 -0.143130
C230  C     C_R   0.500243 0.999962 0.854118 0.297864
C231  C     C_R   0.521698 0.658922 0.518651 -0.137647
C232  C     C_R   0.658925 0.478315 0.518705 -0.138011
C233  C     C_R   0.478377 0.341074 0.518642 -0.137617
C234  C     C_R   0.340790 0.496646 0.474341 -0.143105
C235  C     C_R   0.521685 0.341079 0.481379 -0.137670
C236  C     C_R   0.658904 0.521742 0.481478 -0.137977
C237  C     C_R   0.478362 0.658925 0.481328 -0.137595
C238  C     C_R   0.877099 0.021197 0.018951 -0.180291
C239  C     C_R   0.003253 0.123250 0.025600 -0.182904
C240  C     C_R   0.123274 0.996644 0.025637 -0.180125
H1    H     H_    0.438395 0.937982 0.724184 0.197045
H2    H     H_    0.437762 0.061529 0.224146 0.197005
H3    H     H_    0.061730 0.562177 0.224341 0.197023
H4    H     H_    0.562242 0.938453 0.224327 0.197055
H5    H     H_    0.938097 0.562135 0.775706 0.197043
H6    H     H_    0.438032 0.938369 0.775721 0.196998
H7    H     H_    0.061496 0.437973 0.775838 0.196970
H8    H     H_    0.562500 0.061460 0.775806 0.197066
H9    H     H_    0.484525 0.053442 0.857556 0.153989
H10   H     H_    0.053266 0.515997 0.857641 0.154435
H11   H     H_    0.515951 0.946488 0.857672 0.154510
H12   H     H_    0.937666 0.561693 0.724167 0.197043
H13   H     H_    0.946475 0.484262 0.857603 0.154017
H14   H     H_    0.484372 0.946527 0.142380 0.153957
H15   H     H_    0.053468 0.484277 0.142426 0.153925
H16   H     H_    0.515787 0.053485 0.142393 0.154539
H17   H     H_    0.946680 0.516019 0.142330 0.154525
H18   H     H_    0.984109 0.553485 0.357625 0.154515
H19   H     H_    0.553251 0.016025 0.357646 0.154409
H20   H     H_    0.015714 0.446583 0.357608 0.153841
H21   H     H_    0.446560 0.983949 0.357603 0.154368
H22   H     H_    0.983964 0.446543 0.642340 0.154395
H23   H     H_    0.562088 0.061853 0.724267 0.197054
H24   H     H_    0.553496 0.983936 0.642368 0.154457
H25   H     H_    0.015578 0.553443 0.642426 0.153965
H26   H     H_    0.446804 0.016001 0.642383 0.154319
H27   H     H_    0.484744 0.053792 0.909543 0.169438
H28   H     H_    0.053651 0.515610 0.909625 0.169329
H29   H     H_    0.515495 0.946193 0.909655 0.169326
H30   H     H_    0.946212 0.484552 0.909588 0.169421
H31   H     H_    0.484686 0.946198 0.090397 0.169420
H32   H     H_    0.053771 0.484565 0.090438 0.169396
H33   H     H_    0.515426 0.053801 0.090406 0.169356
H34   H     H_    0.061847 0.438316 0.724300 0.196951
H35   H     H_    0.946335 0.515630 0.090348 0.169348
H36   H     H_    0.984472 0.553781 0.409610 0.169277
H37   H     H_    0.553611 0.015712 0.409630 0.169271
H38   H     H_    0.015399 0.446233 0.409593 0.169320
H39   H     H_    0.446275 0.984304 0.409592 0.169233
H40   H     H_    0.984420 0.446227 0.590356 0.169227
H41   H     H_    0.553741 0.984293 0.590382 0.169251
H42   H     H_    0.015356 0.553773 0.590441 0.169364
H43   H     H_    0.446403 0.015691 0.590396 0.169256
H44   H     H_    0.609028 0.039108 0.032344 0.172105
H45   H     H_    0.438084 0.061892 0.275685 0.197033
H46   H     H_    0.055443 0.390270 0.005261 0.187082
H47   H     H_    0.390269 0.944525 0.005316 0.186974
H48   H     H_    0.961068 0.608915 0.032460 0.172033
H49   H     H_    0.608876 0.960892 0.967605 0.172084
H50   H     H_    0.038928 0.608924 0.967543 0.172035
H51   H     H_    0.390241 0.055473 0.994768 0.186989
H52   H     H_    0.944546 0.390285 0.994737 0.187095
H53   H     H_    0.109752 0.555476 0.505255 0.186962
H54   H     H_    0.538996 0.891085 0.532482 0.171992
H55   H     H_    0.891117 0.460840 0.532350 0.172090
H56   H     H_    0.937878 0.438396 0.275652 0.197011
H57   H     H_    0.461069 0.108923 0.532454 0.172018
H58   H     H_    0.109738 0.444534 0.494662 0.186935
H59   H     H_    0.538938 0.108916 0.467544 0.172014
H60   H     H_    0.890974 0.539163 0.467697 0.172109
H61   H     H_    0.461008 0.891077 0.467521 0.171994
H62   H     H_    0.827353 0.038388 0.033162 0.156973
H63   H     H_    0.005869 0.172622 0.045658 0.159481
H64   H     H_    0.172641 0.993969 0.045712 0.159597
H65   H     H_    0.961575 0.827319 0.033182 0.157172
H66   H     H_    0.827318 0.961611 0.966659 0.157085
H67   H     H_    0.561789 0.938035 0.275864 0.197064
H68   H     H_    0.038361 0.827314 0.966797 0.157005
H69   H     H_    0.172577 0.005963 0.954436 0.159435
H70   H     H_    0.994027 0.172623 0.954351 0.159690
H71   H     H_    0.327423 0.505939 0.545565 0.159637
H72   H     H_    0.538453 0.672681 0.533233 0.157206
H73   H     H_    0.672679 0.461524 0.533261 0.157080
H74   H     H_    0.461638 0.327312 0.533201 0.157041
H75   H     H_    0.327359 0.494095 0.454277 0.159588
H76   H     H_    0.538429 0.327321 0.466821 0.157214
H77   H     H_    0.672641 0.538535 0.466939 0.157137
H78   H     H_    0.062071 0.561767 0.275880 0.196985
H79   H     H_    0.461611 0.672686 0.466745 0.157034
H80   H     H_    0.890853 0.037780 0.033668 0.152005
H81   H     H_    0.005879 0.109756 0.045627 0.164409
H82   H     H_    0.109801 0.993993 0.045652 0.164902
H83   H     H_    0.962185 0.890863 0.033647 0.152854
H84   H     H_    0.890822 0.962212 0.966238 0.152797
H85   H     H_    0.037774 0.890857 0.966340 0.152023
H86   H     H_    0.109748 0.005959 0.954433 0.164354
H87   H     H_    0.994055 0.109756 0.954378 0.165028
H88   H     H_    0.390251 0.505916 0.545571 0.165070
H89   H     H_    0.938320 0.438023 0.224115 0.196996
H90   H     H_    0.537843 0.609136 0.533698 0.152943
H91   H     H_    0.609176 0.462114 0.533678 0.152871
H92   H     H_    0.462224 0.390856 0.533658 0.152118
H93   H     H_    0.390199 0.494101 0.454339 0.164993
H94   H     H_    0.537819 0.390865 0.466355 0.152968
H95   H     H_    0.609140 0.537919 0.466429 0.152914
H96   H     H_    0.462199 0.609142 0.466289 0.152093
I1    I     I_    0.682903 0.053692 0.049877 -0.295407
I2    I     I_    0.553539 0.817180 0.550080 -0.295992
I3    I     I_    0.817322 0.446240 0.549963 -0.296482
I4    I     I_    0.446580 0.182831 0.550047 -0.295886
I5    I     I_    0.184720 0.420140 0.492978 -0.295141
I6    I     I_    0.553451 0.182823 0.449957 -0.296058
I7    I     I_    0.817100 0.553787 0.450185 -0.296153
I8    I     I_    0.446487 0.817169 0.449916 -0.295820
I9    I     I_    0.079818 0.315232 0.006860 -0.293305
I10   I     I_    0.315293 0.920116 0.006987 -0.294904
I11   I     I_    0.946559 0.682821 0.050049 -0.295978
I12   I     I_    0.682668 0.946312 0.949977 -0.295916
I13   I     I_    0.053415 0.682832 0.949948 -0.295798
I14   I     I_    0.315256 0.079881 0.993230 -0.293125
I15   I     I_    0.920146 0.315257 0.993142 -0.294791
I16   I     I_    0.184733 0.579895 0.506802 -0.294846
N1    N     N_R   0.500196 0.999942 0.676257 -0.357241
N2    N     N_R   0.992501 0.267499 0.975936 -0.127694
N3    N     N_R   0.267450 0.007509 0.976053 -0.127798
N4    N     N_R   0.030203 0.733219 0.999941 -0.124110
N5    N     N_R   0.733236 0.030244 0.000024 -0.124032
N6    N     N_R   0.969755 0.733210 0.000052 -0.124469
N7    N     N_R   0.267507 0.992470 0.024149 -0.127624
N8    N     N_R   0.007439 0.267498 0.024068 -0.127858
N9    N     N_R   0.232493 0.492527 0.475843 -0.127749
N10   N     N_R   0.469797 0.766780 0.499918 -0.124094
N11   N     N_R   0.766767 0.530263 0.500019 -0.124344
N12   N     N_R   0.999741 0.499979 0.676265 -0.357193
N13   N     N_R   0.530247 0.233211 0.499951 -0.124473
N14   N     N_R   0.232549 0.507514 0.523950 -0.127757
N15   N     N_R   0.469799 0.233218 0.500057 -0.124109
N16   N     N_R   0.766759 0.469778 0.500189 -0.124355
N17   N     N_R   0.530245 0.766789 0.500073 -0.124458
N18   N     N_R   0.767611 0.969739 0.999543 -0.147431
N19   N     N_R   0.992523 0.233136 0.975944 -0.158481
N20   N     N_R   0.233106 0.007466 0.976052 -0.158473
N21   N     N_R   0.030217 0.767616 0.999715 -0.146611
N22   N     N_R   0.767613 0.030263 0.000241 -0.146547
N23   N     N_R   0.499895 0.999956 0.323743 -0.357241
N24   N     N_R   0.969731 0.767607 0.000273 -0.147492
N25   N     N_R   0.233161 0.992496 0.024136 -0.158385
N26   N     N_R   0.007395 0.233135 0.024063 -0.158565
N27   N     N_R   0.266839 0.492563 0.475855 -0.158500
N28   N     N_R   0.469782 0.732383 0.499693 -0.146563
N29   N     N_R   0.732390 0.530288 0.499804 -0.147277
N30   N     N_R   0.530271 0.267608 0.499730 -0.147486
N31   N     N_R   0.266893 0.507481 0.523949 -0.158503
N32   N     N_R   0.469784 0.267615 0.500282 -0.146592
N33   N     N_R   0.732382 0.469763 0.500423 -0.147279
N34   N     N_R   0.999930 0.500061 0.323734 -0.357192
N35   N     N_R   0.530270 0.732392 0.500295 -0.147458
N36   N     N_R   0.000064 0.500123 0.176260 -0.357194
N37   N     N_R   0.500063 0.000015 0.176268 -0.357210
N38   N     N_R   0.999845 0.500109 0.823740 -0.357193
N39   N     N_R   0.500266 0.999933 0.823732 -0.357211
N40   N     N_R   0.733234 0.969759 0.999775 -0.124402
O1    O     O_R   0.550940 0.971210 0.999990 -0.612099
O2    O     O_R   0.471210 0.949060 0.499990 -0.612017
O3    O     O_R   0.949060 0.528790 0.499990 -0.612064
O4    O     O_R   0.528790 0.050940 0.499990 -0.612100
O5    O     O_R   0.050940 0.528790 0.500010 -0.619434
O6    O     O_R   0.471210 0.050940 0.500010 -0.612038
O7    O     O_R   0.949060 0.471210 0.500010 -0.612121
O8    O     O_R   0.528790 0.949060 0.500010 -0.612077
O9    O     O_R   0.499990 0.971210 0.958070 -0.620255
O10   O     O_R   0.971210 0.500010 0.958070 -0.618386
O11   O     O_R   0.500010 0.028790 0.958070 -0.618382
O12   O     O_R   0.971210 0.449060 0.999990 -0.619471
O13   O     O_R   0.028790 0.499990 0.958070 -0.620093
O14   O     O_R   0.499990 0.028790 0.041930 -0.620188
O15   O     O_R   0.971210 0.499990 0.041930 -0.620130
O16   O     O_R   0.500010 0.971210 0.041930 -0.618470
O17   O     O_R   0.028790 0.500010 0.041930 -0.618345
O18   O     O_R   0.999990 0.471210 0.458070 -0.618464
O19   O     O_R   0.471210 0.000010 0.458070 -0.619715
O20   O     O_R   0.000010 0.528790 0.458070 -0.620217
O21   O     O_R   0.528790 0.999990 0.458070 -0.619699
O22   O     O_R   0.999990 0.528790 0.541930 -0.618419
O23   O     O_R   0.449060 0.028790 0.999990 -0.619394
O24   O     O_R   0.471210 0.999990 0.541930 -0.619652
O25   O     O_R   0.000010 0.471210 0.541930 -0.620247
O26   O     O_R   0.528790 0.000010 0.541930 -0.619762
O27   O     O_2   0.542232 0.044083 0.675855 -0.548132
O28   O     O_2   0.043992 0.458063 0.675884 -0.548880
O29   O     O_2   0.458169 0.955792 0.675799 -0.548070
O30   O     O_2   0.955484 0.541888 0.675787 -0.548128
O31   O     O_2   0.541923 0.955810 0.324233 -0.548092
O32   O     O_2   0.044187 0.541972 0.324245 -0.548808
O33   O     O_2   0.457853 0.044091 0.324114 -0.548112
O34   O     O_R   0.028790 0.550940 0.999990 -0.611978
O35   O     O_2   0.955671 0.458152 0.324083 -0.548205
O36   O     O_2   0.041994 0.544365 0.175906 -0.548118
O37   O     O_2   0.544416 0.958207 0.175903 -0.548090
O38   O     O_2   0.958143 0.455872 0.175755 -0.548779
O39   O     O_2   0.455713 0.041826 0.175773 -0.548688
O40   O     O_2   0.041764 0.455857 0.824214 -0.548774
O41   O     O_2   0.544615 0.041746 0.824195 -0.547995
O42   O     O_2   0.957921 0.544355 0.824125 -0.548136
O43   O     O_2   0.455920 0.958116 0.824130 -0.548762
O44   O     O_R   0.000030 0.050790 0.976310 -0.618815
O45   O     O_R   0.550940 0.028790 0.000010 -0.611984
O46   O     O_R   0.050790 0.999970 0.976310 -0.621521
O47   O     O_R   0.999970 0.949210 0.976310 -0.615114
O48   O     O_R   0.949210 0.000030 0.976310 -0.611746
O49   O     O_R   0.000030 0.949210 0.023690 -0.611793
O50   O     O_R   0.050790 0.000030 0.023690 -0.618705
O51   O     O_R   0.999970 0.050790 0.023690 -0.621624
O52   O     O_R   0.949210 0.999970 0.023690 -0.615037
O53   O     O_R   0.500030 0.550790 0.476310 -0.615096
O54   O     O_R   0.550790 0.499970 0.476310 -0.613651
O55   O     O_R   0.499970 0.449210 0.476310 -0.611720
O56   O     O_R   0.971210 0.550940 0.000010 -0.612037
O57   O     O_R   0.449210 0.500030 0.476310 -0.620466
O58   O     O_R   0.500030 0.449210 0.523690 -0.615096
O59   O     O_R   0.550790 0.500030 0.523690 -0.613711
O60   O     O_R   0.499970 0.550790 0.523690 -0.611711
O61   O     O_R   0.449210 0.499970 0.523690 -0.620449
O62   O     O_R   0.449060 0.971210 0.000010 -0.619454
O63   O     O_R   0.028790 0.449060 0.000010 -0.619437
O64   O     O_R   0.050940 0.471210 0.499990 -0.619460
Zn1   Zn    Zn3+2 0.500000 0.961570 0.000000 0.995460
Zn2   Zn    Zn3+2 0.000000 0.000000 0.031620 0.979356
Zn3   Zn    Zn3+2 0.500000 0.500000 0.468380 0.982600
Zn4   Zn    Zn3+2 0.500000 0.500000 0.531620 0.982594
Zn5   Zn    Zn3+2 0.961570 0.500000 0.000000 0.995397
Zn6   Zn    Zn3+2 0.500000 0.038430 0.000000 0.995747
Zn7   Zn    Zn3+2 0.038430 0.500000 0.000000 0.995534
Zn8   Zn    Zn3+2 0.000000 0.461570 0.500000 0.995285
Zn9   Zn    Zn3+2 0.461570 0.000000 0.500000 0.997559
Zn10  Zn    Zn3+2 0.000000 0.538430 0.500000 0.995435
Zn11  Zn    Zn3+2 0.538430 0.000000 0.500000 0.997376
Zn12  Zn    Zn3+2 0.000000 0.000000 0.968380 0.979348

loop_
_geom_bond_atom_site_label_1
_geom_bond_atom_site_label_2
_ccdc_geom_bond_type
C193  C220  S    
C187  C213  S    
C3    C224  A    
C29   O15   A    
C132  C150  A    
C24   N36   S    
C133  C151  A    
C12   H93   S    
C191  C217  S    
C57   C128  A    
N6    N24   A    
C9    H90   S    
C138  H32   S    
C33   C158  S    
C134  H29   S    
C79   C194  A    
C135  C173  A    
C39   C229  A    
C177  I16   S    
C56   N23   A    
C128  C145  A    
C98   C114  A    
C226  H68   S    
C44   O46   A    
C221  H62   S    
C45   O47   A    
O61   Zn4   S    
C59   N23   A    
C2    C116  A    
C90   C195  A    
C27   C151  S    
C167  C200  A    
O25   Zn8   S    
C20   C45   S    
C55   N12   A    
C38   C226  A    
C208  O7    A    
C173  I13   S    
C76   C103  A    
C33   O26   A    
C32   O25   A    
C210  N33   A    
C50   O58   A    
C107  H3    S    
C58   N34   A    
C27   O10   A    
C142  H37   S    
C218  N11   A    
O48   Zn12  S    
O3    Zn10  S    
C26   O11   A    
C220  N13   A    
C24   C120  A    
C227  H69   S    
O20   Zn10  S    
C34   C225  A    
C169  C187  A    
C212  N40   A    
C143  C154  A    
C74   C100  A    
C116  C133  A    
C40   C209  S    
C44   O50   A    
O11   Zn6   S    
C165  C202  A    
C73   C88   A    
C28   O14   A    
C52   C72   A    
C181  C190  A    
C57   C130  A    
C54   C70   A    
O24   Zn9   S    
C6    C227  A    
C123  C141  A    
C10   C232  A    
C184  C191  A    
C101  C170  A    
C210  N29   A    
C4    C225  A    
C160  C178  A    
C62   N37   A    
C186  C199  S    
C131  C149  A    
C120  C138  A    
O26   Zn11  S    
C52   N1    A    
N3    N20   A    
C118  C136  A    
C19   C44   S    
O23   Zn6   S    
C182  I6    S    
C68   N1    S    
C77   C91   A    
C5    H85   S    
N17   N35   A    
C157  C195  A    
C105  H89   S    
C159  H53   S    
C54   N1    A    
C100  C106  A    
C65   N38   A    
C174  I14   S    
C28   C152  S    
O34   Zn7   S    
C27   O13   A    
O9    Zn1   S    
C186  O64   A    
C225  H66   S    
C237  H79   S    
C146  C174  A    
C238  H80   S    
C201  C208  S    
C141  C154  A    
C129  C147  A    
C23   C49   S    
C86   C95   A    
C211  N30   A    
C231  H72   S    
C12   C21   A    
C179  I3    S    
C30   C154  S    
C215  N4    A    
C124  C194  A    
C80   C93   A    
C235  H76   S    
C104  C107  A    
C55   C71   A    
O22   Zn10  S    
C26   O9    A    
C223  H64   S    
C220  N15   A    
C67   C83   A    
C163  C181  A    
C139  C152  A    
C204  N26   A    
O13   Zn7   S    
C137  H31   S    
C61   O36   S    
C216  N9    A    
C71   C97   A    
O1    Zn1   S    
C239  H81   S    
C28   O16   A    
C65   O40   S    
C183  I7    S    
O54   Zn3   S    
C205  N25   A    
C11   C25   A    
C80   C106  A    
C222  C239  A    
C13   C121  A    
O50   Zn2   S    
C63   O38   S    
C8    C229  A    
C6    H86   S    
C25   C50   S    
C58   C77   A    
C32   C156  S    
C130  H25   S    
C3    H83   S    
C167  C184  A    
C47   O48   A    
C87   C95   A    
C15   C236  A    
C90   H46   S    
C169  I9    S    
C82   C108  A    
N16   N33   A    
O60   Zn4   S    
C129  H24   S    
C149  C158  A    
C125  C142  A    
C162  C180  A    
C101  C196  A    
C75   C91   A    
N14   N31   A    
C109  H5    S    
C70   C87   A    
C14   C235  A    
C99   H34   S    
C115  C132  A    
C88   C94   A    
C184  I8    S    
C66   N39   A    
C46   C127  A    
C37   C223  A    
C91   C92   A    
C188  C214  S    
C102  H56   S    
C78   C92   A    
C71   C88   A    
C84   C95   A    
C233  H74   S    
C70   C96   A    
C118  H13   S    
C208  O3    A    
C97   C109  A    
C42   C235  A    
C122  H17   S    
O7    Zn8   S    
C172  C185  A    
C167  H61   S    
C216  N14   A    
O62   Zn1   S    
O63   Zn7   S    
C149  H43   S    
C53   O28   S    
C240  H82   S    
C2    N38   S    
C41   C210  S    
C11   H92   S    
C7    H87   S    
O16   Zn1   S    
C60   N34   A    
C119  H14   S    
C21   C51   S    
C72   C87   A    
C177  C190  A    
C51   O61   A    
C61   N36   A    
C37   C205  S    
C17   C47   S    
C170  I10   S    
C66   C86   A    
C164  C196  S    
C166  H60   S    
C115  H9    S    
C49   O59   A    
C211  N32   A    
C112  O63   A    
O57   Zn3   S    
C121  C139  A    
C35   C123  A    
C120  H15   S    
C122  C140  A    
C69   N39   A    
C69   C84   A    
C61   C81   A    
C48   O60   A    
C132  H27   S    
C213  N8    A    
O5    Zn10  S    
C90   C169  A    
C175  C198  S    
C32   O22   A    
C89   C93   A    
O49   Zn2   S    
C43   O44   A    
C209  N35   A    
C157  C176  A    
C126  C143  A    
C111  H7    S    
C170  C188  A    
N18   N40   A    
C139  H33   S    
C147  C158  A    
O8    Zn11  S    
C69   O43   S    
C180  C193  A    
C112  O12   A    
C16   H96   S    
C63   C78   A    
C22   C48   S    
C81   C107  A    
C11   C233  A    
O56   Zn5   S    
C46   C125  A    
C157  H52   S    
C43   O51   A    
C183  C192  A    
C2    C118  A    
O53   Zn3   S    
C64   O39   S    
C50   O55   A    
O51   Zn2   S    
C133  H28   S    
C165  C182  A    
C140  H35   S    
C234  H75   S    
C42   C233  A    
N8    N26   A    
C56   O31   S    
C102  C105  A    
C29   O17   A    
C38   C224  A    
C117  C230  A    
C115  C230  A    
C189  C215  S    
C145  C156  A    
C15   H95   S    
C114  H8    S    
C136  C151  A    
C146  H51   S    
C113  C198  A    
C137  C152  A    
C128  H22   S    
C224  H65   S    
C34   C221  A    
C140  C153  A    
C17   C238  A    
C159  C199  A    
C62   C82   A    
O64   Zn8   S    
C82   C93   A    
C214  N3    A    
C64   C80   A    
C53   N12   A    
C45   O49   A    
O55   Zn3   S    
C106  H2    S    
O10   Zn5   S    
C117  C134  A    
C46   N23   S    
C14   H94   S    
C53   C73   A    
C52   O27   S    
O19   Zn9   S    
C204  N19   A    
O14   Zn6   S    
C113  C171  A    
C124  H49   S    
C5    C20   A    
C213  N2    A    
C47   O52   A    
C59   O33   S    
C83   C94   A    
C96   C110  A    
C143  H38   S    
C166  C201  A    
C197  C200  S    
C165  H59   S    
C6    C19   A    
C205  N20   A    
C41   C232  A    
C26   C150  S    
O58   Zn4   S    
C57   N12   S    
O46   Zn12  S    
C3    C20   A    
C182  C193  A    
O15   Zn5   S    
C40   C231  A    
C59   C74   A    
N11   N29   A    
C203  N22   A    
O12   Zn5   S    
C214  N7    A    
C138  C153  A    
C162  C202  A    
C209  N28   A    
C186  O5    A    
N7    N25   A    
C206  N21   A    
C176  C187  A    
C125  H19   S    
C16   C22   A    
O2    Zn9   S    
C207  N27   A    
C166  C183  A    
C85   C111  A    
C39   C234  A    
C31   C155  S    
C215  N6    A    
C58   O32   S    
C60   C75   A    
C33   O24   A    
C9    C231  A    
C221  C238  A    
C104  H78   S    
C30   O20   A    
C1    C194  S    
C79   H44   S    
C18   C43   S    
C197  O8    A    
N2    N19   A    
C116  H10   S    
O52   Zn2   S    
C127  C144  A    
C14   C25   A    
C236  H77   S    
C135  H50   S    
C37   C227  A    
C67   N38   A    
C178  I2    S    
C51   O57   A    
C230  N39   S    
C77   C104  A    
N4    N21   A    
C148  C156  A    
O6    Zn9   S    
C190  C216  S    
O4    Zn11  S    
C56   C76   A    
C68   C131  A    
C10   H91   S    
C181  I5    S    
C192  C218  S    
C219  O6    A    
C135  C198  A    
C117  H11   S    
C160  C200  A    
C131  H26   S    
C72   C98   A    
C63   N36   A    
C12   C234  A    
C232  H73   S    
C35   N34   S    
C101  H47   S    
C48   O53   A    
C31   O21   A    
C148  H42   S    
C78   C105  A    
N5    N22   A    
C74   C89   A    
C161  C201  A    
C112  C195  S    
C223  C240  A    
C113  H48   S    
C147  H41   S    
C9    C22   A    
C7    C228  A    
C54   O29   S    
C134  C150  A    
C1    O1    A    
C5    C226  A    
C171  C189  A    
O44   Zn12  S    
C174  C188  A    
C64   N37   A    
C60   O35   S    
C13   N37   S    
C98   H23   S    
C179  C192  A    
C164  O62   A    
C67   O42   S    
C124  C172  A    
C75   C102  A    
C83   C109  A    
C99   C111  A    
C176  I15   S    
C79   C168  A    
C144  H39   S    
C228  H70   S    
C229  H71   S    
C218  N16   A    
C110  H6    S    
C15   C23   A    
C36   C228  A    
O17   Zn7   S    
C81   C92   A    
C161  H55   S    
C159  C177  A    
C24   C122  A    
C13   C119  A    
C97   H12   S    
C123  H18   S    
C96   H1    S    
C130  C148  A    
C119  C137  A    
C30   O18   A    
C197  O2    A    
C180  I4    S    
C163  H58   S    
O59   Zn4   S    
C55   O30   S    
O47   Zn12  S    
C100  H45   S    
C84   C110  A    
C127  H21   S    
C39   C207  S    
C217  N10   A    
C35   C126  A    
C40   C237  A    
C160  H54   S    
C85   C94   A    
C31   O19   A    
C172  I12   S    
C34   C203  S    
C7    C18   A    
C108  H4    S    
C8    C21   A    
C185  C212  S    
C212  N5    A    
C162  H57   S    
C103  C108  A    
C16   C237  A    
O21   Zn11  S    
C103  H67   S    
C142  C155  A    
C217  N17   A    
C145  H40   S    
C161  C179  A    
C4    C17   A    
C146  C196  A    
C219  O4    A    
C36   C222  A    
N15   N32   A    
C18   C239  A    
C121  H16   S    
C29   C153  S    
C73   C99   A    
C1    O45   A    
C168  C185  A    
C38   C206  S    
C171  I11   S    
C175  O34   A    
C206  N24   A    
C65   C85   A    
C41   C236  A    
C10   C23   A    
C76   C89   A    
C141  H36   S    
C126  H20   S    
C222  H63   S    
C86   C114  A    
C144  C155  A    
O45   Zn6   S    
C203  N18   A    
C19   C240  A    
C178  C191  A    
C173  C189  A    
N9    N27   A    
N10   N28   A    
C68   C129  A    
C66   O41   S    
C8    H88   S    
C163  C199  A    
N13   N30   A    
C175  O56   A    
C4    H84   S    
C207  N31   A    
C136  H30   S    
C49   O54   A    
C36   C204  S    
C164  O23   A    
C62   O37   S    
C168  I1    S    
O18   Zn8   S    
C42   C211  S    
C202  C219  S    
