data_mof_unit_45522.cif
_audit_creation_date              2013-03-05T15:40:55-0500
_audit_creation_method            fapswitch 2.2
_symmetry_space_group_name_H-M    P1
_symmetry_Int_Tables_number       1
_space_group_crystal_system       triclinic
_cell_length_a                    28.026866
_cell_length_b                    18.747175
_cell_length_c                    16.71297
_cell_angle_alpha                 90.057381
_cell_angle_beta                  62.957913
_cell_angle_gamma                 90.154187
_cell_volume                      7821.32997629

loop_
_atom_site_label
_atom_site_type_symbol
_atom_site_description
_atom_site_fract_x
_atom_site_fract_y
_atom_site_fract_z
_atom_type_partial_charge
O1    O     O_R   0.255040 0.869590 0.478480 -0.568767
O2    O     O_R   0.744960 0.130410 0.521520 -0.581361
O3    O     O_R   0.744960 0.869590 0.521520 -0.559687
O4    O     O_R   0.255040 0.130410 0.478480 -0.554191
O5    O     O_R   0.755040 0.369590 0.478480 -0.573669
O6    O     O_R   0.244960 0.630410 0.521520 -0.555056
O7    O     O_R   0.244960 0.369590 0.521520 -0.566469
O8    O     O_R   0.755040 0.630410 0.478480 -0.556602
O9    O     O_R   0.182050 0.796550 0.624440 -0.547528
O10   O     O_R   0.817950 0.203450 0.375560 -0.572233
O11   O     O_R   0.817950 0.796550 0.375560 -0.540608
O12   O     O_R   0.182050 0.203450 0.624440 -0.561119
O13   O     O_R   0.682050 0.296550 0.624440 -0.557346
O14   O     O_R   0.317950 0.703450 0.375560 -0.575271
O15   O     O_R   0.317950 0.296550 0.375560 -0.539950
O16   O     O_R   0.682050 0.703450 0.624440 -0.573288
Cu1   Cu    Cu3+1 0.209920 0.785290 0.495070 1.006821
Cu2   Cu    Cu3+1 0.790080 0.214710 0.504930 1.035723
Cu3   Cu    Cu3+1 0.790080 0.785290 0.504930 1.009328
Cu4   Cu    Cu3+1 0.209920 0.214710 0.495070 1.004319
Cu5   Cu    Cu3+1 0.709920 0.285290 0.495070 1.008692
Cu6   Cu    Cu3+1 0.290080 0.714710 0.504930 1.002025
Cu7   Cu    Cu3+1 0.290080 0.285290 0.504930 1.006502
Cu8   Cu    Cu3+1 0.709920 0.714710 0.495070 0.987720
C1    C     C_R   0.297236 0.733328 0.328217 0.846012
C2    C     C_R   0.710116 0.280780 0.666737 0.852998
C3    C     C_R   0.702501 0.733850 0.672199 0.858903
C4    C     C_R   0.295489 0.270620 0.328769 0.876340
C5    C     C_R   0.797557 0.234069 0.328359 0.844524
C6    C     C_R   0.204545 0.770675 0.671207 0.873841
C7    C     C_R   0.202707 0.233437 0.671783 0.863958
C8    C     C_R   0.795171 0.771309 0.328830 0.873401
O17   O     O_R   0.250530 0.763330 0.367210 -0.558262
O18   O     O_R   0.749470 0.236670 0.632790 -0.562275
O19   O     O_R   0.749470 0.763330 0.632790 -0.569615
O20   O     O_R   0.250530 0.236670 0.367210 -0.582371
O21   O     O_R   0.750530 0.263330 0.367210 -0.563206
O22   O     O_R   0.249470 0.736670 0.632790 -0.567285
O23   O     O_R   0.249470 0.263330 0.632790 -0.579903
O24   O     O_R   0.750530 0.736670 0.367210 -0.578334
O25   O     O_R   0.177260 0.690030 0.513710 -0.607687
O26   O     O_R   0.822740 0.309970 0.486290 -0.555258
O27   O     O_R   0.822740 0.690030 0.486290 -0.597883
O28   O     O_R   0.177260 0.309970 0.513710 -0.603691
O29   O     O_R   0.677260 0.190030 0.513710 -0.596120
O30   O     O_R   0.322740 0.809970 0.486290 -0.612946
O31   O     O_R   0.322740 0.190030 0.486290 -0.597185
O32   O     O_R   0.677260 0.809970 0.513710 -0.610168
C9    C     C_R   0.196725 0.631687 0.527432 0.834382
C10   C     C_R   0.803429 0.368218 0.471891 0.846991
C11   C     C_R   0.799489 0.630883 0.485795 0.842351
C12   C     C_R   0.200641 0.369060 0.513799 0.821607
C13   C     C_R   0.696757 0.131671 0.527321 0.793972
C14   C     C_R   0.303326 0.868259 0.472296 0.810917
C15   C     C_R   0.299389 0.130904 0.486107 0.841080
C16   C     C_R   0.700723 0.869048 0.513504 0.818515
H1    H     H_    0.581902 0.777813 0.375373 0.140808
H2    H     H_    0.418772 0.222100 0.622095 0.144830
H3    H     H_    0.497223 0.776650 0.365979 0.129424
H4    H     H_    0.503566 0.223436 0.630998 0.147069
H5    H     H_    0.080882 0.276641 0.379134 0.142997
H6    H     H_    0.918728 0.722226 0.621834 0.144936
H7    H     H_    0.996034 0.275135 0.370416 0.132004
H8    H     H_    0.003516 0.723671 0.630778 0.147940
C17   C     C_R   0.028870 0.619464 0.570457 0.093971
C18   C     C_R   0.971044 0.379762 0.429532 0.111644
C19   C     C_R   0.931346 0.618050 0.559321 0.101410
C20   C     C_R   0.068520 0.381122 0.440848 0.102466
C21   C     C_R   0.529009 0.119410 0.570144 0.097579
C22   C     C_R   0.471571 0.880441 0.427450 0.101850
C23   C     C_R   0.431480 0.118121 0.559080 0.102254
C24   C     C_R   0.569071 0.881608 0.438909 0.102970
C25   C     C_R   0.993533 0.677408 0.602387 -0.182466
C26   C     C_R   0.006176 0.321578 0.398268 -0.179330
C27   C     C_R   0.945093 0.676556 0.597291 -0.187238
C28   C     C_R   0.054621 0.322432 0.403352 -0.191411
C29   C     C_R   0.493626 0.177284 0.602367 -0.186923
C30   C     C_R   0.507066 0.822681 0.394928 -0.200344
C31   C     C_R   0.445186 0.176499 0.597290 -0.190260
C32   C     C_R   0.555457 0.823377 0.400284 -0.194748
C33   C     C_R   0.965961 0.559168 0.528450 0.036328
C34   C     C_R   0.033970 0.440075 0.471509 0.035483
C35   C     C_R   0.014675 0.559661 0.534651 0.030284
C36   C     C_R   0.985273 0.439601 0.465239 0.029924
C37   C     C_R   0.466164 0.059315 0.527856 0.033201
C38   C     C_R   0.534406 0.940446 0.469971 0.031876
C39   C     C_R   0.514893 0.059752 0.533996 0.029053
C40   C     C_R   0.485687 0.940041 0.463721 0.028724
C41   C     C_R   0.451554 0.999563 0.492482 -0.043700
C42   C     C_R   0.548992 0.000198 0.505401 -0.046017
C43   C     C_R   0.951313 0.499302 0.493315 -0.036892
C44   C     C_R   0.048700 0.500040 0.506384 -0.042132
C45   C     C_R   0.386149 0.937097 0.457388 0.049027
C46   C     C_R   0.614253 0.062695 0.540865 0.050602
C47   C     C_R   0.629665 0.938303 0.490002 0.037373
C48   C     C_R   0.370724 0.061414 0.508548 0.038184
C49   C     C_R   0.886160 0.436913 0.457553 0.082703
C50   C     C_R   0.114099 0.562746 0.541350 0.044793
C51   C     C_R   0.129431 0.438267 0.490833 0.037883
C52   C     C_R   0.870713 0.561289 0.508518 0.044517
C53   C     C_R   0.333813 0.935428 0.462801 -0.089235
C54   C     C_R   0.666462 0.064418 0.535965 -0.109883
C55   C     C_R   0.674031 0.936230 0.510110 -0.118824
C56   C     C_R   0.326248 0.063616 0.488801 -0.124265
C57   C     C_R   0.834061 0.435361 0.462085 -0.061940
C58   C     C_R   0.166327 0.564467 0.536408 -0.089938
C59   C     C_R   0.173867 0.436251 0.510719 -0.127198
C60   C     C_R   0.826455 0.563570 0.488170 -0.126865
C61   C     C_R   0.307067 0.999833 0.470852 -0.214883
C62   C     C_R   0.693242 0.000062 0.527869 -0.235487
C63   C     C_R   0.807612 0.499846 0.469289 -0.216834
C64   C     C_R   0.193036 0.500093 0.528562 -0.211769
H9    H     H_    0.269930 0.000018 0.465670 0.207339
H10   H     H_    0.730382 0.999953 0.533073 0.199608
H11   H     H_    0.771004 0.500041 0.462562 0.205984
H12   H     H_    0.230099 0.500004 0.533979 0.206662
C65   C     C_R   0.402916 0.999446 0.485709 0.069795
C66   C     C_R   0.597554 0.000318 0.512438 0.072811
C67   C     C_R   0.902835 0.499259 0.486032 0.078350
C68   C     C_R   0.097320 0.500270 0.513239 0.070722
C69   C     C_R   0.616599 0.881455 0.447365 -0.246250
C70   C     C_R   0.383816 0.118149 0.551208 -0.232950
C71   C     C_R   0.422223 0.879205 0.424625 -0.220179
C72   C     C_R   0.578210 0.120596 0.573331 -0.222437
C73   C     C_R   0.116236 0.381277 0.448589 -0.239019
C74   C     C_R   0.883728 0.618039 0.551286 -0.223426
C75   C     C_R   0.921993 0.378744 0.425817 -0.156960
C76   C     C_R   0.078099 0.620715 0.573588 -0.206762
H13   H     H_    0.643828 0.837656 0.416921 0.166774
H14   H     H_    0.356517 0.161780 0.582150 0.165681
H15   H     H_    0.413372 0.833863 0.393552 0.153419
H16   H     H_    0.586870 0.165893 0.604711 0.170552
H17   H     H_    0.143482 0.337562 0.417852 0.165314
H18   H     H_    0.856458 0.661717 0.582069 0.165945
H19   H     H_    0.913247 0.333352 0.394713 0.139626
H20   H     H_    0.086818 0.666126 0.604723 0.175218
C77   C     C_R   0.220805 0.771488 0.954807 0.042638
C78   C     C_R   0.788053 0.252981 0.043109 0.047507
C79   C     C_R   0.773714 0.784108 0.050353 0.045566
C80   C     C_R   0.222302 0.232194 0.948687 0.041307
C81   C     C_R   0.736382 0.301205 0.942460 0.046400
C82   C     C_R   0.277989 0.732617 0.051011 0.041541
C83   C     C_R   0.279168 0.271423 0.045310 0.042250
C84   C     C_R   0.712849 0.751010 0.958962 0.046005
C85   C     C_R   0.251204 0.708045 0.931608 -0.025897
C86   C     C_R   0.752808 0.311915 0.074264 -0.027658
C87   C     C_R   0.736867 0.727506 0.080528 -0.028420
C88   C     C_R   0.253074 0.295475 0.925382 -0.026538
C89   C     C_R   0.777387 0.250097 0.906291 -0.025152
C90   C     C_R   0.247097 0.795618 0.074631 -0.025737
C91   C     C_R   0.248871 0.207721 0.068206 -0.026347
C92   C     C_R   0.751569 0.805842 0.925460 -0.025200
C93   C     C_R   0.279787 0.688294 0.980412 0.084220
C94   C     C_R   0.723643 0.332470 0.026870 0.084542
C95   C     C_R   0.702758 0.716416 0.040383 0.089412
C96   C     C_R   0.282451 0.314309 0.972659 0.085112
C97   C     C_R   0.798181 0.220053 0.960965 0.085635
C98   C     C_R   0.217544 0.814230 0.027610 0.085842
C99   C     C_R   0.220466 0.187762 0.019156 0.083095
C100  C     C_R   0.779756 0.825527 0.974886 0.083880
C101  C     C_R   0.158114 0.851337 0.934021 0.022064
C102  C     C_R   0.848474 0.167293 0.062556 0.013824
C103  C     C_R   0.839648 0.858142 0.068985 0.017826
C104  C     C_R   0.158020 0.153967 0.928823 0.018136
C105  C     C_R   0.664243 0.367145 0.931018 0.023544
C106  C     C_R   0.342337 0.654677 0.070730 0.011763
C107  C     C_R   0.341646 0.351673 0.066507 0.020599
C108  C     C_R   0.639544 0.683090 0.952307 0.024873
C109  C     C_R   0.127560 0.868189 0.888544 -0.223306
C110  C     C_R   0.880197 0.148383 0.106429 -0.216444
C111  C     C_R   0.871447 0.871314 0.112955 -0.225062
C112  C     C_R   0.122429 0.142746 0.890472 -0.218963
C113  C     C_R   0.632162 0.378123 0.885596 -0.226502
C114  C     C_R   0.377918 0.643482 0.109243 -0.210542
C115  C     C_R   0.372282 0.368489 0.111780 -0.225207
C116  C     C_R   0.612671 0.658609 0.902078 -0.212112
C117  C     C_R   0.146584 0.846217 0.799726 0.358894
C118  C     C_R   0.869812 0.182554 0.187975 0.368237
C119  C     C_R   0.853243 0.847647 0.201002 0.360755
C120  C     C_R   0.131811 0.179514 0.811203 0.334523
C121  C     C_R   0.651346 0.355753 0.796210 0.344285
C122  C     C_R   0.369047 0.681033 0.187910 0.368154
C123  C     C_R   0.353327 0.346485 0.200523 0.361044
C124  C     C_R   0.628210 0.686439 0.815192 0.361562
C125  C     C_R   0.181829 0.787829 0.768209 -0.181418
C126  C     C_R   0.825465 0.228411 0.228712 -0.196196
C127  C     C_R   0.816863 0.790278 0.232454 -0.183591
C128  C     C_R   0.176215 0.224850 0.771091 -0.176049
C129  C     C_R   0.696993 0.312438 0.755935 -0.195695
C130  C     C_R   0.324063 0.725427 0.228627 -0.193789
C131  C     C_R   0.318125 0.287878 0.231910 -0.182278
C132  C     C_R   0.674550 0.729244 0.772949 -0.197068
C133  C     C_R   0.199467 0.754629 0.827486 -0.111493
C134  C     C_R   0.805290 0.261365 0.174089 -0.113393
C135  C     C_R   0.796546 0.760915 0.174620 -0.113119
C136  C     C_R   0.198434 0.253001 0.825574 -0.124070
C137  C     C_R   0.728477 0.299747 0.802083 -0.105775
C138  C     C_R   0.301859 0.753439 0.174205 -0.113870
C139  C     C_R   0.300416 0.254599 0.172651 -0.115488
C140  C     C_R   0.696194 0.760919 0.826974 -0.115658
C141  C     C_R   0.193027 0.792497 0.905226 0.030333
C142  C     C_R   0.814163 0.227470 0.093095 0.026287
C143  C     C_R   0.803330 0.800886 0.097905 0.030063
C144  C     C_R   0.192843 0.213249 0.901239 0.024470
C145  C     C_R   0.708999 0.321788 0.892364 0.039033
C146  C     C_R   0.307528 0.713810 0.098370 0.023034
C147  C     C_R   0.306830 0.292570 0.095047 0.029705
C148  C     C_R   0.683100 0.731211 0.912219 0.024074
C149  C     C_R   0.156192 0.892896 0.005111 -0.162129
C150  C     C_R   0.849680 0.128942 0.989018 -0.163881
C151  C     C_R   0.841066 0.902766 0.000450 -0.158811
C152  C     C_R   0.160199 0.108100 0.993240 -0.169848
C153  C     C_R   0.655570 0.402871 0.011100 -0.149658
C154  C     C_R   0.340160 0.608988 0.005988 -0.168541
C155  C     C_R   0.343464 0.393531 0.995852 -0.164192
C156  C     C_R   0.623263 0.664697 0.043273 -0.164573
C157  C     C_R   0.184447 0.874712 0.051200 -0.198252
C158  C     C_R   0.827058 0.156213 0.937190 -0.218188
C159  C     C_R   0.812672 0.886378 0.953456 -0.199865
C160  C     C_R   0.190127 0.124481 0.037716 -0.200771
C161  C     C_R   0.683591 0.384963 0.058721 -0.202079
C162  C     C_R   0.310246 0.625310 0.961504 -0.198425
C163  C     C_R   0.315333 0.375208 0.949562 -0.202564
C164  C     C_R   0.655813 0.676651 0.083819 -0.227245
C165  C     C_R   0.223752 0.686567 0.812442 0.360584
C166  C     C_R   0.777374 0.327199 0.196597 0.368510
C167  C     C_R   0.768303 0.695365 0.190953 0.357944
C168  C     C_R   0.224654 0.319654 0.808633 0.356981
C169  C     C_R   0.780903 0.270576 0.760494 0.379326
C170  C     C_R   0.275587 0.819892 0.191378 0.364262
C171  C     C_R   0.276064 0.186427 0.187601 0.354288
C172  C     C_R   0.728892 0.822909 0.800938 0.367464
C173  C     C_R   0.250238 0.665309 0.862340 -0.263922
C174  C     C_R   0.749688 0.349670 0.149414 -0.258881
C175  C     C_R   0.736757 0.681489 0.147346 -0.282149
C176  C     C_R   0.251675 0.339545 0.857673 -0.270680
C177  C     C_R   0.800737 0.236994 0.813638 -0.275741
C178  C     C_R   0.248533 0.839649 0.142433 -0.264762
C179  C     C_R   0.249685 0.165010 0.137513 -0.270545
C180  C     C_R   0.758127 0.841862 0.846953 -0.278455
H21   H     H_    0.134981 0.942374 0.024502 0.154634
H22   H     H_    0.866408 0.076517 0.970759 0.161712
H23   H     H_    0.861998 0.953077 0.984761 0.151143
H24   H     H_    0.140264 0.057508 0.008735 0.153322
H25   H     H_    0.629550 0.448251 0.036799 0.177681
H26   H     H_    0.360060 0.558533 0.990140 0.154285
H27   H     H_    0.364564 0.443264 0.977011 0.154329
H28   H     H_    0.584531 0.644346 0.088457 0.180492
H29   H     H_    0.178495 0.909557 0.106099 0.137909
H30   H     H_    0.830449 0.125038 0.880274 0.147076
H31   H     H_    0.816177 0.924200 0.902635 0.137148
H32   H     H_    0.187948 0.086006 0.086976 0.136783
H33   H     H_    0.672320 0.412793 0.121206 0.143160
H34   H     H_    0.312499 0.586998 0.911953 0.136440
H35   H     H_    0.321217 0.410288 0.894955 0.136741
H36   H     H_    0.641526 0.658901 0.152529 0.140798
H37   H     H_    0.268006 0.613171 0.847305 0.177684
H38   H     H_    0.729145 0.400051 0.168790 0.183757
H39   H     H_    0.714960 0.631595 0.161652 0.182414
H40   H     H_    0.268962 0.392082 0.843842 0.178309
H41   H     H_    0.839215 0.210666 0.780785 0.175143
H42   H     H_    0.231232 0.892070 0.156407 0.177572
H43   H     H_    0.231853 0.112797 0.152498 0.178231
H44   H     H_    0.784454 0.887027 0.821049 0.176311
O33   O     O_R   0.051640 0.926880 0.885090 -0.532478
O34   O     O_R   0.948360 0.073120 0.114910 -0.555745
O35   O     O_R   0.948360 0.926880 0.114910 -0.530983
O36   O     O_R   0.051640 0.073120 0.885090 -0.561257
O37   O     O_R   0.551640 0.426880 0.885090 -0.532540
O38   O     O_R   0.448360 0.573120 0.114910 -0.559090
O39   O     O_R   0.448360 0.426880 0.114910 -0.530030
O40   O     O_R   0.551640 0.573120 0.885090 -0.546885
Cu9   Cu    Cu3+1 0.495240 0.500000 0.924150 0.934779
Cu10  Cu    Cu3+1 0.504760 0.500000 0.075850 0.939587
Cu11  Cu    Cu3+1 0.995240 0.000000 0.924150 0.934804
Cu12  Cu    Cu3+1 0.004760 0.000000 0.075850 0.944089
C181  C     C_R   0.921732 0.911819 0.070581 0.854510
C182  C     C_R   0.076038 0.093587 0.931078 0.801781
C183  C     C_R   0.077963 0.910716 0.929833 0.849699
C184  C     C_R   0.924724 0.095377 0.068080 0.800452
C185  C     C_R   0.421974 0.410871 0.070248 0.851154
C186  C     C_R   0.572000 0.599918 0.935205 0.798821
C187  C     C_R   0.578962 0.413021 0.929192 0.865381
C188  C     C_R   0.424092 0.593889 0.068840 0.795349
O41   O     O_R   0.940620 0.926560 0.986760 -0.600012
O42   O     O_R   0.059380 0.073440 0.013240 -0.622168
O43   O     O_R   0.059380 0.926560 0.013240 -0.602397
O44   O     O_R   0.940620 0.073440 0.986760 -0.621890
O45   O     O_R   0.440620 0.426560 0.986760 -0.604409
O46   O     O_R   0.559380 0.573440 0.013240 -0.632791
O47   O     O_R   0.559380 0.426560 0.013240 -0.601992
O48   O     O_R   0.440620 0.573440 0.986760 -0.625630
O49   O     O_3   0.130575 0.882660 0.743763 -0.546134
C189  C     C_3   0.161488 0.945915 0.712792 0.096084
H45   H     H_    0.202811 0.932912 0.661043 0.124073
H46   H     H_    0.164407 0.975658 0.768274 0.067885
C190  C     C_3   0.135291 0.996236 0.672331 -0.321149
H47   H     H_    0.093870 0.008659 0.723641 0.249534
H48   H     H_    0.158353 0.047015 0.652853 0.195572
C191  C     C_3   0.133301 0.964517 0.589775 -0.706731
H49   H     H_    0.174397 0.955570 0.535562 0.259623
H50   H     H_    0.112736 0.002284 0.564644 0.215473
H51   H     H_    0.110868 0.913287 0.606774 0.267570
O50   O     O_3   0.900704 0.166719 0.231148 -0.590707
C192  C     C_3   0.932428 0.226603 0.228743 0.092032
H52   H     H_    0.940570 0.222687 0.287717 0.150069
H53   H     H_    0.911744 0.278641 0.235381 0.148747
C193  C     C_3   0.986161 0.225972 0.143281 -0.357713
H54   H     H_    0.007552 0.175502 0.140332 0.253267
H55   H     H_    0.979092 0.229041 0.083120 0.205205
C194  C     C_3   0.021608 0.288522 0.141314 -0.891828
H56   H     H_    0.001411 0.339886 0.143384 0.272649
H57   H     H_    0.059968 0.286474 0.078455 0.266686
H58   H     H_    0.030602 0.285686 0.199438 0.250923
O51   O     O_3   0.870810 0.881885 0.256512 -0.543377
C195  C     C_3   0.841412 0.945956 0.289014 0.102212
H59   H     H_    0.799797 0.933869 0.340538 0.115267
H60   H     H_    0.839164 0.977502 0.234262 0.071593
C196  C     C_3   0.868858 0.993474 0.330378 -0.314444
H61   H     H_    0.910706 0.004482 0.279429 0.247346
H62   H     H_    0.847318 0.045220 0.350267 0.200681
C197  C     C_3   0.869458 0.959564 0.412885 -0.714564
H63   H     H_    0.827982 0.952250 0.466762 0.258747
H64   H     H_    0.891106 0.995151 0.438619 0.215699
H65   H     H_    0.890147 0.907208 0.395613 0.273213
O52   O     O_3   0.099180 0.168469 0.770204 -0.590109
C198  C     C_3   0.058617 0.220975 0.801204 0.118656
H66   H     H_    0.076022 0.273929 0.772284 0.164035
H67   H     H_    0.038587 0.224688 0.876095 0.126216
C199  C     C_3   0.016256 0.200951 0.771265 -0.332093
H68   H     H_    0.034631 0.201558 0.696666 0.221105
H69   H     H_    0.001260 0.146130 0.794862 0.236745
C200  C     C_3   0.968963 0.252428 0.809116 -0.868317
H70   H     H_    0.949027 0.250925 0.883758 0.259865
H71   H     H_    0.939254 0.236634 0.785519 0.263004
H72   H     H_    0.982749 0.307668 0.785976 0.265979
O53   O     O_3   0.624168 0.375269 0.748131 -0.570415
C201  C     C_3   0.645615 0.440403 0.703173 0.118606
H73   H     H_    0.688492 0.433959 0.653420 0.136998
H74   H     H_    0.642589 0.483201 0.751646 0.127846
C202  C     C_3   0.613666 0.463181 0.653902 -0.321250
H75   H     H_    0.613882 0.419424 0.608780 0.224678
H76   H     H_    0.571473 0.473560 0.703821 0.225491
C203  C     C_3   0.636997 0.530266 0.598105 -0.831868
H77   H     H_    0.639553 0.573775 0.640936 0.293534
H78   H     H_    0.610928 0.547851 0.567954 0.244080
H79   H     H_    0.677531 0.519208 0.543165 0.262103
O54   O     O_3   0.402120 0.669603 0.228222 -0.592301
C204  C     C_3   0.431671 0.732286 0.223878 0.108664
H80   H     H_    0.448985 0.725067 0.271348 0.146912
H81   H     H_    0.405959 0.780659 0.246809 0.151968
C205  C     C_3   0.477696 0.744074 0.129219 -0.400343
H82   H     H_    0.501069 0.694195 0.105045 0.235015
H83   H     H_    0.461112 0.758366 0.082317 0.213358
C206  C     C_3   0.515166 0.803569 0.128370 -0.871039
H84   H     H_    0.492775 0.854392 0.151784 0.274936
H85   H     H_    0.547570 0.811075 0.058886 0.265334
H86   H     H_    0.533698 0.789530 0.172563 0.250588
O55   O     O_3   0.369356 0.383085 0.256508 -0.543396
C207  C     C_3   0.338583 0.446268 0.287298 0.094487
H87   H     H_    0.297191 0.433182 0.338880 0.114742
H88   H     H_    0.335856 0.475951 0.231689 0.069762
C208  C     C_3   0.364790 0.496699 0.327910 -0.318054
H89   H     H_    0.406317 0.509053 0.276776 0.250713
H90   H     H_    0.341930 0.547495 0.347065 0.197444
C209  C     C_3   0.366412 0.465147 0.410766 -0.706266
H91   H     H_    0.325217 0.456387 0.464847 0.257951
H92   H     H_    0.387088 0.502930 0.435911 0.215363
H93   H     H_    0.388555 0.413845 0.394125 0.270813
O56   O     O_3   0.598731 0.669415 0.769948 -0.594084
C210  C     C_3   0.566170 0.728141 0.772720 0.100573
H94   H     H_    0.561036 0.726350 0.710630 0.165928
H95   H     H_    0.584682 0.781042 0.772376 0.150364
C211  C     C_3   0.510720 0.722373 0.854019 -0.358784
H96   H     H_    0.491748 0.671066 0.850806 0.253293
H97   H     H_    0.514876 0.723505 0.916983 0.201635
C212  C     C_3   0.474241 0.783439 0.856439 -0.891756
H98   H     H_    0.491762 0.835422 0.861581 0.268356
H99   H     H_    0.434503 0.777190 0.915880 0.264875
H100  H     H_    0.468558 0.783006 0.794854 0.257467
N1    N     N_R   0.215964 0.634549 0.755992 0.139249
O57   O     O_R   0.169719 0.628976 0.755770 -0.364118
O58   O     O_R   0.252560 0.586951 0.713478 -0.324946
N2    N     N_R   0.782497 0.376281 0.258618 0.140936
O59   O     O_R   0.743864 0.420296 0.304977 -0.326003
O60   O     O_R   0.828258 0.383608 0.260189 -0.401603
N3    N     N_R   0.776322 0.638948 0.241980 0.147182
O61   O     O_R   0.823094 0.629789 0.239122 -0.341188
O62   O     O_R   0.739013 0.591604 0.282818 -0.332955
N4    N     N_R   0.218466 0.371815 0.750788 0.143345
O63   O     O_R   0.256820 0.416926 0.706194 -0.330393
O64   O     O_R   0.172446 0.379751 0.750391 -0.369973
N5    N     N_R   0.819013 0.292819 0.672082 0.144393
O65   O     O_R   0.860099 0.253002 0.623604 -0.373906
O66   O     O_R   0.818172 0.358438 0.647507 -0.401509
N6    N     N_R   0.281775 0.872049 0.249376 0.139652
O67   O     O_R   0.243367 0.916776 0.294278 -0.328730
O68   O     O_R   0.327878 0.880533 0.249395 -0.389791
N7    N     N_R   0.283622 0.134499 0.244211 0.142657
O69   O     O_R   0.329806 0.129016 0.244596 -0.348351
O70   O     O_R   0.246849 0.086896 0.286752 -0.325439
N8    N     N_R   0.726243 0.873517 0.738230 0.140233
O71   O     O_R   0.767176 0.914049 0.690453 -0.379754
O72   O     O_R   0.680936 0.885301 0.736609 -0.391202

loop_
_geom_bond_atom_site_label_1
_geom_bond_atom_site_label_2
_geom_bond_distance
_ccdc_geom_bond_type
C197  H64   1.110283 S    
C86   C174  1.408833 A    
C155  H27   1.070723 S    
C138  C146  1.413928 A    
Cu2   Cu5   2.679253 S    
C59   C64   1.396966 A    
O38   Cu10  1.968619 S    
C23   C70   1.400599 A    
C168  N4    1.440920 S    
C111  C119  1.392839 A    
C136  C168  1.410021 A    
O53   C201  1.415678 S    
C200  H70   1.111489 S    
C103  C143  1.403460 A    
C157  H29   1.075471 S    
C77   C98   1.424148 A    
C110  C118  1.411064 A    
C96   C163  1.404806 A    
N6    O68   1.301616 A    
C1    C130  1.489904 S    
C80   C99   1.424843 A    
C38   C40   1.415982 A    
C81   C94   1.415160 A    
C100  C159  1.405500 A    
C135  C143  1.421621 A    
Cu6   O22   1.954625 S    
C133  C141  1.417827 A    
C5    C126  1.487358 S    
C6    O22   1.293219 A    
C118  O50   1.388600 S    
C124  O56   1.386522 S    
C212  H100  1.110811 S    
C154  C162  1.384879 A    
Cu4   O28   1.967890 S    
C47   C55   1.428597 A    
O40   Cu9   1.963600 S    
C89   C177  1.401843 A    
C108  C148  1.415825 A    
O3    Cu3   1.965884 S    
O52   C198  1.413945 S    
C109  C183  1.475379 S    
C36   C43   1.406188 A    
C136  C144  1.414292 A    
C110  C184  1.494575 S    
C111  C181  1.467013 S    
C193  C194  1.525540 S    
C49   C57   1.427552 A    
C83   C91   1.411979 A    
C140  C148  1.414109 A    
C170  N6    1.440743 S    
C158  H30   1.082783 S    
Cu9   O45   1.966959 S    
C51   C59   1.428141 A    
O25   C9    1.289964 A    
C29   C31   1.398261 A    
O40   C186  1.308332 A    
C106  C114  1.427531 A    
C176  H40   1.074391 S    
C199  H68   1.111741 S    
C122  C130  1.403430 A    
C150  H22   1.072680 S    
C38   C42   1.410267 A    
C45   C53   1.428227 A    
N4    O64   1.301734 A    
C102  C150  1.410385 A    
C3    O19   1.296366 A    
C195  H59   1.113069 S    
C156  C164  1.379287 A    
C206  H84   1.110834 S    
C86   C94   1.426570 A    
C13   C54   1.488108 S    
C205  H82   1.108430 S    
O12   Cu4   1.947809 S    
O13   Cu5   1.947795 S    
H2    C31   1.083702 S    
C34   C36   1.415543 A    
C160  H32   1.075650 S    
N1    O57   1.301693 A    
H6    C27   1.083701 S    
C169  C177  1.395060 A    
N3    O61   1.301713 A    
Cu11  O41   1.966959 S    
C91   C179  1.417520 A    
C191  H49   1.107947 S    
C164  H36   1.082457 S    
C115  C123  1.391311 A    
C200  H72   1.110907 S    
C129  C137  1.431910 A    
N7    O70   1.301590 A    
C45   C71   1.414660 A    
C16   C55   1.480864 S    
C106  C146  1.410361 A    
O2    C13   1.310030 A    
N2    O60   1.301600 A    
C50   C68   1.417942 A    
C9    C58   1.488209 S    
H7    C26   1.083391 S    
O37   Cu9   1.968622 S    
C156  H28   1.071047 S    
N5    O65   1.301803 A    
C50   C58   1.428406 A    
C60   C63   1.397514 A    
C135  C167  1.417808 A    
C149  C157  1.375976 A    
C133  C165  1.415283 A    
C93   C162  1.407902 A    
Cu3   O19   1.954236 S    
C78   C142  1.421532 A    
C82   C90   1.412179 A    
O10   Cu2   1.947795 S    
C97   C158  1.398986 A    
C82   C146  1.426229 A    
O4    Cu4   1.965886 S    
O5    Cu5   1.960855 S    
C40   C41   1.406395 A    
C46   C54   1.428170 A    
C99   C160  1.407876 A    
O55   C207  1.418604 S    
O37   C187  1.308356 A    
C197  H65   1.110512 S    
C140  C172  1.418599 A    
O38   C188  1.298197 A    
C105  C145  1.407687 A    
C183  O43   1.281605 A    
Cu12  O43   1.971255 S    
C134  C142  1.411033 A    
C196  H62   1.111785 S    
C204  H80   1.110785 S    
O36   C182  1.296692 A    
C14   C53   1.487367 S    
C21   C29   1.403443 A    
C107  C155  1.399906 A    
O27   C11   1.286568 A    
C114  C122  1.409908 A    
C23   C31   1.404456 A    
O56   C210  1.419127 S    
C117  C125  1.408160 A    
C26   C28   1.398480 A    
C102  C142  1.419974 A    
C195  C196  1.530306 S    
C52   C74   1.417519 A    
C104  C152  1.401480 A    
O7    C12   1.305875 A    
C80   C144  1.424731 A    
C30   C32   1.399238 A    
N7    O69   1.301674 A    
C18   C26   1.403275 A    
C205  C206  1.525524 S    
C72   H16   1.081110 S    
C116  C186  1.495708 S    
C211  H96   1.110802 S    
O54   C204  1.418589 S    
C139  C171  1.415084 A    
C186  O46   1.285822 A    
C82   C93   1.424572 A    
C192  H53   1.115549 S    
C10   C57   1.488281 S    
H8    C25   1.083616 S    
C104  C144  1.409341 A    
C62   H10   1.083238 S    
C191  H51   1.110539 S    
C101  C109  1.415819 A    
O28   C12   1.285900 A    
O16   C3    1.305293 A    
C132  C140  1.425090 A    
O29   C13   1.289989 A    
C190  H48   1.111747 S    
H1    C32   1.083712 S    
C179  H43   1.074565 S    
C45   C65   1.417504 A    
C180  H44   1.075045 S    
H3    C30   1.083572 S    
C109  C117  1.392021 A    
C207  H87   1.112962 S    
C33   C35   1.415440 A    
C2    C129  1.486862 S    
C193  H55   1.111228 S    
Cu5   O29   1.963981 S    
C202  H76   1.111812 S    
H5    C28   1.083662 S    
C161  H33   1.078158 S    
C52   C60   1.428276 A    
Cu7   O31   1.967890 S    
C177  H41   1.082578 S    
Cu8   O32   1.967890 S    
C6    C125  1.482742 S    
C48   C65   1.414547 A    
C121  O53   1.385060 S    
C149  H21   1.070513 S    
C198  H67   1.117016 S    
C181  O41   1.282487 A    
C15   C56   1.481882 S    
C211  C212  1.525145 S    
C91   C99   1.427232 A    
C49   C67   1.417497 A    
O49   C189  1.418710 S    
C118  C126  1.408049 A    
Cu4   Cu7   2.673111 S    
C210  C211  1.533753 S    
C116  C124  1.412731 A    
C54   C62   1.396234 A    
C52   C67   1.414617 A    
C153  H25   1.076041 S    
Cu10  O46   1.966959 S    
C209  H93   1.110507 S    
C188  O48   1.290531 A    
C153  C161  1.390408 A    
O9    C6    1.301618 A    
O26   C10   1.290501 A    
C105  C153  1.415008 A    
C206  H85   1.110779 S    
C41   C65   1.418217 A    
O11   C8    1.300941 A    
C19   C33   1.405505 A    
C204  C205  1.535956 S    
C201  H74   1.115272 S    
C194  H57   1.110918 S    
O12   C7    1.300456 A    
C208  C209  1.525973 S    
C43   C67   1.418161 A    
O13   C2    1.308870 A    
C104  C112  1.424822 A    
C19   C27   1.404569 A    
C3    C132  1.502309 S    
C4    C131  1.481144 S    
C64   H12   1.082935 S    
C87   C95   1.410383 A    
C165  N1    1.439794 S    
N8    O71   1.301796 A    
C108  C116  1.433474 A    
C8    C127  1.483270 S    
C126  C134  1.416733 A    
N3    O62   1.301641 A    
C113  C187  1.482745 S    
C137  C169  1.419891 A    
C20   C28   1.404773 A    
C201  C202  1.528233 S    
C151  C159  1.382414 A    
O1    Cu1   1.960855 S    
C166  C174  1.400089 A    
C20   C34   1.405405 A    
O14   Cu6   1.947795 S    
C44   C68   1.418399 A    
C24   C32   1.405106 A    
C46   C66   1.417872 A    
C47   C69   1.418212 A    
C77   C141  1.427161 A    
C78   C86   1.415845 A    
O7    Cu7   1.965884 S    
O8    Cu8   1.965886 S    
C107  C115  1.413487 A    
C81   C145  1.423169 A    
C212  H99   1.111079 S    
C203  H77   1.108153 S    
C20   C73   1.400884 A    
C207  C208  1.530474 S    
C1    O17   1.296980 A    
O39   Cu10  1.963600 S    
C117  O49   1.388308 S    
C85   C173  1.417505 A    
C24   C69   1.402005 A    
C25   C27   1.398451 A    
C137  C145  1.412950 A    
Cu11  Cu12  2.667273 S    
Cu12  O42   1.966959 S    
O11   Cu3   1.947809 S    
C199  H69   1.111840 S    
C42   C66   1.418401 A    
C77   C85   1.412446 A    
C75   H19   1.080887 S    
C76   H20   1.081129 S    
C189  H45   1.113131 S    
O39   C185  1.301693 A    
C119  C127  1.407308 A    
C53   C61   1.396658 A    
C210  H94   1.111005 S    
O6    Cu6   1.960853 S    
C172  N8    1.441217 S    
C34   C44   1.410293 A    
C195  H60   1.115694 S    
C169  N5    1.435920 S    
C209  H91   1.107839 S    
C120  C128  1.399073 A    
C121  C129  1.403824 A    
O33   Cu11  1.968622 S    
C83   C147  1.425794 A    
C12   C59   1.480802 S    
C191  H50   1.110312 S    
C199  C200  1.526936 S    
C205  H83   1.111151 S    
C208  H89   1.110465 S    
C124  C132  1.411024 A    
C103  C111  1.410411 A    
C21   C39   1.409233 A    
C112  C120  1.408368 A    
C50   C76   1.414137 A    
C197  H63   1.108362 S    
C57   C63   1.396016 A    
C113  C121  1.402256 A    
O51   C195  1.419071 S    
C159  H31   1.076465 S    
Cu1   O17   1.954623 S    
Cu11  O44   1.971253 S    
Cu3   O27   1.967890 S    
C200  H71   1.110655 S    
O35   Cu12  1.963600 S    
C17   C76   1.404440 A    
C123  O55   1.388301 S    
N6    O67   1.301569 A    
C189  C190  1.530604 S    
C19   C74   1.400733 A    
C37   C41   1.410080 A    
C21   C72   1.404105 A    
C187  O47   1.279782 A    
C101  C149  1.400612 A    
C155  C163  1.375061 A    
C171  N7    1.439776 S    
C184  O44   1.289981 A    
C151  H23   1.077116 S    
C102  C110  1.431373 A    
C203  H79   1.108624 S    
C167  N3    1.440079 S    
O30   C14   1.290088 A    
C166  N2    1.440296 S    
Cu6   O30   1.963981 S    
C79   C100  1.424617 A    
C55   C62   1.396828 A    
O4    C15   1.305874 A    
O5    C10   1.310134 A    
C178  H42   1.074525 S    
O34   Cu12  1.968619 S    
C175  H39   1.081587 S    
C114  C188  1.485158 S    
C130  C138  1.416945 A    
C90   C98   1.421044 A    
C71   H15   1.081144 S    
C69   H13   1.079326 S    
C24   C38   1.405741 A    
N4    O63   1.301580 A    
C152  C160  1.384009 A    
Cu1   Cu6   2.679253 S    
C48   C70   1.417241 A    
C165  C173  1.403739 A    
C134  C166  1.418989 A    
C94   C161  1.404783 A    
Cu2   O26   1.963981 S    
Cu3   Cu8   2.673111 S    
C198  H66   1.114025 S    
C79   C143  1.420336 A    
O10   C5    1.300443 A    
C108  C156  1.416993 A    
O15   C4    1.299751 A    
C98   C157  1.404907 A    
O14   C1    1.302740 A    
C211  H97   1.110306 S    
C196  H61   1.110937 S    
C33   C43   1.410091 A    
Cu5   O21   1.954623 S    
C4    O20   1.290737 A    
C84   C92   1.410850 A    
C192  H52   1.110721 S    
C39   C42   1.406273 A    
C5    O21   1.297955 A    
N1    O58   1.301583 A    
C88   C96   1.419955 A    
C89   C97   1.406711 A    
C112  C182  1.480837 S    
C84   C148  1.425896 A    
C87   C175  1.410699 A    
C194  H56   1.110811 S    
C92   C100  1.426130 A    
C22   C30   1.403785 A    
C190  H47   1.110485 S    
C49   C75   1.414046 A    
C22   C40   1.409536 A    
N2    O59   1.301633 A    
C80   C88   1.411714 A    
C207  H88   1.115842 S    
C81   C89   1.406146 A    
C51   C73   1.417921 A    
C58   C64   1.396185 A    
C202  H75   1.111891 S    
C35   C44   1.406043 A    
N5    O66   1.300976 A    
C79   C87   1.402999 A    
C101  C141  1.407989 A    
C131  C139  1.435446 A    
C56   C61   1.396887 A    
C17   C35   1.409262 A    
C120  O52   1.384663 S    
C105  C113  1.431441 A    
C17   C25   1.403473 A    
C18   C75   1.404139 A    
C171  C179  1.403239 A    
C51   C68   1.414080 A    
C23   C37   1.405716 A    
C22   C71   1.405285 A    
C2    O18   1.287332 A    
C11   C60   1.482483 S    
C210  H95   1.116837 S    
C7    C128  1.487032 S    
Cu9   O48   1.971253 S    
Cu10  O47   1.971255 S    
C61   H9    1.082984 S    
C85   C93   1.428458 A    
O15   Cu7   1.947809 S    
C196  C197  1.526027 S    
C204  H81   1.113693 S    
C208  H90   1.111745 S    
C95   C164  1.393241 A    
C74   H18   1.079043 S    
N8    O72   1.301833 A    
C37   C39   1.415325 A    
C47   C66   1.414242 A    
H4    C29   1.083624 S    
Cu1   O25   1.963981 S    
C103  C151  1.404930 A    
O33   C183  1.303291 A    
Cu4   O20   1.954234 S    
C173  H37   1.074653 S    
C90   C178  1.416519 A    
O35   C181  1.298759 A    
O34   C184  1.303494 A    
C88   C176  1.416703 A    
C107  C147  1.406917 A    
O1    C14   1.309847 A    
O3    C16   1.306201 A    
C92   C180  1.411790 A    
C192  C193  1.533746 S    
C139  C147  1.417880 A    
Cu9   Cu10  2.667273 S    
C162  H34   1.075720 S    
C154  H26   1.069561 S    
Cu2   O18   1.954625 S    
O8    C11   1.305896 A    
C212  H98   1.110804 S    
C106  C154  1.402185 A    
O9    Cu1   1.947795 S    
O50   C192  1.419409 S    
C203  H78   1.110343 S    
C190  C191  1.525967 S    
C170  C178  1.395490 A    
C193  H54   1.110506 S    
O31   C15   1.286427 A    
C202  C203  1.523922 S    
C73   H17   1.079106 S    
O32   C16   1.285742 A    
C127  C135  1.435008 A    
C182  O42   1.289719 A    
C125  C133  1.435786 A    
O2    Cu2   1.960853 S    
C123  C131  1.407296 A    
C198  C199  1.529135 S    
C138  C170  1.410181 A    
C122  O54   1.388613 S    
C167  C175  1.401718 A    
C150  C158  1.384080 A    
C84   C95   1.415341 A    
C48   C56   1.427859 A    
C152  H24   1.069985 S    
C189  H46   1.115863 S    
C78   C97   1.411146 A    
C83   C96   1.424488 A    
Cu7   O23   1.954236 S    
O36   Cu11  1.963600 S    
Cu8   O24   1.954234 S    
C7    O23   1.294851 A    
C8    O24   1.290449 A    
O6    C9    1.310200 A    
C209  H92   1.110296 S    
C168  C176  1.395181 A    
C119  O51   1.388369 S    
C18   C36   1.409355 A    
C163  H35   1.075365 S    
C206  H86   1.111108 S    
C128  C136  1.417155 A    
O16   Cu8   1.947809 S    
C201  H73   1.114499 S    
C194  H58   1.110340 S    
C172  C180  1.399975 A    
C174  H38   1.077591 S    
C63   H11   1.081764 S    
C115  C185  1.472710 S    
C70   H14   1.079183 S    
C185  O45   1.281998 A    
C46   C72   1.414008 A    
