data_mof_unit_57694.cif
_audit_creation_date              2012-12-10T16:48:50-0500
_audit_creation_method            fapswitch 2.2
_symmetry_space_group_name_H-M    P1
_symmetry_Int_Tables_number       1
_space_group_crystal_system       triclinic
_cell_length_a                    17.136272
_cell_length_b                    8.743759
_cell_length_c                    7.483459
_cell_angle_alpha                 102.380788
_cell_angle_beta                  91.223094
_cell_angle_gamma                 93.070448
_cell_volume                      1093.01894619

loop_
_atom_site_label
_atom_site_type_symbol
_atom_type_description
_atom_site_fract_x
_atom_site_fract_y
_atom_site_fract_z
_atom_type_partial_charge
C1    C     C_R   0.490514 0.200153 0.455548 0.846185
C2    C     C_R   0.491552 0.797382 0.546331 0.809257
C3    C     C_2   0.469922 0.032484 0.428838 -0.032150
C4    C     C_2   0.470976 0.960637 0.572156 -0.080407
C5    C     C_R   0.349860 0.495490 0.523814 0.788913
C6    C     C_R   0.648840 0.503359 0.476507 0.815711
C7    C     C_R   0.263136 0.503054 0.537831 -0.130789
C8    C     C_R   0.733713 0.527495 0.472358 -0.096326
C9    C     C_R   0.212315 0.458894 0.380142 0.121010
C10   C     C_R   0.770099 0.666110 0.584704 0.108617
C11   C     C_R   0.136922 0.520209 0.382025 0.194807
C12   C     C_R   0.850320 0.669901 0.636487 0.180666
C13   C     C_R   0.111627 0.608796 0.549434 0.064957
C14   C     C_R   0.893982 0.540614 0.557949 0.059381
C15   C     C_R   0.157374 0.627151 0.708804 -0.248597
C16   C     C_R   0.858297 0.411311 0.434895 -0.232538
C17   C     C_R   0.229813 0.562576 0.706769 0.121729
C18   C     C_R   0.778476 0.401819 0.392190 0.099294
C19   C     C_2   0.029787 0.645859 0.570952 -0.193426
C20   C     C_2   0.977955 0.533123 0.595358 -0.241000
Cu1   Cu    Cu3+1 0.508700 0.517250 0.683000 0.925086
Cu2   Cu    Cu3+1 0.491300 0.482750 0.317000 0.913695
H1    H     H_    0.998864 0.420588 0.608833 0.157829
H2    H     H_    0.011747 0.755943 0.544901 0.177775
H3    H     H_    0.133289 0.679946 0.837958 0.166101
H4    H     H_    0.893131 0.314732 0.374035 0.141039
H5    H     H_    0.436529 0.384238 0.959876 0.229159
H6    H     H_    0.562434 0.618447 0.040910 0.224995
N1    N     N_2   0.478180 0.456750 0.041980 -0.230807
N2    N     N_2   0.521820 0.543250 0.958020 -0.224108
O1    O     O_R   0.505650 0.286040 0.618880 -0.589821
O2    O     O_R   0.494350 0.713960 0.381120 -0.606698
O3    O     O_R   0.490960 0.256910 0.309800 -0.581112
O4    O     O_R   0.509040 0.743090 0.690200 -0.592227
O5    O     O_R   0.394600 0.516230 0.672450 -0.586330
O6    O     O_R   0.605400 0.483770 0.327550 -0.579210
O7    O     O_R   0.379910 0.487100 0.363380 -0.590207
O8    O     O_R   0.620090 0.512900 0.636620 -0.567966
C21   C     C_3   0.231602 0.316260 0.239075 -0.919077
H7    H     H_    0.180695 0.251163 0.159515 0.219350
H8    H     H_    0.276348 0.345167 0.145480 0.252965
H9    H     H_    0.253553 0.231038 0.314507 0.228773
C22   C     C_3   0.723178 0.808763 0.651663 -0.836461
H10   H     H_    0.751106 0.912353 0.610258 0.229923
H11   H     H_    0.663213 0.796381 0.590249 0.219067
H12   H     H_    0.718547 0.832034 0.802634 0.229279
C23   C     C_3   0.742600 0.253483 0.267637 -0.400207
C24   C     C_3   0.735892 0.272924 0.070051 -0.783926
H13   H     H_    0.794775 0.297168 0.019395 0.241374
H14   H     H_    0.698606 0.370790 0.059428 0.269790
H15   H     H_    0.709281 0.163193 0.981730 0.230650
H16   H     H_    0.779290 0.152987 0.271453 0.190940
H17   H     H_    0.684230 0.220385 0.314281 0.192720
C25   C     C_3   0.258641 0.522303 0.881425 -0.384959
C26   C     C_3   0.295214 0.664341 0.013362 -0.805473
H18   H     H_    0.314348 0.630750 0.141081 0.265924
H19   H     H_    0.346619 0.711094 0.950195 0.271779
H20   H     H_    0.251671 0.754618 0.048255 0.238894
H21   H     H_    0.208370 0.474801 0.946545 0.210675
H22   H     H_    0.299652 0.426981 0.856260 0.201389
C27   C     C_3   0.886217 0.801634 0.788805 -0.365815
C28   C     C_3   0.905192 0.954555 0.725192 -0.870210
H23   H     H_    0.909844 0.933617 0.574134 0.245763
H24   H     H_    0.859562 0.039074 0.768241 0.248813
H25   H     H_    0.961620 0.010362 0.789636 0.236550
H26   H     H_    0.846414 0.824112 0.905527 0.195283
H27   H     H_    0.940212 0.765796 0.848856 0.201658
C29   C     C_3   0.081213 0.485905 0.213374 -0.375685
C30   C     C_3   0.060097 0.634585 0.151198 -0.866370
H28   H     H_    0.015616 0.698063 0.237838 0.249736
H29   H     H_    0.112930 0.714162 0.152989 0.249393
H30   H     H_    0.033845 0.601793 0.010330 0.238401
H31   H     H_    0.105385 0.410008 0.093240 0.193439
H32   H     H_    0.026954 0.421746 0.242520 0.202860
C31   C     C_3   0.435512 0.952829 0.239261 -0.371884
C32   C     C_3   0.359345 0.024336 0.199968 -0.908888
H33   H     H_    0.315523 0.004110 0.300984 0.254116
H34   H     H_    0.367807 0.150574 0.202832 0.284776
H35   H     H_    0.335630 0.970319 0.061476 0.250883
H36   H     H_    0.479161 0.964092 0.134874 0.201351
H37   H     H_    0.417951 0.828291 0.222062 0.250371
C33   C     C_3   0.441136 0.038208 0.758305 -0.364918
C34   C     C_3   0.359285 0.097698 0.740968 -0.854702
H38   H     H_    0.358498 0.184249 0.652414 0.249307
H39   H     H_    0.317009 0.997761 0.682462 0.252361
H40   H     H_    0.339622 0.156197 0.877352 0.224589
H41   H     H_    0.435251 0.951488 0.845654 0.214919
H42   H     H_    0.482984 0.131818 0.833704 0.228027

loop_
_geom_bond_atom_site_label_1
_geom_bond_atom_site_label_2
_ccdc_geom_bond_type
C26   H18   S    
Cu2   N1    S    
C5    O7    A    
H5    N1    S    
C19   C20   D    
C32   H35   S    
C1    O1    A    
C22   H10   S    
C18   C23   S    
C1    O3    A    
C21   H8    S    
C25   H22   S    
Cu1   O1    S    
N1    N2    D    
Cu2   O2    S    
C32   H34   S    
C15   H3    S    
C29   H32   S    
C33   H41   S    
C9    C21   S    
C2    O2    A    
C30   H29   S    
C28   H24   S    
C27   H26   S    
C24   H15   S    
Cu1   O8    S    
C23   C24   S    
C29   C30   S    
C7    C17   A    
C6    O8    A    
C3    C31   S    
C31   H36   S    
C23   H17   S    
C2    O4    A    
C24   H14   S    
Cu1   Cu2   S    
C30   H28   S    
C21   H9    S    
C25   H21   S    
C16   H4    S    
C20   H1    S    
C13   C19   S    
C14   C20   S    
C32   H33   S    
C21   H7    S    
C5    C7    S    
C31   H37   S    
C6    C8    S    
Cu1   O4    S    
C29   H31   S    
Cu2   O7    S    
C8    C18   A    
C1    C3    S    
C30   H30   S    
C2    C4    S    
C31   C32   S    
C28   H23   S    
C9    C11   A    
C27   H27   S    
C34   H38   S    
C13   C15   A    
C22   H11   S    
C10   C12   A    
C16   C18   A    
C24   H13   S    
C34   H39   S    
C12   C14   A    
C26   H19   S    
C14   C16   A    
C3    C4    D    
C11   C29   S    
C15   C17   A    
Cu2   O3    S    
C25   C26   S    
C28   H25   S    
C10   C22   S    
C23   H16   S    
Cu1   O5    S    
Cu2   O6    S    
Cu1   N2    S    
H6    N2    S    
C19   H2    S    
C12   C27   S    
C11   C13   A    
C33   H42   S    
C5    O5    A    
C6    O6    A    
C27   C28   S    
C22   H12   S    
C7    C9    A    
C34   H40   S    
C4    C33   S    
C8    C10   A    
C33   C34   S    
C26   H20   S    
C17   C25   S    
