data_mof_unit_50126.cif
_audit_creation_date              2012-12-10T19:47:39-0500
_audit_creation_method            fapswitch 2.2
_symmetry_space_group_name_H-M    P1
_symmetry_Int_Tables_number       1
_space_group_crystal_system       triclinic
_cell_length_a                    18.322136
_cell_length_b                    18.327477
_cell_length_c                    18.29061
_cell_angle_alpha                 119.859306
_cell_angle_beta                  90.239903
_cell_angle_gamma                 120.028639
_cell_volume                      4341.22567951

loop_
_atom_site_label
_atom_site_type_symbol
_atom_type_description
_atom_site_fract_x
_atom_site_fract_y
_atom_site_fract_z
_atom_type_partial_charge
C1    C     C_R   0.640072 0.780012 0.640599 0.781820
C2    C     C_R   0.236524 0.944548 0.155145 -0.356202
C3    C     C_R   0.204027 0.891398 0.195175 -0.203453
C4    C     C_R   0.360988 0.219778 0.359528 0.855169
C5    C     C_R   0.237638 0.947162 0.288080 0.138931
C6    C     C_3   0.190299 0.942582 0.353653 0.331500
C7    C     C_3   0.249832 0.060359 0.411785 -0.541894
C8    C     C_R   0.787597 0.547906 0.340843 0.137408
C9    C     C_R   0.694920 0.490845 0.303712 -0.134436
C10   C     C_R   0.654761 0.420976 0.210266 -0.347619
C11   C     C_R   0.707422 0.418558 0.154987 0.447493
C12   C     C_3   0.686177 0.392335 0.644055 0.919036
C13   C     C_R   0.802043 0.489696 0.194295 -0.194165
C14   C     C_R   0.840092 0.547396 0.287136 0.072280
C15   C     C_3   0.912754 0.659328 0.353641 -0.463345
C16   C     C_R   0.359771 0.499507 0.639461 0.798923
C17   C     C_3   0.854776 0.659958 0.412788 -0.469075
C18   C     C_R   0.788751 0.947134 0.733723 0.119103
C19   C     C_R   0.695630 0.891634 0.703052 -0.066111
C20   C     C_R   0.656500 0.945631 0.736937 -0.233999
C21   C     C_R   0.710294 0.053385 0.790559 -0.239616
C22   C     C_R   0.803697 0.108188 0.811029 -0.070831
C23   C     C_3   0.700020 0.501098 0.699425 -0.082668
C24   C     C_R   0.841856 0.053511 0.786817 0.140942
C25   C     C_3   0.910147 0.059037 0.741395 -0.480036
C26   C     C_3   0.851594 0.941751 0.682956 -0.485118
C27   C     C_R   0.281367 0.568641 0.340847 0.079294
C28   C     C_R   0.639981 0.499206 0.359969 0.824166
C29   C     C_R   0.295086 0.491068 0.303278 -0.183711
C30   C     C_R   0.245288 0.405628 0.212788 0.456318
C31   C     C_R   0.190345 0.406417 0.160317 -0.349295
C32   C     C_R   0.187995 0.492678 0.196758 -0.133263
C33   C     C_R   0.228570 0.569480 0.288364 0.130893
C34   C     C_3   0.802436 0.502780 0.802102 -0.012193
C35   C     C_3   0.289975 0.683986 0.336903 -0.447487
C36   C     C_3   0.348535 0.683161 0.394925 -0.483070
C37   C     C_R   0.280698 0.567432 0.728501 0.023169
C38   C     C_R   0.302340 0.496963 0.693267 -0.059942
C39   C     C_R   0.266641 0.422820 0.712722 -0.222519
C40   C     C_R   0.357990 0.498674 0.358888 0.839950
C41   C     C_R   0.212537 0.422817 0.766906 -0.211378
C42   C     C_R   0.193839 0.497417 0.802988 -0.071946
C43   C     C_R   0.230080 0.568458 0.781960 -0.081846
C44   C     C_3   0.240737 0.662814 0.798861 0.242439
C45   C     C_3   0.728464 0.508056 0.840115 -0.391314
C46   C     C_3   0.297819 0.660281 0.736491 0.232339
C47   C     C_R   0.859487 0.498910 0.139821 0.822230
C48   C     C_R   0.139608 0.499675 0.859952 0.796117
C49   C     C_R   0.140537 0.779959 0.139993 0.829718
C50   C     C_R   0.859799 0.219865 0.860385 0.790521
C51   C     C_R   0.140109 0.499379 0.140906 0.832412
C52   C     C_R   0.641448 0.500952 0.642117 0.872005
C53   C     C_R   0.858883 0.500841 0.859330 0.856871
C54   C     C_3   0.803775 0.593517 0.730987 0.756362
C55   C     C_3   0.861284 0.599112 0.799809 0.231044
C56   C     C_3   0.758350 0.403298 0.704812 -0.682523
C57   C     C_3   0.669242 0.509106 0.781400 -0.590380
C58   C     C_3   0.783179 0.729916 0.825531 0.111009
C59   C     C_3   0.828731 0.843554 0.865054 -0.840623
C60   C     C_3   0.376167 0.088411 0.120753 0.091790
C61   C     C_3   0.470788 0.152274 0.184943 -0.897956
C62   C     C_3   0.163832 0.895603 0.451566 0.133286
C63   C     C_3   0.178572 0.841368 0.485155 -0.859529
C64   C     C_3   0.905368 0.641605 0.654820 0.200093
C65   C     C_3   0.933636 0.593963 0.576039 -0.879267
C66   C     C_3   0.632132 0.254187 0.030048 0.130887
C67   C     C_R   0.291040 0.053398 0.340453 -0.013014
C68   C     C_3   0.589100 0.186794 0.928791 -0.825582
C69   C     C_3   0.292847 0.316378 0.113268 0.111455
C70   C     C_3   0.319759 0.244103 0.094006 -0.742682
C71   C     C_3   0.987467 0.768308 0.907205 0.121017
C72   C     C_3   0.025686 0.857780 0.005398 -0.809489
C73   C     C_3   0.351995 0.761653 0.940503 0.143029
C74   C     C_3   0.405460 0.867417 0.029454 -0.865681
C75   C     C_3   0.279923 0.721273 0.659005 0.118040
C76   C     C_3   0.221478 0.690219 0.575471 -0.830653
C77   C     C_3   0.572535 0.236032 0.631308 0.032064
C78   C     C_R   0.313522 0.107992 0.302172 -0.177779
C79   C     C_3   0.471956 0.153725 0.588460 -0.794258
C80   C     C_3   0.680093 0.274874 0.500959 0.129262
C81   C     C_3   0.713554 0.270877 0.423997 -0.837852
C82   C     C_R   0.293419 0.052858 0.207906 0.517547
H1    H     H_    0.733708 0.335912 0.706931 0.160432
H2    H     H_    0.922041 0.706675 0.328704 0.194158
H3    H     H_    0.883849 0.673295 0.475261 0.204406
H4    H     H_    0.830213 0.707526 0.422102 0.197506
H5    H     H_    0.584477 0.905164 0.718777 0.168593
H6    H     H_    0.678423 0.093166 0.812179 0.171639
H7    H     H_    0.914660 0.092754 0.703716 0.200050
H8    H     H_    0.975217 0.093247 0.787140 0.206393
H9    H     H_    0.822074 0.907245 0.611289 0.199601
H10   H     H_    0.914926 0.593159 0.774701 0.074438
H11   H     H_    0.882887 0.908432 0.695134 0.207593
H12   H     H_    0.598701 0.443039 0.758386 0.253141
H13   H     H_    0.152426 0.341637 0.090783 0.181882
H14   H     H_    0.322074 0.707687 0.294024 0.195490
H15   H     H_    0.258542 0.722773 0.374229 0.223171
H16   H     H_    0.414717 0.706215 0.385709 0.192991
H17   H     H_    0.351133 0.721846 0.465763 0.213136
H18   H     H_    0.280445 0.365212 0.686581 0.170018
H19   H     H_    0.186056 0.364998 0.780638 0.169137
H20   H     H_    0.175917 0.645490 0.770277 0.135211
H21   H     H_    0.370387 0.725291 0.768104 0.067260
H22   H     H_    0.665815 0.575375 0.822254 0.154210
H23   H     H_    0.686040 0.440364 0.842639 0.200973
H24   H     H_    0.812514 0.408796 0.675580 0.183532
H25   H     H_    0.791982 0.724542 0.882125 0.194195
H26   H     H_    0.711462 0.689801 0.791029 0.116998
H27   H     H_    0.820718 0.853216 0.810913 0.262489
H28   H     H_    0.798114 0.874317 0.913147 0.203069
H29   H     H_    0.901239 0.888154 0.900686 0.255409
H30   H     H_    0.380519 0.114174 0.076394 0.163296
H31   H     H_    0.350175 0.005777 0.075899 0.147557
H32   H     H_    0.470720 0.126023 0.228112 0.241683
H33   H     H_    0.515584 0.143041 0.146047 0.206001
H34   H     H_    0.214125 0.902714 0.082936 0.196009
H35   H     H_    0.497212 0.235149 0.227728 0.279946
H36   H     H_    0.090535 0.851292 0.418866 0.126287
H37   H     H_    0.189275 0.974650 0.510197 0.132612
H38   H     H_    0.251288 0.882954 0.517499 0.253494
H39   H     H_    0.144310 0.839613 0.534803 0.202408
H40   H     H_    0.150558 0.760786 0.428355 0.257027
H41   H     H_    0.962510 0.691131 0.717190 0.089565
H42   H     H_    0.889474 0.689546 0.647987 0.188307
H43   H     H_    0.878094 0.544369 0.512126 0.273011
H44   H     H_    0.992983 0.655836 0.576065 0.199184
H45   H     H_    0.117611 0.905903 0.325402 0.049346
H46   H     H_    0.951099 0.546308 0.581113 0.257641
H47   H     H_    0.580233 0.223645 0.058201 0.119982
H48   H     H_    0.687305 0.248751 0.045959 0.129464
H49   H     H_    0.638776 0.216353 0.898656 0.271117
H50   H     H_    0.564795 0.106208 0.901294 0.190099
H51   H     H_    0.531520 0.187415 0.910869 0.245890
H52   H     H_    0.354995 0.393550 0.138223 0.126911
H53   H     H_    0.247350 0.285574 0.049573 0.126945
H54   H     H_    0.259556 0.165945 0.068355 0.259904
H55   H     H_    0.353334 0.238374 0.042958 0.173829
H56   H     H_    0.211941 0.094192 0.418646 0.168120
H57   H     H_    0.366875 0.274234 0.156217 0.294531
H58   H     H_    0.989669 0.797723 0.866307 0.150382
H59   H     H_    0.030699 0.740153 0.895441 0.158844
H60   H     H_    0.026109 0.831462 0.048430 0.256652
H61   H     H_    0.095380 0.920544 0.021156 0.215279
H62   H     H_    0.984452 0.888384 0.019980 0.250460
H63   H     H_    0.399752 0.751628 0.906624 0.112696
H64   H     H_    0.317821 0.703195 0.955401 0.147270
H65   H     H_    0.360420 0.877085 0.067852 0.257626
H66   H     H_    0.457714 0.874891 0.069423 0.206692
H67   H     H_    0.298747 0.095927 0.475457 0.225911
H68   H     H_    0.438431 0.928782 0.017850 0.251220
H69   H     H_    0.351018 0.762856 0.662419 0.142783
H70   H     H_    0.271648 0.774051 0.718519 0.130707
H71   H     H_    0.150529 0.652516 0.572562 0.252355
H72   H     H_    0.243802 0.759650 0.576889 0.200235
H73   H     H_    0.226385 0.635447 0.514624 0.271712
H74   H     H_    0.758709 0.578136 0.909995 0.210841
H75   H     H_    0.591092 0.266988 0.703395 0.162133
H76   H     H_    0.605496 0.198027 0.597074 0.119809
H77   H     H_    0.450640 0.120215 0.515921 0.260872
H78   H     H_    0.582592 0.371955 0.179324 0.189418
H79   H     H_    0.454170 0.091158 0.596357 0.205566
H80   H     H_    0.435855 0.188013 0.621029 0.251653
H81   H     H_    0.606080 0.217832 0.472692 0.172787
H82   H     H_    0.711254 0.253328 0.531456 0.112705
H83   H     H_    0.787549 0.326835 0.449521 0.264719
H84   H     H_    0.695298 0.192059 0.374032 0.200371
H85   H     H_    0.682721 0.290518 0.390839 0.255804
H86   H     H_    0.974923 0.671782 0.381941 0.211897
O1    O     O_3   0.500000 0.500000 0.500000 -0.499305
O2    O     O_R   0.945140 0.268320 0.884430 -0.642182
O3    O     O_R   0.116800 0.560590 0.177500 -0.636500
O4    O     O_R   0.676800 0.731580 0.616070 -0.643828
O5    O     O_R   0.822390 0.439230 0.883130 -0.653007
O6    O     O_R   0.116800 0.439160 0.056060 -0.652746
O7    O     O_R   0.943840 0.560660 0.883130 -0.648004
O8    O     O_R   0.115490 0.731510 0.054770 -0.641405
O9    O     O_R   0.823160 0.268340 0.883890 -0.656536
O10   O     O_R   0.945140 0.560620 0.176740 -0.648415
O11   O     O_R   0.116030 0.439190 0.884430 -0.653590
O12   O     O_R   0.384470 0.439280 0.616070 -0.660345
O13   O     O_R   0.384470 0.268410 0.445190 -0.636907
O14   O     O_R   0.383920 0.560720 0.615530 -0.620036
O15   O     O_R   0.554810 0.439290 0.323210 -0.668609
O16   O     O_R   0.383160 0.560750 0.443890 -0.639117
O17   O     O_R   0.677560 0.560680 0.616830 -0.597841
O18   O     O_R   0.383160 0.439320 0.322450 -0.608272
O19   O     O_R   0.556120 0.439250 0.616830 -0.617645
O20   O     O_3   0.822525 0.692970 0.763685 -0.631967
O21   O     O_3   0.318179 0.104365 0.167182 -0.601616
O22   O     O_3   0.210143 0.900372 0.390817 -0.570183
O23   O     O_R   0.676800 0.560710 0.445190 -0.636003
O24   O     O_3   0.828665 0.561336 0.652381 -0.608347
O25   O     O_3   0.665587 0.356919 0.063322 -0.579776
O26   O     O_3   0.248658 0.321089 0.176978 -0.580132
O27   O     O_3   0.898201 0.690240 0.888008 -0.623067
O28   O     O_3   0.288356 0.754676 0.888198 -0.617494
O29   O     O_3   0.253830 0.631691 0.653710 -0.584826
O30   O     O_3   0.593043 0.315303 0.621583 -0.621257
O31   O     O_3   0.703692 0.375600 0.563165 -0.590803
O32   O     O_R   0.554810 0.731590 0.615530 -0.656313
O33   O     O_R   0.383920 0.268420 0.323210 -0.590202
O34   O     O_3   0.999960 0.499910 0.999960 -0.487754
O35   O     O_R   0.823160 0.439210 0.054770 -0.593285
O36   O     O_R   0.115490 0.560640 0.883890 -0.633536
O37   O     O_R   0.116030 0.731490 0.176740 -0.623949
Zn1   Zn    Zn3+2 0.457010 0.413240 0.543760 0.975384
Zn2   Zn    Zn3+2 0.456230 0.586760 0.542990 0.961773
Zn3   Zn    Zn3+2 0.456230 0.413270 0.369490 0.980859
Zn4   Zn    Zn3+2 0.630520 0.586730 0.543760 0.978106
Zn5   Zn    Zn3+2 0.042950 0.586670 0.956190 0.963888
Zn6   Zn    Zn3+2 0.043720 0.586650 0.130470 0.974297
Zn7   Zn    Zn3+2 0.043720 0.413150 0.956960 0.945993
Zn8   Zn    Zn3+2 0.869430 0.413180 0.956190 0.963678

loop_
_geom_bond_atom_site_label_1
_geom_bond_atom_site_label_2
_ccdc_geom_bond_type
O17   Zn4   S    
C72   H61   S    
C66   C68   S    
C34   C56   S    
C69   H52   S    
C27   C29   A    
C41   C42   A    
C71   H58   S    
C55   O27   S    
C35   C36   S    
C18   C26   S    
O34   Zn6   S    
C5    C67   A    
C66   O25   S    
O1    Zn3   S    
C3    C49   S    
C53   O5    A    
C39   C41   A    
C30   O26   S    
C35   H14   S    
C27   C33   A    
C72   H60   S    
C12   C23   S    
C45   C57   S    
C25   H8    S    
C37   C38   A    
O16   Zn2   S    
C54   O24   S    
C23   C54   S    
C18   C24   A    
C70   H55   S    
C74   H66   S    
C68   H51   S    
C28   O15   A    
O34   Zn5   S    
C6    H45   S    
C58   H25   S    
C47   O10   A    
C79   H77   S    
C5    C6    S    
C16   O14   A    
C40   O18   A    
O37   Zn6   S    
C20   H5    S    
C76   H71   S    
C59   H28   S    
C29   C40   S    
C72   H62   S    
C18   C19   A    
C73   C74   S    
O7    Zn5   S    
C76   H72   S    
C68   H50   S    
C12   C56   S    
C80   H82   S    
C77   H75   S    
C63   H39   S    
C21   C22   A    
C7    H67   S    
C2    H34   S    
O33   Zn3   S    
C19   C20   A    
C75   H69   S    
C8    C9    A    
C61   H33   S    
C59   H29   S    
C81   H84   S    
C52   O19   A    
C4    O13   A    
C29   C30   A    
C9    C10   A    
C58   H26   S    
C77   H76   S    
C22   C50   S    
C66   H47   S    
C26   H11   S    
C77   C79   S    
C21   H6    S    
C34   C55   S    
C69   H53   S    
C54   O20   S    
C13   C14   A    
C23   C52   S    
C70   H54   S    
O15   Zn3   S    
C12   O30   S    
C60   H31   S    
C67   C78   A    
C79   H79   S    
O12   Zn1   S    
C17   H3    S    
C64   O24   S    
C45   H23   S    
C75   O29   S    
C38   C39   A    
C44   O28   S    
C1    C19   S    
C58   O20   S    
C17   H4    S    
C65   H46   S    
O9    Zn8   S    
C74   H65   S    
C50   O9    A    
C24   C25   S    
C62   O22   S    
O4    Zn4   S    
C25   C26   S    
O1    Zn1   S    
C13   C47   S    
C44   H20   S    
C60   O21   S    
C46   O29   S    
C44   C46   S    
C26   H9    S    
C64   H42   S    
C80   O31   S    
C61   H35   S    
O11   Zn7   S    
C59   H27   S    
C32   C33   A    
C73   H63   S    
C60   C61   S    
C65   H43   S    
C37   C43   A    
C51   O6    A    
O5    Zn8   S    
C75   C76   S    
C32   C51   S    
C4    C78   S    
C62   C63   S    
C60   H30   S    
C7    H56   S    
O3    Zn6   S    
C78   C82   A    
C71   O27   S    
C31   C32   A    
C75   H70   S    
O1    Zn4   S    
C6    O22   S    
C81   H85   S    
C47   O35   A    
C50   O2    A    
C45   H74   S    
C42   C48   S    
C56   H24   S    
C62   H37   S    
C15   H2    S    
C34   C45   S    
O23   Zn4   S    
C23   C57   S    
C55   H10   S    
C49   O37   A    
O32   Zn2   S    
C57   H12   S    
C43   C44   S    
O6    Zn7   S    
C15   H86   S    
C2    C82   A    
C1    O32   A    
C42   C43   A    
C79   H80   S    
C28   O23   A    
C10   H78   S    
C48   O11   A    
C63   H40   S    
C53   O7    A    
C56   H1    S    
C77   O30   S    
C15   C17   S    
C57   H22   S    
C54   C55   S    
C8    C14   A    
C76   H73   S    
O35   Zn8   S    
C11   O25   S    
O34   Zn7   S    
C80   C81   S    
C3    C5    A    
O1    Zn2   S    
C80   H81   S    
C6    C7    S    
C68   H49   S    
C27   C36   S    
C64   H41   S    
C46   H21   S    
C48   O36   A    
C1    O4    A    
C25   H7    S    
C8    C17   S    
O18   Zn3   S    
C73   H64   S    
C65   H44   S    
C71   H59   S    
C2    C3    A    
C58   C59   S    
C71   C72   S    
C82   O21   S    
C64   C65   S    
C63   H38   S    
C11   C13   A    
C39   H18   S    
C30   C31   A    
C31   H13   S    
O14   Zn2   S    
O19   Zn1   S    
C51   O3    A    
C69   O26   S    
C33   C35   S    
C12   O31   S    
C41   H19   S    
O10   Zn6   S    
O13   Zn1   S    
C36   H17   S    
C22   C24   A    
C49   O8    A    
O34   Zn8   S    
C69   C70   S    
C62   H36   S    
C10   C11   A    
C7    C67   S    
C70   H57   S    
O2    Zn7   S    
C20   C21   A    
C34   C53   S    
C52   O17   A    
C73   O28   S    
O36   Zn5   S    
C61   H32   S    
O8    Zn5   S    
C81   H83   S    
C14   C15   S    
C74   H68   S    
C36   H16   S    
C40   O16   A    
C37   C46   S    
C35   H15   S    
C4    O33   A    
C16   O12   A    
C9    C28   S    
C16   C38   S    
C66   H48   S    
