data_mof_unit_11936.cif
_audit_creation_date              2012-10-26T21:12:49-0400
_audit_creation_method            fapswitch 2.2
_symmetry_space_group_name_H-M    P1
_symmetry_Int_Tables_number       1
_space_group_crystal_system       triclinic
_cell_length_a                    10.819464
_cell_length_b                    15.816618
_cell_length_c                    16.981472
_cell_angle_alpha                 95.889715
_cell_angle_beta                  89.255719
_cell_angle_gamma                 92.074579
_cell_volume                      2888.6335242

loop_
_atom_site_label
_atom_site_type_symbol
_atom_type_description
_atom_site_fract_x
_atom_site_fract_y
_atom_site_fract_z
_atom_type_partial_charge
C1    C     C_R   0.502094 0.490042 0.348376 0.557507
C2    C     C_R   0.468351 0.438452 0.773984 -0.184103
C3    C     C_R   0.544139 0.559724 0.143914 -0.049999
C4    C     C_R   0.455825 0.440314 0.856100 -0.050027
C5    C     C_R   0.532035 0.480403 0.096978 0.273481
C6    C     C_R   0.468031 0.519634 0.903025 0.273466
C7    C     C_R   0.516916 0.405130 0.133331 0.405216
C8    C     C_R   0.483229 0.594895 0.866663 0.405280
C9    C     C_R   0.506534 0.407897 0.215270 -0.124311
C10   C     C_R   0.493596 0.592113 0.784723 -0.124280
C11   C     C_R   0.446918 0.749942 0.456671 0.435008
C12   C     C_R   0.497912 0.509958 0.651624 0.557482
C13   C     C_R   0.553031 0.250055 0.543352 0.434987
C14   C     C_R   0.454855 0.838795 0.452636 -0.026401
C15   C     C_R   0.545086 0.161201 0.547382 -0.026371
C16   C     C_R   0.262572 0.500615 0.500991 0.550895
C17   C     C_R   0.737429 0.499386 0.499012 0.550877
C18   C     C_R   0.531063 0.890179 0.507368 0.088651
C19   C     C_R   0.468923 0.109819 0.492624 0.088662
C20   C     C_R   0.599668 0.849161 0.560864 -0.128710
C21   C     C_R   0.400364 0.150839 0.439106 -0.128735
C22   C     C_R   0.590922 0.760354 0.561143 0.460558
C23   C     C_R   0.870985 0.498160 0.499341 0.010660
C24   C     C_R   0.409116 0.239646 0.438831 0.460504
C25   C     C_R   0.160815 0.457293 0.774453 -0.051297
C26   C     C_R   0.839132 0.542843 0.225603 -0.051357
C27   C     C_R   0.134803 0.444900 0.693587 0.347128
C28   C     C_R   0.865119 0.555181 0.306474 0.347108
C29   C     C_R   0.126947 0.515315 0.649925 0.019075
C30   C     C_R   0.873062 0.484731 0.350079 0.019099
C31   C     C_R   0.154531 0.597283 0.686620 -0.224481
C32   C     C_R   0.845598 0.402774 0.313320 -0.224470
C33   C     C_R   0.181342 0.609265 0.767335 -0.101052
C34   C     C_R   0.129018 0.501847 0.500664 0.010665
C35   C     C_R   0.818820 0.390845 0.232599 -0.100981
C36   C     C_R   0.181016 0.539554 0.811663 0.343585
C37   C     C_R   0.819054 0.460599 0.188330 0.343591
C38   C     C_R   0.932951 0.503691 0.571990 -0.030357
C39   C     C_R   0.067053 0.496306 0.428014 -0.030378
C40   C     C_R   0.608267 0.126053 0.613067 0.095138
C41   C     C_R   0.539207 0.084840 0.669488 -0.069099
C42   C     C_R   0.598649 0.052757 0.732110 -0.128473
C43   C     C_R   0.727049 0.062254 0.739286 -0.110565
C44   C     C_R   0.796266 0.103801 0.683797 -0.111235
C45   C     C_R   0.937073 0.494038 0.427323 0.011856
C46   C     C_R   0.737259 0.135726 0.620899 -0.045954
C47   C     C_R   0.391612 0.873941 0.386975 0.095141
C48   C     C_R   0.262610 0.864286 0.379201 -0.045896
C49   C     C_R   0.203542 0.896214 0.316329 -0.111195
C50   C     C_R   0.272707 0.937746 0.260806 -0.110580
C51   C     C_R   0.401116 0.947224 0.267924 -0.128490
C52   C     C_R   0.460620 0.915138 0.330520 -0.069094
C53   C     C_R   0.863467 0.505285 0.648051 0.023001
C54   C     C_R   0.829673 0.428536 0.678607 -0.009862
C55   C     C_R   0.784583 0.429008 0.756138 -0.086384
C56   C     C_R   0.062931 0.505983 0.572681 0.011845
C57   C     C_R   0.772972 0.506033 0.803461 -0.107133
C58   C     C_R   0.803023 0.582827 0.772556 -0.102308
C59   C     C_R   0.847875 0.582595 0.694952 -0.060938
C60   C     C_R   0.136537 0.494584 0.351946 0.022965
C61   C     C_R   0.152218 0.417188 0.305202 -0.060781
C62   C     C_R   0.197045 0.416787 0.227579 -0.102192
C63   C     C_R   0.226980 0.493502 0.196497 -0.107026
C64   C     C_R   0.215290 0.570618 0.243666 -0.086633
C65   C     C_R   0.170233 0.571258 0.321219 -0.010283
C66   C     C_R   0.422847 0.359728 0.890427 0.066300
C67   C     C_R   0.511926 0.486190 0.262007 -0.062100
C68   C     C_R   0.490963 0.286543 0.869710 -0.059297
C69   C     C_R   0.458402 0.210347 0.900994 -0.070128
C70   C     C_R   0.357308 0.206333 0.952691 -0.049654
C71   C     C_R   0.288547 0.278537 0.973236 -0.065983
C72   C     C_R   0.320892 0.354915 0.942247 -0.046366
C73   C     C_R   0.577046 0.640332 0.109607 0.066294
C74   C     C_R   0.679039 0.645213 0.057827 -0.046298
C75   C     C_R   0.711329 0.721617 0.026870 -0.065863
C76   C     C_R   0.642470 0.793778 0.047403 -0.049645
C77   C     C_R   0.541334 0.789695 0.099058 -0.070175
C78   C     C_R   0.488097 0.513818 0.737994 -0.062101
C79   C     C_R   0.508831 0.713474 0.130313 -0.059313
C80   C     C_R   0.531588 0.561570 0.226026 -0.184098
Cu1   Cu    Cu3+1 0.493970 0.415220 0.496180 1.115000
Cu2   Cu    Cu3+1 0.506030 0.584780 0.503820 1.115118
F1    F     F_    0.198417 0.551915 0.890948 -0.635138
F2    F     F_    0.489714 0.671216 0.911077 -0.620055
F3    F     F_    0.801688 0.448296 0.109039 -0.635185
F4    F     F_    0.625618 0.299259 0.595410 -0.649779
F5    F     F_    0.374281 0.700734 0.404643 -0.649627
F6    F     F_    0.660052 0.722605 0.612604 -0.629364
F7    F     F_    0.340029 0.277396 0.387349 -0.629500
F8    F     F_    0.108568 0.365113 0.659157 -0.644158
F9    F     F_    0.891256 0.634956 0.340965 -0.644083
F10   F     F_    0.510518 0.328812 0.088908 -0.620050
H1    H     H_    0.493561 0.348868 0.241974 0.180211
H2    H     H_    0.802124 0.327248 0.203841 0.164717
H3    H     H_    0.458798 0.377966 0.737954 0.178415
H4    H     H_    0.541060 0.622058 0.262061 0.178423
H5    H     H_    0.439540 0.077684 0.664937 0.125816
H6    H     H_    0.545114 0.020753 0.775215 0.113553
H7    H     H_    0.772878 0.037541 0.787909 0.121026
H8    H     H_    0.895678 0.111280 0.689522 0.129073
H9    H     H_    0.791950 0.167692 0.578224 0.140096
H10   H     H_    0.207960 0.832333 0.421904 0.140138
H11   H     H_    0.104122 0.888750 0.310650 0.129085
H12   H     H_    0.506637 0.651134 0.758013 0.180234
H13   H     H_    0.226830 0.962462 0.212203 0.121005
H14   H     H_    0.454609 0.979218 0.224793 0.113537
H15   H     H_    0.560292 0.922280 0.335026 0.125811
H16   H     H_    0.843470 0.368409 0.643576 0.195773
H17   H     H_    0.760695 0.369622 0.779969 0.132479
H18   H     H_    0.739651 0.506260 0.863843 0.141597
H19   H     H_    0.793071 0.642434 0.809116 0.136245
H20   H     H_    0.875133 0.642209 0.672468 0.160482
H21   H     H_    0.125039 0.357629 0.327821 0.160593
H22   H     H_    0.207064 0.357109 0.191141 0.136215
H23   H     H_    0.660556 0.886236 0.602350 0.153932
H24   H     H_    0.260276 0.493143 0.136097 0.141461
H25   H     H_    0.239094 0.629941 0.219695 0.132434
H26   H     H_    0.156392 0.631450 0.356132 0.195790
H27   H     H_    0.569634 0.288562 0.829784 0.112897
H28   H     H_    0.511624 0.154397 0.885196 0.106118
H29   H     H_    0.332284 0.147284 0.976850 0.108394
H30   H     H_    0.210210 0.275373 0.013251 0.113434
H31   H     H_    0.266038 0.410063 0.958322 0.168540
H32   H     H_    0.733966 0.590099 0.041761 0.168608
H33   H     H_    0.789698 0.724835 0.986887 0.113474
H34   H     H_    0.339507 0.113765 0.397600 0.153916
H35   H     H_    0.667451 0.852846 0.023267 0.108401
H36   H     H_    0.488035 0.845611 0.114846 0.106124
H37   H     H_    0.430130 0.711403 0.170210 0.112937
H38   H     H_    0.161870 0.403279 0.808692 0.142448
H39   H     H_    0.838006 0.596889 0.191409 0.142412
H40   H     H_    0.147224 0.652189 0.653949 0.137409
H41   H     H_    0.852982 0.347841 0.345946 0.137316
H42   H     H_    0.198135 0.672874 0.796043 0.164713
N1    N     N_2   0.534074 0.474107 0.013446 -0.192107
N2    N     N_2   0.466000 0.525939 0.986557 -0.192122
N3    N     N_R   0.515100 0.712130 0.509560 -0.214364
N4    N     N_R   0.484900 0.287870 0.490440 -0.214328
N5    N     N_2   0.546939 0.981018 0.508719 -0.223075
N6    N     N_2   0.453043 0.018981 0.491271 -0.223092
O1    O     O_R   0.494360 0.420530 0.382500 -0.473129
O2    O     O_R   0.505640 0.579470 0.617500 -0.473200
O3    O     O_R   0.504550 0.563720 0.388950 -0.452489
O4    O     O_R   0.495450 0.436280 0.611050 -0.452450
O5    O     O_R   0.314550 0.428410 0.496780 -0.443872
O6    O     O_R   0.685450 0.571590 0.503220 -0.443713
O7    O     O_R   0.324740 0.571600 0.503230 -0.481973
O8    O     O_R   0.675260 0.428400 0.496770 -0.482118

loop_
_geom_bond_atom_site_label_1
_geom_bond_atom_site_label_2
_ccdc_geom_bond_type
C66   C68   A    
C34   C56   A    
C23   C45   A    
C27   C29   A    
C41   C42   A    
C14   C18   A    
C71   H30   S    
C74   H32   S    
Cu2   O2    S    
C24   F7    S    
Cu1   Cu2   S    
C53   C59   A    
N1    N2    D    
C53   C54   A    
C40   C46   A    
C22   N3    A    
C17   C23   S    
C16   O7    A    
C1    O3    A    
C37   F3    S    
C2    H3    S    
C35   C37   A    
C43   H7    S    
C62   H22   S    
Cu2   N3    S    
C42   H6    S    
C68   H27   S    
C32   H41   S    
C11   C14   A    
C3    C80   A    
C36   F1    S    
C79   H37   S    
C33   C36   A    
C27   F8    S    
C7    C9    A    
C73   C74   A    
C6    N2    S    
C30   C45   S    
C16   C34   S    
C15   C19   A    
C33   H42   S    
Cu1   O4    S    
C66   C72   A    
C57   H18   S    
C52   H15   S    
C11   F5    S    
C68   C69   A    
C12   C78   S    
C13   F4    S    
C50   H13   S    
C65   H26   S    
C31   C33   A    
C70   C71   A    
C22   F6    S    
C80   H4    S    
C61   C62   A    
C39   C45   A    
Cu1   O1    S    
C55   H17   S    
C69   C70   A    
C25   H38   S    
Cu2   O6    S    
C44   C46   A    
Cu2   O7    S    
C77   C79   A    
C10   C78   A    
Cu1   N4    S    
C46   H9    S    
C72   H31   S    
C74   C75   A    
C34   C39   A    
C32   C35   A    
C17   O8    A    
C76   C77   A    
C4    C6    A    
C5    C7    A    
C19   N6    S    
C6    C8    A    
C24   N4    A    
C58   C59   A    
C64   H25   S    
C51   C52   A    
C16   O5    A    
C75   H33   S    
C2    C4    A    
C75   C76   A    
C9    C67   A    
C62   C63   A    
C2    C78   A    
C47   C48   A    
C12   O2    A    
N5    N6    D    
Cu1   O8    S    
C48   H10   S    
C59   H20   S    
C73   C79   A    
C50   C51   A    
C47   C52   A    
C77   H36   S    
C63   H24   S    
C40   C41   A    
C20   C22   A    
C60   C65   A    
Cu1   O5    S    
C13   C15   A    
C43   C44   A    
C61   H21   S    
C41   H5    S    
C42   C43   A    
C9    H1    S    
C35   H2    S    
C5    N1    S    
C54   C55   A    
C48   C49   A    
C19   C21   A    
C8    F2    S    
C67   C80   A    
Cu2   O3    S    
C3    C5    A    
C49   H11   S    
C20   H23   S    
C58   H19   S    
C26   C37   A    
C14   C47   S    
C29   C56   S    
C25   C27   A    
C23   C38   A    
C69   H28   S    
C26   C28   A    
C54   H16   S    
C64   C65   A    
C55   C57   A    
C17   O6    A    
C11   N3    A    
C71   C72   A    
C29   C31   A    
C13   N4    A    
C30   C32   A    
C44   H8    S    
C70   H29   S    
C57   C58   A    
C38   C53   S    
C51   H14   S    
C39   C60   S    
C10   H12   S    
C1    C67   S    
C28   C30   A    
C28   F9    S    
C18   C20   A    
C18   N5    S    
C3    C73   S    
C15   C40   S    
C1    O1    A    
C25   C36   A    
C63   C64   A    
C12   O4    A    
C38   C56   A    
C4    C66   S    
C8    C10   A    
C49   C50   A    
C21   C24   A    
C7    F10   S    
C76   H35   S    
C60   C61   A    
C21   H34   S    
C31   H40   S    
C26   H39   S    
