data_mof_unit_46172.cif
_audit_creation_date              2012-12-11T14:08:16-0500
_audit_creation_method            fapswitch 2.2
_symmetry_space_group_name_H-M    P1
_symmetry_Int_Tables_number       1
_space_group_crystal_system       triclinic
_cell_length_a                    10.931534
_cell_length_b                    11.024538
_cell_length_c                    18.652036
_cell_angle_alpha                 89.79362
_cell_angle_beta                  89.392532
_cell_angle_gamma                 59.816994
_cell_volume                      1942.98421298

loop_
_atom_site_label
_atom_site_type_symbol
_atom_type_description
_atom_site_fract_x
_atom_site_fract_y
_atom_site_fract_z
_atom_type_partial_charge
C1    C     C_R   0.236047 0.645669 0.608603 0.559133
C2    C     C_3   0.731419 0.503767 0.807817 -0.196056
C3    C     C_3   0.687535 0.660442 0.817873 -0.019301
C4    C     C_3   0.656153 0.612854 0.684224 -0.002644
C5    C     C_3   0.749135 0.683076 0.687190 0.158755
C6    C     C_3   0.737607 0.469017 0.727547 0.093998
C7    C     C_2   0.660428 0.171552 0.673904 -0.054307
C8    C     C_2   0.693532 0.164483 0.828365 -0.106557
C9    C     C_2   0.801692 0.096494 0.781612 -0.095929
C10   C     C_2   0.784965 0.127883 0.704621 -0.076170
C11   C     C_2   0.179832 0.662755 0.681215 -0.076239
C12   C     C_R   0.629349 0.587020 0.609925 0.543603
C13   C     C_2   0.194911 0.663216 0.839199 -0.134560
C14   C     C_2   0.193036 0.562380 0.800152 -0.165840
C15   C     C_2   0.224074 0.549315 0.723303 -0.156925
C16   C     C_2   0.651195 0.644980 0.316977 -0.057452
C17   C     C_2   0.631611 0.664087 0.159443 -0.089223
C18   C     C_2   0.696550 0.542774 0.195898 0.084847
C19   C     C_2   0.668910 0.541449 0.272388 -0.139165
C20   C     C_2   0.674341 0.138776 0.333241 -0.056194
C21   C     C_2   0.649523 0.145159 0.179175 -0.099385
C22   C     C_2   0.620897 0.064627 0.222524 -0.087392
C23   C     C_R   0.626332 0.229521 0.602302 0.569426
C24   C     C_2   0.601665 0.088174 0.299285 0.095467
C25   C     C_2   0.174993 0.668906 0.329592 0.232136
C26   C     C_2   0.191880 0.638112 0.169577 -0.051545
C27   C     C_2   0.234645 0.709917 0.208117 -0.164420
C28   C     C_2   0.266481 0.674673 0.282263 -0.168610
C29   C     C_R   0.702908 0.103523 0.898324 0.546224
C30   C     C_R   0.717616 0.683872 0.891478 0.529402
C31   C     C_R   0.118952 0.706682 0.907416 0.535465
C32   C     C_R   0.674555 0.106095 0.104815 0.569064
C33   C     C_R   0.691699 0.688036 0.094626 0.576039
C34   C     C_R   0.220714 0.650425 0.402232 0.586363
C35   C     C_R   0.102001 0.703877 0.109201 0.592051
C36   C     C_R   0.642645 0.622139 0.392955 0.611896
C37   C     C_R   0.621625 0.222460 0.397552 0.567724
C38   C     C_3   0.529802 0.749027 0.798585 -0.250730
C39   C     C_3   0.509795 0.708350 0.722536 -0.263328
C40   C     C_3   0.772772 0.704181 0.766702 -0.187322
Cr1   Cr    Cr6+3 0.393010 0.398050 0.501480 1.093640
Cr2   Cr    Cr6+3 0.398820 0.707980 0.501630 1.087624
Cr3   Cr    Cr6+3 0.708140 0.393940 0.496850 1.123408
Cr4   Cr    Cr6+3 0.937950 0.938450 0.008940 1.069082
Cr5   Cr    Cr6+3 0.626180 0.937030 0.994750 1.040158
Cr6   Cr    Cr6+3 0.937790 0.625760 0.001410 1.073756
H1    H     H_    0.494682 0.862870 0.800330 0.191587
H2    H     H_    0.887467 0.641795 0.778852 0.162538
H3    H     H_    0.852425 0.611960 0.661793 0.222655
H4    H     H_    0.903462 0.011656 0.799398 0.165033
H5    H     H_    0.876134 0.108335 0.672441 0.221952
H6    H     H_    0.591251 0.249607 0.811599 0.077499
H7    H     H_    0.574228 0.173651 0.704428 0.145349
H8    H     H_    0.161280 0.491993 0.823639 0.189590
H9    H     H_    0.284122 0.443921 0.701304 0.155593
H10   H     H_    0.232335 0.729164 0.815689 0.108432
H11   H     H_    0.463331 0.730397 0.837626 0.118569
H12   H     H_    0.118957 0.768069 0.703308 0.128094
H13   H     H_    0.678594 0.445178 0.293910 0.141560
H14   H     H_    0.543258 0.756098 0.184167 0.077067
H15   H     H_    0.643933 0.741362 0.297886 0.150479
H16   H     H_    0.605843 0.981706 0.200697 0.171139
H17   H     H_    0.663961 0.229358 0.198941 0.097027
H18   H     H_    0.762934 0.139525 0.306643 0.085868
H19   H     H_    0.229923 0.805202 0.188672 0.164477
H20   H     H_    0.450921 0.650442 0.726169 0.085696
H21   H     H_    0.365382 0.664801 0.300317 0.115623
H22   H     H_    0.204466 0.539454 0.189197 0.163946
H23   H     H_    0.442092 0.805741 0.691905 0.210400
H24   H     H_    0.740959 0.815680 0.777171 0.170057
H25   H     H_    0.833754 0.432848 0.834023 0.220094
H26   H     H_    0.653025 0.482902 0.835466 0.080601
H27   H     H_    0.678692 0.412218 0.720297 0.084552
O1    O     O_R   0.507110 0.256280 0.580300 -0.509460
O2    O     O_R   0.524640 0.695370 0.425100 -0.480972
O3    O     O_R   0.735890 0.504390 0.415980 -0.467575
O4    O     O_R   0.690560 0.277820 0.422350 -0.512210
O5    O     O_3   0.499990 0.499990 0.499980 -0.327452
O6    O     O_R   0.089190 0.825870 0.932320 -0.515469
O7    O     O_R   0.819070 0.053960 0.931440 -0.490954
O8    O     O_R   0.607070 0.076440 0.916460 -0.507832
O9    O     O_R   0.647110 0.806550 0.917690 -0.505695
O10   O     O_R   0.837080 0.593860 0.915300 -0.520486
O11   O     O_R   0.064770 0.636080 0.932550 -0.505184
O12   O     O_R   0.280830 0.527190 0.577940 -0.494279
O13   O     O_R   0.068250 0.829200 0.092940 -0.502233
O14   O     O_R   0.799650 0.057040 0.080330 -0.463076
O15   O     O_R   0.586130 0.079760 0.077080 -0.514953
O16   O     O_R   0.627700 0.809630 0.066580 -0.511721
O17   O     O_R   0.816140 0.597180 0.075920 -0.451651
O18   O     O_R   0.045360 0.639170 0.081440 -0.475129
O19   O     O_3   0.833980 0.833750 0.001700 -0.264544
O20   O     O_R   0.261360 0.738990 0.584270 -0.512407
O21   O     O_R   0.532590 0.694780 0.574370 -0.455146
O22   O     O_R   0.744470 0.503750 0.577000 -0.428032
O23   O     O_R   0.698520 0.277230 0.571620 -0.489303
O24   O     O_R   0.498530 0.256920 0.419280 -0.464786
O25   O     O_R   0.272880 0.527780 0.428680 -0.476874
O26   O     O_R   0.252780 0.739630 0.423250 -0.520736
S1    S     S_3+6 0.924504 0.343513 0.704797 -0.043307
O27   O     O_2   0.977971 0.223113 0.756540 -0.327016
O28   O     O_2   0.942991 0.284814 0.630415 -0.250983
O29   O     O_3   0.030548 0.411793 0.713775 -0.575383
H28   H     H_    0.127340 0.332643 0.704240 0.375201
I1    I     I_    0.852205 0.344459 0.152898 -0.316646
I2    I     I_    0.449649 0.044644 0.347385 -0.254366
S2    S     S_3+6 0.002433 0.700461 0.311003 0.016989
O30   O     O_2   0.012577 0.568073 0.282965 -0.239981
O31   O     O_2   0.914372 0.743525 0.378580 -0.247997
O32   O     O_3   0.923026 0.827750 0.249536 -0.523729
H29   H     H_    0.943343 0.901932 0.264376 0.334425
S3    S     S_3+6 0.692363 0.840378 0.635843 -0.005690
O33   O     O_2   0.804231 0.879954 0.643592 -0.308802
O34   O     O_2   0.682816 0.815342 0.557458 -0.215015
O35   O     O_3   0.536030 0.970537 0.666667 -0.572213
H30   H     H_    0.477941 0.013660 0.623551 0.377228

loop_
_geom_bond_atom_site_label_1
_geom_bond_atom_site_label_2
_ccdc_geom_bond_type
C7    C10   D    
C30   O9    A    
Cr2   O20   S    
Cr5   O9    S    
C1    C11   S    
C5    H3    S    
S3    O34   D    
C25   C28   D    
Cr2   O2    S    
C40   H24   S    
C8    C29   S    
C38   C39   S    
C35   O13   A    
C2    H26   S    
Cr6   O19   S    
O35   H30   S    
C32   O15   A    
C23   O23   A    
C17   C18   D    
C18   C19   S    
C30   O10   A    
Cr5   O19   S    
O32   H29   S    
C36   O3    A    
C34   O25   A    
Cr1   O1    S    
C11   C15   D    
C20   C24   D    
C3    C38   S    
C8    C9    D    
Cr3   O22   S    
S2    O30   D    
C12   O22   A    
C4    C12   S    
Cr4   O14   S    
Cr5   O16   S    
C9    C10   S    
C8    H6    S    
Cr4   O19   S    
C25   C34   S    
C13   H10   S    
C13   C14   D    
S2    O31   D    
C12   O21   A    
C2    C6    S    
C17   C33   S    
Cr4   O13   S    
C10   H5    S    
C37   O24   A    
S3    O33   D    
Cr3   O23   S    
C1    O12   A    
C21   C32   S    
Cr4   O7    S    
Cr5   O15   S    
C4    C6    S    
Cr1   O5    S    
Cr6   O18   S    
C19   H13   S    
C32   O14   A    
C37   O4    A    
S1    O29   S    
C31   O11   A    
Cr3   O5    S    
C15   H9    S    
C20   H18   S    
C3    C30   S    
C29   O8    A    
C27   H19   S    
C36   O2    A    
C33   O16   A    
C22   H16   S    
C38   H11   S    
C14   C15   S    
C4    C39   S    
C28   H21   S    
S1    O28   D    
C34   O26   A    
C39   H23   S    
C38   H1    S    
Cr6   O11   S    
C14   H8    S    
C3    C40   S    
Cr2   O5    S    
C26   C27   D    
S2    O32   S    
C22   C24   S    
C24   I2    S    
C16   H15   S    
C7    H7    S    
C23   O1    A    
C2    H25   S    
C11   H12   S    
C27   C28   S    
C25   S2    S    
C6    H27   S    
Cr3   O3    S    
C40   H2    S    
Cr2   O21   S    
C33   O17   A    
C13   C31   S    
Cr4   O6    S    
Cr5   O8    S    
C9    H4    S    
C4    C5    S    
C31   O6    A    
Cr6   O17   S    
C5    S3    S    
Cr3   O4    S    
Cr1   O12   S    
C26   H22   S    
C2    C3    S    
C18   I1    S    
Cr2   O26   S    
C16   C36   S    
C20   C37   S    
C29   O7    A    
C16   C19   D    
C7    C23   S    
S1    O27   D    
C39   H20   S    
Cr1   O24   S    
C21   H17   S    
C17   H14   S    
Cr6   O10   S    
C26   C35   S    
C1    O20   A    
C5    C40   S    
O29   H28   S    
Cr1   O25   S    
C21   C22   D    
S3    O35   S    
C6    S1    S    
C35   O18   A    
