data_mof_unit_32822.cif
_audit_creation_date              2012-10-26T19:07:59-0400
_audit_creation_method            fapswitch 2.2
_symmetry_space_group_name_H-M    P1
_symmetry_Int_Tables_number       1
_space_group_crystal_system       triclinic
_cell_length_a                    15.081055
_cell_length_b                    13.695414
_cell_length_c                    19.363974
_cell_angle_alpha                 90.062998
_cell_angle_beta                  89.959418
_cell_angle_gamma                 89.876499
_cell_volume                      3999.44748539

loop_
_atom_site_label
_atom_site_type_symbol
_atom_type_description
_atom_site_fract_x
_atom_site_fract_y
_atom_site_fract_z
_atom_type_partial_charge
C1    C     C_R   0.328473 0.500080 0.500254 0.554738
C2    C     C_R   0.092729 0.589167 0.494343 0.012258
C3    C     C_R   0.953392 0.677099 0.487474 -0.133530
C4    C     C_R   0.046588 0.323187 0.513890 -0.132799
C5    C     C_R   0.045847 0.677161 0.487756 -0.133070
C6    C     C_R   0.954136 0.323173 0.513865 -0.135181
C7    C     C_R   0.442310 0.792897 0.541192 0.030147
C8    C     C_R   0.558691 0.207097 0.459660 0.030249
C9    C     C_R   0.556951 0.792455 0.458213 0.031552
C10   C     C_R   0.440696 0.207510 0.539726 0.031989
C11   C     C_R   0.557692 0.895992 0.455272 -0.016313
C12   C     C_R   0.671534 0.499952 0.500059 0.554852
C13   C     C_R   0.436707 0.103985 0.539800 -0.015924
C14   C     C_R   0.439999 0.896524 0.542905 -0.013342
C15   C     C_R   0.561261 0.103455 0.458159 -0.013536
C16   C     C_R   0.498832 0.948274 0.499022 0.008705
C17   C     C_R   0.498905 0.051700 0.498962 0.008595
C18   C     C_R   0.616314 0.947545 0.410592 0.021755
C19   C     C_R   0.373117 0.052456 0.580128 0.021929
C20   C     C_R   0.379696 0.948646 0.586308 0.022410
C21   C     C_R   0.623409 0.051323 0.416361 0.023771
C22   C     C_R   0.500246 0.499961 0.367340 0.550560
C23   C     C_R   0.814550 0.588350 0.493838 -0.136410
C24   C     C_R   0.499799 0.500021 0.632659 0.550208
C25   C     C_R   0.503289 0.588329 0.254876 -0.134912
C26   C     C_R   0.492918 0.411769 0.745077 -0.134849
C27   C     C_R   0.505106 0.588153 0.745268 -0.135207
C28   C     C_R   0.498467 0.411463 0.254764 -0.135063
C29   C     C_R   0.503292 0.588316 0.182928 -0.120559
C30   C     C_R   0.492583 0.411746 0.817030 -0.120658
C31   C     C_R   0.504685 0.588185 0.817203 -0.121228
C32   C     C_R   0.498384 0.411445 0.182813 -0.120536
C33   C     C_R   0.500656 0.499878 0.146163 0.034293
C34   C     C_R   0.185461 0.411830 0.507165 -0.136410
C35   C     C_R   0.498581 0.499957 0.853826 0.034384
C36   C     C_R   0.500683 0.499907 0.291412 0.013679
C37   C     C_R   0.499272 0.499988 0.708583 0.014629
C38   C     C_R   0.498877 0.499932 0.929943 0.345322
C39   C     C_R   0.500108 0.499885 0.070044 0.345445
C40   C     C_R   0.814933 0.411822 0.507139 -0.137880
C41   C     C_R   0.185117 0.588582 0.494514 -0.138516
C42   C     C_R   0.768384 0.500005 0.500282 -0.011424
C43   C     C_R   0.231637 0.500191 0.500669 -0.012100
C44   C     C_3   0.667272 0.892149 0.354673 -0.275135
C45   C     C_R   0.906918 0.589052 0.493918 0.012913
C46   C     C_3   0.758003 0.857893 0.380239 -0.441358
C47   C     C_3   0.295726 0.107873 0.612827 -0.278804
C48   C     C_3   0.317416 0.142204 0.686010 -0.436376
C49   C     C_3   0.325794 0.893431 0.640794 -0.280282
C50   C     C_3   0.385019 0.857945 0.699841 -0.437654
C51   C     C_3   0.699217 0.106478 0.381068 -0.276213
C52   C     C_3   0.767708 0.141201 0.433862 -0.445029
C53   C     C_R   0.093091 0.411209 0.507320 0.013156
C54   C     C_R   0.953541 0.500124 0.500586 0.062367
C55   C     C_R   0.046487 0.500166 0.500745 0.062218
C56   C     C_R   0.907296 0.411169 0.507197 0.012585
Cu1   Cu    Cu3+1 0.500000 0.597420 0.500000 0.927211
Cu2   Cu    Cu3+1 0.500000 0.402580 0.500000 0.927631
H1    H     H_    0.505312 0.657656 0.281807 0.125139
H2    H     H_    0.220674 0.656955 0.489506 0.124374
H3    H     H_    0.778709 0.656614 0.488710 0.119523
H4    H     H_    0.221272 0.343463 0.512262 0.119554
H5    H     H_    0.918246 0.745806 0.482253 0.105303
H6    H     H_    0.081718 0.254464 0.519054 0.103953
H7    H     H_    0.080681 0.745925 0.482774 0.106314
H8    H     H_    0.919287 0.254447 0.519030 0.106051
H9    H     H_    0.398236 0.749284 0.572174 0.133716
H10   H     H_    0.602868 0.250698 0.428760 0.134050
H11   H     H_    0.602425 0.748598 0.428409 0.132452
H12   H     H_    0.488115 0.342653 0.718107 0.123767
H13   H     H_    0.397994 0.251291 0.571976 0.131781
H14   H     H_    0.801072 0.921011 0.392615 0.151578
H15   H     H_    0.750959 0.812304 0.427222 0.138649
H16   H     H_    0.790859 0.813680 0.339470 0.143136
H17   H     H_    0.628839 0.828652 0.335644 0.123871
H18   H     H_    0.674137 0.935937 0.306907 0.136287
H19   H     H_    0.330215 0.079138 0.720465 0.155909
H20   H     H_    0.376801 0.189929 0.685985 0.142857
H21   H     H_    0.260503 0.184326 0.707065 0.142467
H22   H     H_    0.275996 0.171380 0.580793 0.119500
H23   H     H_    0.510498 0.657167 0.718447 0.123867
H24   H     H_    0.234092 0.064001 0.612479 0.131878
H25   H     H_    0.438984 0.809811 0.681017 0.146077
H26   H     H_    0.415272 0.921323 0.726705 0.155903
H27   H     H_    0.344631 0.816370 0.737656 0.142076
H28   H     H_    0.273215 0.937374 0.665356 0.147965
H29   H     H_    0.289537 0.831600 0.616957 0.121813
H30   H     H_    0.736819 0.186065 0.474986 0.146071
H31   H     H_    0.800453 0.077434 0.458468 0.149962
H32   H     H_    0.819086 0.185732 0.407590 0.139545
H33   H     H_    0.736487 0.062832 0.342994 0.148404
H34   H     H_    0.496606 0.342154 0.281612 0.128057
H35   H     H_    0.673149 0.168666 0.350508 0.123649
H36   H     H_    0.505188 0.657703 0.156227 0.135172
H37   H     H_    0.487660 0.342526 0.843707 0.134987
H38   H     H_    0.509464 0.657406 0.843998 0.135010
H39   H     H_    0.496479 0.342049 0.156019 0.135727
H40   H     H_    0.779362 0.343756 0.512904 0.121496
N1    N     N_R   0.495712 0.414761 0.034273 -0.233503
N2    N     N_R   0.503259 0.585054 0.965715 -0.233952
N3    N     N_R   0.495110 0.414783 0.965599 -0.233612
N4    N     N_R   0.503830 0.585033 0.034387 -0.233757
N5    N     N_R   0.500000 0.743810 0.500000 -0.247486
N6    N     N_R   0.500000 0.256190 0.500000 -0.247419
O1    O     O_R   0.370260 0.582280 0.500020 -0.508813
O2    O     O_R   0.629740 0.417720 0.499980 -0.509227
O3    O     O_R   0.629740 0.582280 0.499980 -0.508312
O4    O     O_R   0.370260 0.417720 0.500020 -0.508585
O5    O     O_R   0.499990 0.582300 0.400140 -0.505976
O6    O     O_R   0.500010 0.417700 0.599860 -0.505700
O7    O     O_R   0.500010 0.582300 0.599860 -0.505922
O8    O     O_R   0.499990 0.417700 0.400140 -0.504881

loop_
_geom_bond_atom_site_label_1
_geom_bond_atom_site_label_2
_ccdc_geom_bond_type
Cu1   O1    S    
C11   C18   A    
C23   C45   A    
C4    C53   A    
C18   C21   A    
C49   H29   S    
C52   H32   S    
C19   C20   A    
C21   C51   S    
C50   H26   S    
C6    H8    S    
C20   C49   S    
C23   C42   A    
C30   C35   A    
Cu2   O8    S    
C48   H21   S    
C9    H11   S    
C38   N3    A    
C2    C55   A    
C40   H40   S    
C29   H36   S    
C19   C47   S    
C2    C41   A    
C31   H38   S    
C29   C33   A    
C34   H4    S    
C32   H39   S    
C47   H24   S    
C48   H20   S    
C44   H18   S    
C12   C42   S    
C50   H27   S    
C51   H33   S    
C1    C43   S    
C7    C14   A    
Cu1   O5    S    
C16   C17   A    
C40   C56   A    
C14   C16   A    
C46   H14   S    
C10   H13   S    
C40   C42   A    
C7    N5    A    
C41   C43   A    
C52   H31   S    
C24   O7    A    
C47   H22   S    
C44   C46   S    
C50   H25   S    
C53   C55   A    
C25   C29   A    
Cu1   N5    S    
C54   C56   A    
C13   C19   A    
C27   C31   A    
C51   C52   S    
C14   C20   A    
C28   C32   A    
C35   C38   S    
C24   O6    A    
C5    H7    S    
C27   H23   S    
C1    O4    A    
C3    C45   A    
Cu2   O2    S    
C48   H19   S    
C44   H17   S    
C30   H37   S    
C18   C44   S    
C9    C11   A    
C11   C16   A    
C39   N1    A    
C47   C48   S    
C52   H30   S    
C9    N5    A    
C22   O5    A    
N2    N4    A    
C24   C37   S    
C28   H34   S    
C33   C39   S    
C8    N6    A    
C51   H35   S    
C4    C6    A    
Cu1   O3    S    
C45   C54   A    
C26   C30   A    
C8    C15   A    
C22   O8    A    
C26   H12   S    
C31   C35   A    
C2    C5    A    
Cu2   N6    S    
C46   H16   S    
C39   N4    A    
C15   C17   A    
C54   C55   A    
N1    N3    A    
Cu2   O6    S    
C49   H28   S    
C34   C43   A    
C41   H2    S    
C6    C56   A    
C3    C5    A    
C10   C13   A    
C12   O3    A    
C26   C37   A    
C8    H10   S    
C3    H5    S    
C22   C36   S    
C4    H6    S    
C13   C17   A    
C32   C33   A    
C10   N6    A    
C12   O2    A    
C38   N2    A    
Cu1   Cu2   S    
Cu1   O7    S    
C15   C21   A    
C27   C37   A    
Cu2   O4    S    
C25   C36   A    
C7    H9    S    
C23   H3    S    
C28   C36   A    
C34   C53   A    
C49   C50   S    
C25   H1    S    
C46   H15   S    
C1    O1    A    
