data_mof_unit_56006.cif
_audit_creation_date              2012-12-10T17:41:04-0500
_audit_creation_method            fapswitch 2.2
_symmetry_space_group_name_H-M    P1
_symmetry_Int_Tables_number       1
_space_group_crystal_system       triclinic
_cell_length_a                    14.941165
_cell_length_b                    15.176244
_cell_length_c                    9.93663
_cell_angle_alpha                 90.455176
_cell_angle_beta                  89.989825
_cell_angle_gamma                 90.000416
_cell_volume                      2253.06732535

loop_
_atom_site_label
_atom_site_type_symbol
_atom_type_description
_atom_site_fract_x
_atom_site_fract_y
_atom_site_fract_z
_atom_type_partial_charge
C1    C     C_R   0.382549 0.878166 0.499574 0.855602
C2    C     C_R   0.680988 0.254491 0.578670 -0.202724
C3    C     C_R   0.180899 0.245394 0.421560 -0.202674
C4    C     C_R   0.180784 0.754690 0.578245 -0.202585
C5    C     C_R   0.693409 0.821607 0.498042 -0.099276
C6    C     C_R   0.693350 0.178453 0.501861 -0.099152
C7    C     C_R   0.193336 0.321532 0.498070 -0.099092
C8    C     C_R   0.193289 0.678515 0.501831 -0.099002
C9    C     C_R   0.336407 0.999522 0.139728 -0.143868
C10   C     C_R   0.836407 0.499516 0.139727 -0.144009
C11   C     C_R   0.255823 0.999758 0.069735 -0.193555
C12   C     C_R   0.382549 0.121836 0.500498 0.855577
C13   C     C_R   0.755823 0.499752 0.069736 -0.193573
C14   C     C_R   0.255801 0.000246 0.930483 -0.193433
C15   C     C_R   0.755801 0.500243 0.930483 -0.193431
C16   C     C_R   0.336364 0.000480 0.860399 -0.143856
C17   C     C_R   0.836364 0.500480 0.860400 -0.143979
C18   C     C_R   0.419407 0.000124 0.927809 0.168390
C19   C     C_R   0.919408 0.500123 0.927809 0.168415
C20   C     C_R   0.419439 0.999878 0.072234 0.168406
C21   C     C_R   0.919440 0.499875 0.072234 0.168444
C22   C     C_R   0.577067 0.000033 0.071400 -0.107512
C23   C     C_R   0.882566 0.378149 0.499570 0.855666
C24   C     C_R   0.077068 0.500036 0.071401 -0.107535
C25   C     C_R   0.621868 0.117494 0.500391 0.843387
C26   C     C_R   0.621890 0.882530 0.499540 0.843387
C27   C     C_R   0.121837 0.617525 0.500387 0.843405
C28   C     C_R   0.121857 0.382496 0.499544 0.843388
C29   C     C_R   0.577030 0.999964 0.928439 -0.107315
C30   C     C_R   0.077031 0.499967 0.928439 -0.107344
C31   C     C_R   0.418237 0.286124 0.645349 -0.182101
C32   C     C_R   0.418359 0.713825 0.354969 -0.181935
C33   C     C_R   0.918010 0.785928 0.646270 -0.182249
C34   C     C_R   0.882578 0.621864 0.500504 0.855655
C35   C     C_R   0.918175 0.213988 0.354251 -0.182082
C36   C     C_R   0.433383 0.365914 0.712070 -0.145598
C37   C     C_R   0.433554 0.634014 0.288323 -0.145562
C38   C     C_R   0.933036 0.865615 0.713383 -0.145604
C39   C     C_R   0.933276 0.134266 0.287283 -0.145583
C40   C     C_R   0.868941 0.931995 0.709182 -0.128054
C41   C     C_R   0.869149 0.067912 0.291358 -0.128011
C42   C     C_R   0.369249 0.432258 0.707968 -0.127808
C43   C     C_R   0.369394 0.567681 0.292357 -0.127778
C44   C     C_R   0.789387 0.918656 0.638641 -0.189737
C45   C     C_R   0.244501 0.180890 0.423248 -0.214888
C46   C     C_R   0.789490 0.081311 0.361635 -0.189841
C47   C     C_R   0.289548 0.418790 0.637901 -0.189970
C48   C     C_R   0.289615 0.581190 0.362254 -0.190034
C49   C     C_R   0.772521 0.837625 0.571695 0.093470
C50   C     C_R   0.772558 0.162373 0.428451 0.093366
C51   C     C_R   0.272581 0.337672 0.571304 0.093326
C52   C     C_R   0.272605 0.662331 0.428763 0.093240
C53   C     C_R   0.337732 0.271139 0.573954 0.102983
C54   C     C_R   0.337783 0.728843 0.426207 0.102981
C55   C     C_R   0.837653 0.771070 0.574399 0.102941
C56   C     C_R   0.244420 0.819167 0.576672 -0.214980
C57   C     C_R   0.837718 0.228903 0.425862 0.102977
C58   C     C_R   0.320935 0.192543 0.501061 -0.094233
C59   C     C_R   0.320939 0.807458 0.499040 -0.094156
C60   C     C_R   0.820990 0.692599 0.501074 -0.094420
C61   C     C_R   0.820979 0.307416 0.499026 -0.094306
C62   C     C_R   0.744728 0.681116 0.422784 -0.214780
C63   C     C_R   0.744603 0.318980 0.577059 -0.214898
C64   C     C_R   0.681146 0.745629 0.421061 -0.202860
H1    H     H_    0.470477 0.237250 0.648903 0.152908
H2    H     H_    0.692994 0.499580 0.124088 0.142075
H3    H     H_    0.233174 0.120756 0.366027 0.141163
H4    H     H_    0.233053 0.879326 0.633814 0.141108
H5    H     H_    0.733509 0.621095 0.365214 0.141357
H6    H     H_    0.733322 0.379043 0.634495 0.141258
H7    H     H_    0.192957 0.000416 0.876205 0.142113
H8    H     H_    0.692957 0.500414 0.876205 0.142088
H9    H     H_    0.330682 0.000981 0.753782 0.199884
H10   H     H_    0.830683 0.500985 0.753782 0.199902
H11   H     H_    0.640073 0.999919 0.874854 0.146616
H12   H     H_    0.470618 0.762691 0.351506 0.152782
H13   H     H_    0.140076 0.499924 0.874854 0.146694
H14   H     H_    0.881177 0.994278 0.759775 0.137458
H15   H     H_    0.881435 0.005602 0.240873 0.137475
H16   H     H_    0.381565 0.494614 0.758269 0.137578
H17   H     H_    0.381746 0.505307 0.242134 0.137594
H18   H     H_    0.742599 0.972897 0.635007 0.143386
H19   H     H_    0.742668 0.027093 0.365167 0.143337
H20   H     H_    0.242712 0.472992 0.634364 0.143316
H21   H     H_    0.242751 0.527003 0.365734 0.143280
H22   H     H_    0.621318 0.735225 0.361816 0.144505
H23   H     H_    0.970245 0.737047 0.649914 0.153193
H24   H     H_    0.621068 0.264951 0.637705 0.144406
H25   H     H_    0.120929 0.234864 0.362719 0.144310
H26   H     H_    0.120742 0.765260 0.636927 0.144259
H27   H     H_    0.640134 0.000076 0.124889 0.146601
H28   H     H_    0.140136 0.500083 0.124890 0.146677
H29   H     H_    0.330735 0.999017 0.246340 0.199978
H30   H     H_    0.830736 0.499011 0.246339 0.199993
H31   H     H_    0.970421 0.262859 0.350714 0.153013
H32   H     H_    0.495496 0.376617 0.765846 0.130113
H33   H     H_    0.495725 0.623282 0.234670 0.130058
H34   H     H_    0.995039 0.876219 0.767523 0.130190
H35   H     H_    0.995357 0.123615 0.233346 0.130135
H36   H     H_    0.192994 0.999589 0.124088 0.142092
N1    N     N_R   0.498810 0.000000 0.142780 -0.122846
N2    N     N_R   0.998810 0.500000 0.142780 -0.122863
N3    N     N_R   0.498740 0.000000 0.857170 -0.122835
N4    N     N_R   0.998740 0.500000 0.857170 -0.122857
O1    O     O_R   0.408390 0.908380 0.614690 -0.625937
O2    O     O_R   0.591620 0.908390 0.614640 -0.610864
O3    O     O_R   0.091620 0.591610 0.614640 -0.629095
O4    O     O_R   0.091620 0.408390 0.614640 -0.610819
O5    O     O_R   0.591610 0.091610 0.385310 -0.610823
O6    O     O_R   0.591610 0.908390 0.385310 -0.629068
O7    O     O_R   0.091610 0.591610 0.385310 -0.610798
O8    O     O_R   0.091610 0.408390 0.385310 -0.629030
O9    O     O_R   0.408390 0.091620 0.614690 -0.643630
O10   O     O_R   0.908390 0.408380 0.614690 -0.625950
O11   O     O_R   0.908390 0.591620 0.614690 -0.643760
O12   O     O_R   0.408370 0.908380 0.385360 -0.643630
O13   O     O_R   0.408370 0.091620 0.385360 -0.626011
O14   O     O_R   0.908370 0.408380 0.385360 -0.643726
O15   O     O_R   0.908370 0.591620 0.385360 -0.626039
O16   O     O_R   0.591620 0.091610 0.614640 -0.629110
Zn1   Zn    Zn3+2 0.500010 0.000000 0.653130 0.931777
Zn2   Zn    Zn3+2 0.000010 0.500000 0.653130 0.931740
Zn3   Zn    Zn3+2 0.499980 1.000000 0.346870 0.931837
Zn4   Zn    Zn3+2 0.999980 0.500000 0.346870 0.931812

loop_
_geom_bond_atom_site_label_1
_geom_bond_atom_site_label_2
_ccdc_geom_bond_type
C44   C49   A    
C33   C55   A    
C42   H16   S    
O12   Zn3   S    
C5    C26   S    
C14   H7    S    
C36   C42   A    
C4    C8    A    
C26   O2    A    
C23   O14   A    
C37   H33   S    
C39   C41   A    
C22   C29   A    
O15   Zn4   S    
C28   O8    A    
C15   H8    S    
N1    Zn3   S    
C22   N1    A    
C19   C21   A    
O8    Zn4   S    
C3    C7    A    
C1    C59   S    
C11   C14   A    
C6    C25   S    
N4    Zn2   S    
C10   H30   S    
C29   N3    A    
C60   C62   A    
C64   H22   S    
C61   C63   A    
C62   C64   A    
C30   H13   S    
C45   H3    S    
C22   H27   S    
C2    H24   S    
C1    O12   A    
C43   C48   A    
C8    C52   A    
C40   C44   A    
C24   N2    A    
C25   O5    A    
C13   H2    S    
C12   C58   S    
C27   O7    A    
O11   Zn2   S    
C55   C60   A    
C4    C56   A    
C34   C60   S    
C5    C49   A    
C2    C6    A    
N2    Zn4   S    
C24   H28   S    
C32   C54   A    
C52   C54   A    
C4    H26   S    
C54   C59   A    
C10   C21   A    
C45   C58   A    
C32   C37   A    
O1    Zn1   S    
C16   H9    S    
O5    Zn3   S    
C47   C51   A    
C20   N1    A    
C34   O11   A    
C49   C55   A    
C3    C45   A    
C6    C50   A    
C7    C28   S    
C46   H19   S    
C5    C64   A    
C11   H36   S    
C51   C53   A    
C37   C43   A    
C35   C39   A    
C32   H12   S    
O6    Zn3   S    
C19   N4    A    
C36   H32   S    
C9    C20   A    
C39   H35   S    
C63   H6    S    
C27   O3    A    
C41   C46   A    
C38   H34   S    
O14   Zn4   S    
C47   H20   S    
C31   C53   A    
C57   C61   A    
C9    C11   A    
C21   N2    A    
C40   H14   S    
C13   C15   A    
C17   H10   S    
C43   H17   S    
C14   C16   A    
N3    Zn1   S    
C25   O16   A    
C9    H29   S    
O16   Zn1   S    
C12   O9    A    
C23   C61   S    
C34   O15   A    
C31   H1    S    
C26   O6    A    
C2    C63   A    
O7    Zn4   S    
C31   C36   A    
C50   C57   A    
O4    Zn2   S    
C10   C13   A    
C41   H15   S    
C53   C58   A    
C15   C17   A    
C29   H11   S    
C35   H31   S    
C46   C50   A    
C44   H18   S    
C33   C38   A    
C56   C59   A    
C3    H25   S    
C35   C57   A    
O13   Zn3   S    
C7    C51   A    
C56   H4    S    
C23   O10   A    
C38   C40   A    
C18   N3    A    
C28   O4    A    
O2    Zn1   S    
C17   C19   A    
C18   C20   A    
C42   C47   A    
C33   H23   S    
C24   C30   A    
C12   O13   A    
O10   Zn2   S    
C48   C52   A    
O9    Zn1   S    
C62   H5    S    
C16   C18   A    
C30   N4    A    
C8    C27   S    
C48   H21   S    
O3    Zn2   S    
C1    O1    A    
