data_mof_unit_38627.cif
_audit_creation_date              2012-12-11T16:57:11-0500
_audit_creation_method            fapswitch 2.2
_symmetry_space_group_name_H-M    P1
_symmetry_Int_Tables_number       1
_space_group_crystal_system       triclinic
_cell_length_a                    14.510962
_cell_length_b                    16.201762
_cell_length_c                    6.932352
_cell_angle_alpha                 89.848774
_cell_angle_beta                  98.676253
_cell_angle_gamma                 90.113511
_cell_volume                      1611.1593033

loop_
_atom_site_label
_atom_site_type_symbol
_atom_type_description
_atom_site_fract_x
_atom_site_fract_y
_atom_site_fract_z
_atom_type_partial_charge
O1    O     O_R   0.584990 0.413650 0.534420 -0.548440
O2    O     O_R   0.584990 0.586350 0.534420 -0.545992
O3    O     O_R   0.596190 0.585230 0.208380 -0.531036
O4    O     O_R   0.596190 0.414770 0.208380 -0.530031
O5    O     O_R   0.415010 0.586420 0.976930 -0.534175
O6    O     O_R   0.415010 0.413580 0.976930 -0.530600
C1    C     C_R   0.618643 0.614504 0.383997 0.799030
C2    C     C_R   0.618540 0.385421 0.384251 0.797436
O7    O     O_3   0.440560 0.500000 0.319140 -0.359436
V1    V     V_3+5 0.511030 0.500000 0.068070 1.635720
O8    O     O_R   0.403810 0.414840 0.643540 -0.522132
O9    O     O_R   0.403810 0.585160 0.643540 -0.520071
C3    C     C_R   0.383675 0.384386 0.807253 0.720777
C4    C     C_R   0.383200 0.614904 0.806519 0.707629
V2    V     V_3+5 0.488970 0.500000 0.560620 1.643881
O10   O     O_3   0.559440 0.500000 0.859420 -0.403276
C5    C     C_2   0.312929 0.681049 0.800012 0.441890
C6    C     C_2   0.316415 0.315015 0.803725 0.408669
C7    C     C_2   0.310977 0.733700 0.952024 0.280193
C8    C     C_2   0.315775 0.263555 0.959632 0.224580
C9    C     C_2   0.197321 0.818489 0.106338 0.098450
C10   C     C_2   0.197654 0.181157 0.105859 0.138103
C11   C     C_2   0.235397 0.796786 0.944049 0.287381
C12   C     C_2   0.245667 0.194632 0.953203 0.298669
C13   C     C_R   0.764942 0.680443 0.565521 -0.138964
C14   C     C_R   0.764823 0.319259 0.565820 -0.142033
C15   C     C_R   0.688971 0.682397 0.413704 -0.204298
C16   C     C_R   0.688700 0.317430 0.414333 -0.203778
C17   C     C_R   0.684576 0.750548 0.284355 0.678329
C18   C     C_R   0.684179 0.249474 0.285080 0.677475
C19   C     C_R   0.750123 0.815995 0.316747 -0.130260
C20   C     C_R   0.749885 0.184222 0.316862 -0.133365
H1    H     H_    0.742622 0.868485 0.218618 0.181478
H2    H     H_    0.742207 0.131909 0.218801 0.182166
C21   C     C_R   0.820617 0.816372 0.481220 -0.123110
C22   C     C_R   0.820695 0.183723 0.480785 -0.129104
C23   C     C_R   0.828851 0.745317 0.597327 -0.181428
C24   C     C_R   0.828793 0.254505 0.597235 -0.172227
C25   C     C_3   0.841971 0.734074 0.813890 0.861061
C26   C     C_3   0.841921 0.265155 0.813869 0.863207
C27   C     C_3   0.771815 0.663100 0.779402 0.780004
C28   C     C_3   0.771778 0.335986 0.779791 0.776989
O11   O     O_R   0.921430 0.915960 0.371040 -0.539271
O12   O     O_R   0.921430 0.084040 0.371040 -0.538167
O13   O     O_R   0.910450 0.087500 0.697310 -0.514492
O14   O     O_R   0.910450 0.912500 0.697310 -0.517741
O15   O     O_R   0.091710 0.087460 0.928430 -0.510109
O16   O     O_R   0.091710 0.912540 0.928430 -0.537909
C29   C     C_R   0.887833 0.114100 0.519127 0.746967
C30   C     C_R   0.887806 0.885935 0.519374 0.728183
O17   O     O_3   0.065970 0.000000 0.586140 -0.364839
V3    V     V_3+5 0.995640 0.000000 0.837400 1.660333
O18   O     O_R   0.103020 0.915700 0.261710 -0.547076
O19   O     O_R   0.103020 0.084300 0.261710 -0.549580
C31   C     C_R   0.126007 0.886042 0.099446 0.681707
C32   C     C_R   0.126867 0.113182 0.099441 0.702704
V4    V     V_3+5 0.017940 0.000000 0.344880 1.566750
O20   O     O_3   0.947330 0.000000 0.046180 -0.350414
O21   O     O_3   0.207742 0.833914 0.765725 -0.619962
H3    H     H_    0.144641 0.811708 0.717949 0.313223
O22   O     O_3   0.232678 0.142187 0.793955 -0.630226
H4    H     H_    0.280927 0.154253 0.710702 0.319114
F1    F     F_    0.809174 0.585958 0.831602 -0.635394
F2    F     F_    0.809177 0.413082 0.832379 -0.634574
O23   O     O_3   0.382536 0.731300 0.108610 -0.615827
H5    H     H_    0.381896 0.783438 0.182745 0.337501
O24   O     O_3   0.383492 0.272381 0.121864 -0.611695
H6    H     H_    0.381432 0.223398 0.207058 0.329832
O25   O     O_3   0.224804 0.775440 0.277802 -0.596837
H7    H     H_    0.187601 0.794620 0.377270 0.359768
O26   O     O_3   0.212804 0.233594 0.264554 -0.602300
H8    H     H_    0.168255 0.219387 0.354595 0.353666
F3    F     F_    0.246462 0.684959 0.639607 -0.662816
F4    F     F_    0.252346 0.305398 0.641007 -0.668127
F5    F     F_    0.612480 0.757445 0.135944 -0.640774
F6    F     F_    0.611797 0.242541 0.137325 -0.645146
F7    F     F_    0.810853 0.800940 0.909862 -0.655810
F8    F     F_    0.810793 0.197886 0.909561 -0.657021
O27   O     O_3   0.932825 0.710193 0.895304 -0.623021
H9    H     H_    0.955857 0.669340 0.807258 0.304527
O28   O     O_3   0.932781 0.289113 0.895373 -0.616268
H10   H     H_    0.955750 0.330424 0.807659 0.309884
O29   O     O_3   0.688507 0.680093 0.850623 -0.603971
H11   H     H_    0.665530 0.627036 0.895946 0.340679
O30   O     O_3   0.688522 0.318518 0.851188 -0.605047
H12   H     H_    0.664364 0.371694 0.892161 0.340216

loop_
_geom_bond_atom_site_label_1
_geom_bond_atom_site_label_2
_ccdc_geom_bond_type
O12   C29   A    
O16   C31   A    
C18   C20   A    
C12   O22   S    
C15   C17   A    
O1    C2    A    
C8    O24   S    
O2    C1    A    
O4    C2    A    
O28   H10   S    
C25   C27   S    
O30   H12   S    
C11   O21   S    
C3    C6    S    
C20   C22   A    
C10   C12   D    
C21   C23   A    
O3    C1    A    
V2    O10   S    
C27   O29   S    
O14   V3    S    
C1    C15   S    
C13   C23   A    
O8    V2    S    
C8    C12   S    
C19   H1    S    
O17   V4    S    
O7    V1    S    
C26   C28   S    
O21   H3    S    
C6    F4    S    
C5    F3    S    
C4    C5    S    
O25   H7    S    
O5    V1    S    
O18   C31   A    
O19   C32   A    
O24   H6    S    
C13   C27   S    
C9    C31   S    
O18   V4    S    
C14   C24   A    
C10   C32   S    
O13   V3    S    
O17   V3    S    
C9    O25   S    
C20   H2    S    
C7    C11   S    
C18   F6    S    
O29   H11   S    
O9    V2    S    
O13   C29   A    
O12   V4    S    
C21   C30   S    
C28   O30   S    
O2    V2    S    
O5    C4    A    
V3    O20   S    
O1    V2    S    
O9    C4    A    
C9    C11   D    
C2    C16   S    
C26   F8    S    
C27   F1    S    
O4    V1    S    
C28   F2    S    
C10   O26   S    
C14   C28   S    
C25   F7    S    
C26   O28   S    
O6    V1    S    
O11   C30   A    
O15   V3    S    
C17   F5    S    
C13   C15   A    
O14   C30   A    
C14   C16   A    
C16   C18   A    
O7    V2    S    
O26   H8    S    
C17   C19   A    
O3    V1    S    
V1    O10   S    
O6    C3    A    
C24   C26   S    
O8    C3    A    
V4    O20   S    
C19   C21   A    
C22   C24   A    
C5    C7    D    
C7    O23   S    
C6    C8    D    
O22   H4    S    
O11   V4    S    
O27   H9    S    
O16   V3    S    
C23   C25   S    
O23   H5    S    
C22   C29   S    
C25   O27   S    
O15   C32   A    
O19   V4    S    
