data_mof_unit_18009.cif
_audit_creation_date              2013-03-05T15:52:32-0500
_audit_creation_method            fapswitch 2.2
_symmetry_space_group_name_H-M    P1
_symmetry_Int_Tables_number       1
_space_group_crystal_system       triclinic
_cell_length_a                    6.968435
_cell_length_b                    20.472007
_cell_length_c                    24.443614
_cell_angle_alpha                 89.699062
_cell_angle_beta                  90.660133
_cell_angle_gamma                 89.521004
_cell_volume                      3486.67024636

loop_
_atom_site_label
_atom_site_type_symbol
_atom_site_description
_atom_site_fract_x
_atom_site_fract_y
_atom_site_fract_z
_atom_type_partial_charge
O1    O     O_R   0.507310 0.423620 0.460450 -0.589264
O2    O     O_R   0.170760 0.556060 0.437190 -0.578408
O3    O     O_R   0.004040 0.576380 0.539550 -0.591515
C1    C     C_R   0.338621 0.576240 0.421352 0.974736
O4    O     O_R   0.177350 0.422870 0.454070 -0.590297
O5    O     O_R   0.010680 0.442240 0.556560 -0.591259
C2    C     C_R   0.346129 0.399283 0.443059 0.954790
O6    O     O_R   0.500670 0.557760 0.443440 -0.564862
O7    O     O_3   0.340380 0.506510 0.533610 -0.280512
V1    V     V_3+5 0.064130 0.498790 0.493770 1.223093
O8    O     O_R   0.681170 0.443940 0.562810 -0.594556
C3    C     C_R   0.851087 0.423968 0.578593 0.970430
O9    O     O_R   0.674570 0.577130 0.545930 -0.578614
C4    C     C_R   0.843322 0.601267 0.556191 1.034977
V2    V     V_3+5 0.564560 0.501210 0.506230 1.223577
O10   O     O_3   0.838170 0.493490 0.466390 -0.265155
C5    C     C_R   0.972206 0.838376 0.910548 -0.443169
C6    C     C_R   0.854432 0.663360 0.586515 -0.282736
C7    C     C_R   0.987986 0.720221 0.906714 -0.104934
C8    C     C_R   0.007243 0.777466 0.936562 0.493062
C9    C     C_R   0.928762 0.840276 0.853240 0.451363
C10   C     C_R   0.935856 0.781352 0.821736 0.003040
C11   C     C_R   0.945504 0.720893 0.850395 -0.186517
C12   C     C_R   0.931177 0.780126 0.762791 0.090174
C13   C     C_R   0.901599 0.719873 0.734355 0.006462
C14   C     C_R   0.891050 0.662053 0.765539 -0.294114
C15   C     C_R   0.916592 0.661693 0.822225 0.392209
C16   C     C_R   0.971212 0.836222 0.731272 -0.076409
C17   C     C_R   0.962002 0.835470 0.674568 -0.184131
C18   C     C_R   0.920083 0.778215 0.646421 0.087353
C19   C     C_R   0.890466 0.719195 0.675480 0.162876
C20   C     C_R   0.914774 0.779651 0.589047 -0.217157
C21   C     C_R   0.882463 0.722980 0.558575 0.334893
C22   C     C_R   0.856159 0.661930 0.644122 -0.270849
H1    H     H_    0.833719 0.614958 0.662916 0.123088
H2    H     H_    0.992887 0.880121 0.652410 0.179285
H3    H     H_    0.011474 0.674599 0.928415 0.204532
H4    H     H_    0.867077 0.615305 0.746896 0.167536
H5    H     H_    0.022041 0.880876 0.749250 0.202962
H6    H     H_    0.937057 0.825485 0.567719 0.192908
C23   C     C_3   0.766534 0.256073 0.799905 0.326887
C24   C     C_3   0.119779 0.243741 0.782685 0.174835
C25   C     C_3   0.102820 0.292109 0.732753 -0.474734
H7    H     H_    0.789224 0.357474 0.769588 0.242280
H8    H     H_    0.143316 0.273907 0.819933 0.147447
H9    H     H_    0.133665 0.342382 0.747421 0.174005
H10   H     H_    0.211510 0.282625 0.701001 0.239008
C26   C     C_1   0.864472 0.378291 0.624000 -0.250791
C27   C     C_3   0.929464 0.204751 0.789494 -0.109352
C28   C     C_3   0.755745 0.308142 0.753230 -0.459085
C29   C     C_3   0.897610 0.290910 0.707042 0.051207
C30   C     C_3   0.847312 0.220490 0.687254 0.093972
C31   C     C_3   0.889857 0.168707 0.733485 0.005641
C32   C     C_1   0.878687 0.339380 0.661532 0.091359
C33   C     C_1   0.946771 0.158178 0.836732 0.192732
C34   C     C_1   0.959938 0.120564 0.875231 -0.188373
H11   H     H_    0.022041 0.141110 0.722992 0.197993
H12   H     H_    0.689836 0.220521 0.678585 0.158726
H13   H     H_    0.628236 0.230404 0.800331 0.172087
H14   H     H_    0.606382 0.310956 0.736615 0.154216
C35   C     C_3   0.601735 0.707272 0.271004 0.391197
C36   C     C_3   0.258966 0.691710 0.243072 -0.623080
C37   C     C_3   0.285233 0.741222 0.195126 -0.327510
H15   H     H_    0.681639 0.733123 0.186748 0.204928
H16   H     H_    0.626219 0.658164 0.252866 0.118186
H17   H     H_    0.106049 0.691909 0.255758 0.225972
H18   H     H_    0.291999 0.641448 0.228600 0.201265
H19   H     H_    0.331461 0.714400 0.157988 0.182028
H20   H     H_    0.144755 0.764854 0.185048 0.207810
C38   C     C_1   0.475955 0.878831 0.124977 -0.266690
C39   C     C_3   0.391152 0.709052 0.292479 0.085065
C40   C     C_3   0.628732 0.758723 0.223779 -0.713133
C41   C     C_3   0.436039 0.794115 0.209961 0.244776
C42   C     C_3   0.369415 0.830333 0.262490 0.207249
C43   C     C_3   0.333495 0.779813 0.310037 0.283893
C44   C     C_1   0.460573 0.840872 0.163244 0.092365
C45   C     C_1   0.364651 0.660995 0.338175 0.172615
C46   C     C_1   0.348412 0.622149 0.375761 -0.197704
H21   H     H_    0.176650 0.779379 0.318307 0.160462
H22   H     H_    0.484560 0.865229 0.274394 0.102688
H23   H     H_    0.739272 0.795639 0.234191 0.200487
C47   C     C_R   0.468941 0.161733 0.088407 -0.106026
C48   C     C_R   0.351963 0.339454 0.409424 -0.315487
C49   C     C_R   0.458357 0.279533 0.090024 -0.058580
C50   C     C_R   0.474045 0.221506 0.061054 -0.206100
C51   C     C_R   0.452130 0.160177 0.145602 -0.180963
C52   C     C_R   0.438985 0.218862 0.176582 0.062786
C53   C     C_R   0.438303 0.279149 0.147327 0.050507
C54   C     C_R   0.421793 0.219704 0.235124 -0.001412
C55   C     C_R   0.405271 0.280400 0.263325 0.091045
C56   C     C_R   0.389162 0.338118 0.231867 -0.289457
C57   C     C_R   0.411210 0.338348 0.174993 0.462805
C58   C     C_R   0.420923 0.161817 0.266463 -0.270915
C59   C     C_R   0.383430 0.161986 0.322473 0.395875
C60   C     C_R   0.348311 0.221791 0.349589 -0.245531
C61   C     C_R   0.388816 0.281364 0.321933 0.018389
C62   C     C_R   0.275972 0.223975 0.403675 0.395547
C63   C     C_R   0.277918 0.282719 0.432391 -0.265912
C64   C     C_R   0.412295 0.339196 0.354028 0.474246
H24   H     H_    0.220166 0.284284 0.473380 0.188794
H25   H     H_    0.459732 0.324899 0.067044 0.187978
H26   H     H_    0.487411 0.223221 0.016943 0.130195
H27   H     H_    0.447071 0.112438 0.164213 0.106854
H28   H     H_    0.348002 0.383699 0.250397 0.189137
H29   H     H_    0.451030 0.114971 0.248616 0.168029
O11   O     O_R   0.323590 0.942280 0.056590 -0.590883
O12   O     O_R   0.647030 0.077140 0.045940 -0.592814
O13   O     O_R   0.813570 0.057750 0.943430 -0.583737
C65   C     C_R   0.478126 0.100978 0.056562 0.930318
O14   O     O_R   0.653510 0.943950 0.062820 -0.589494
O15   O     O_R   0.820100 0.923600 0.960440 -0.581293
C66   C     C_R   0.485627 0.923955 0.078806 0.975881
O16   O     O_R   0.317060 0.076430 0.039590 -0.590051
O17   O     O_3   0.483830 0.993520 0.966410 -0.255332
V3    V     V_3+5 0.760140 0.001200 0.006230 1.201791
O18   O     O_R   0.149560 0.922820 0.954030 -0.585520
C67   C     C_R   0.980833 0.899103 0.943247 0.935011
O19   O     O_R   0.143080 0.056020 0.937150 -0.570658
C68   C     C_R   0.973165 0.075885 0.921305 0.953432
V4    V     V_3+5 0.259690 0.998730 0.993720 1.215453
O20   O     O_3   0.986120 0.006480 0.033580 -0.276914
N1    N     N_R   0.905148 0.600294 0.850806 0.236165
O21   O     O_R   0.987145 0.548472 0.830768 -0.372312
O22   O     O_R   0.785898 0.593580 0.890995 -0.364121
O23   O     O_3   0.794511 0.287773 0.850317 -0.720818
H30   H     H_    0.735549 0.260134 0.878973 0.324899
N2    N     N_R   0.284827 0.199070 0.778743 0.219840
O24   O     O_R   0.345674 0.168431 0.822479 -0.402441
O25   O     O_R   0.359608 0.184405 0.731808 -0.356097
N3    N     N_R   0.736153 0.119779 0.734672 0.266935
O26   O     O_R   0.696927 0.087375 0.690318 -0.272069
O27   O     O_R   0.654754 0.101967 0.779896 -0.322889
N4    N     N_R   0.943938 0.203179 0.636143 0.264054
O28   O     O_R   0.842491 0.193156 0.592006 -0.283720
O29   O     O_R   0.129525 0.196505 0.634203 -0.310703
O30   O     O_3   0.422442 0.798055 0.359631 -0.663593
H31   H     H_    0.553902 0.813152 0.351953 0.344063
N5    N     N_R   0.881195 0.726905 0.499615 0.236231
O31   O     O_R   0.774629 0.688193 0.470392 -0.371102
O32   O     O_R   0.973501 0.773309 0.474907 -0.335758
O33   O     O_3   0.736978 0.712558 0.314183 -0.713905
H32   H     H_    0.792316 0.756911 0.314663 0.330715
O34   O     O_3   0.200539 0.866244 0.251167 -0.748960
H33   H     H_    0.182328 0.896547 0.282298 0.363511
O35   O     O_3   0.400547 0.396097 0.145382 -0.742117
H34   H     H_    0.384037 0.433313 0.170750 0.327657
O36   O     O_3   0.506811 0.392037 0.331668 -0.774317
H35   H     H_    0.507269 0.429345 0.357121 0.305332
N6    N     N_R   0.402985 0.101350 0.352081 0.264506
O37   O     O_R   0.507671 0.098564 0.396488 -0.281513
O38   O     O_R   0.343558 0.047174 0.330283 -0.349357
N7    N     N_R   0.179988 0.169242 0.427869 0.266688
O39   O     O_R   0.193142 0.158780 0.480351 -0.257526
O40   O     O_R   0.053482 0.137044 0.399463 -0.314041
O41   O     O_3   0.053256 0.770611 0.991548 -0.739219
H36   H     H_    0.064340 0.813726 0.009207 0.311540
O42   O     O_3   0.862699 0.897117 0.828175 -0.744849
H37   H     H_    0.866453 0.934460 0.853560 0.320478

loop_
_geom_bond_atom_site_label_1
_geom_bond_atom_site_label_2
_geom_bond_distance
_ccdc_geom_bond_type
C13   C19   1.440468 A    
C2    C48   1.479293 S    
C42   O34   1.406349 S    
O42   H37   0.987488 S    
V3    O20   1.708137 S    
C8    O41   1.384325 S    
C41   C42   1.559466 S    
C4    C6    1.476996 S    
O2    C1    1.306004 A    
C60   C61   1.423209 A    
C56   H28   1.077549 S    
C1    O6    1.298634 A    
O17   V3    2.154753 S    
N6    O37   1.301577 A    
V1    O10   1.708320 S    
O11   C66   1.298933 A    
C45   C46   1.218840 T    
V4    O20   2.155930 S    
C59   N6    1.438305 S    
C26   C32   1.214465 T    
C17   H2    1.084440 S    
C14   C15   1.394948 A    
C58   C59   1.396773 A    
C36   H18   1.112944 S    
O13   V3    1.958826 S    
C16   C17   1.386967 A    
N6    O38   1.301645 A    
O35   H34   0.991642 S    
C18   C19   1.416161 A    
V2    O10   2.155908 S    
C61   C64   1.433166 A    
C5    C8    1.414854 A    
O18   C67   1.300534 A    
C22   H1    1.076912 S    
C30   N4    1.469648 S    
O19   C68   1.302717 A    
C7    H3    1.081988 S    
O36   H35   0.987641 S    
C58   H29   1.075742 S    
O8    V2    1.971999 S    
C53   C57   1.403357 A    
C48   C63   1.392928 A    
O1    V2    1.988327 S    
C11   C15   1.411780 A    
C18   C20   1.402632 A    
C17   C18   1.393623 A    
O7    V1    2.154663 S    
C40   H23   1.111990 S    
C65   O16   1.298187 A    
C35   C39   1.564381 S    
C20   H6    1.084217 S    
C48   C64   1.422480 A    
C9    C10   1.435354 A    
C49   H25   1.083032 S    
O12   C65   1.299871 A    
O13   C68   1.298381 A    
C51   H27   1.076864 S    
C23   C27   1.564353 S    
C6    C21   1.411586 A    
C15   N1    1.438105 S    
C62   C63   1.395736 A    
O19   V4    1.972070 S    
C39   C43   1.563608 S    
C42   C43   1.575277 S    
C36   H17   1.113195 S    
C29   C30   1.564304 S    
C47   C65   1.472051 S    
C23   O23   1.408065 S    
C12   C13   1.434249 A    
C23   H13   1.101653 S    
C54   C55   1.428564 A    
C56   C57   1.400412 A    
O4    C2    1.299250 A    
C31   H11   1.109813 S    
C43   O30   1.408717 S    
C14   H4    1.075617 S    
C37   C41   1.556517 S    
C16   H5    1.077171 S    
C13   C14   1.407422 A    
C27   C33   1.496724 S    
C5    C9    1.429996 A    
O18   V4    1.990929 S    
C24   H8    1.114200 S    
C49   C53   1.409245 A    
N3    O27   1.300155 A    
N2    O25   1.301020 A    
C1    C46   1.456596 S    
C36   C37   1.558841 S    
O16   V4    1.991549 S    
C21   N5    1.442936 S    
C33   C34   1.214983 T    
C28   C29   1.549329 S    
C3    C26   1.449247 S    
C19   C22   1.424412 A    
C49   C50   1.390323 A    
C6    C22   1.408180 A    
O12   V3    1.998333 S    
O3    C4    1.297099 A    
C30   H12   1.115227 S    
C24   N2    1.467741 S    
C35   C40   1.572555 S    
C35   O33   1.412029 S    
N7    O40   1.301593 A    
O6    V2    1.962420 S    
C63   H24   1.084539 S    
C52   C54   1.437558 A    
C38   C44   1.219191 T    
N4    O28   1.301137 A    
C41   C44   1.498414 S    
C10   C12   1.441202 A    
C24   C25   1.570391 S    
N1    O22   1.301440 A    
N2    O24   1.301611 A    
O2    V1    1.964858 S    
C23   C28   1.558036 S    
C39   C45   1.498633 S    
C30   C31   1.569433 S    
C7    C11   1.404742 A    
H7    C28   1.113687 S    
C64   O36   1.384458 S    
C37   H19   1.112814 S    
O11   V4    1.962762 S    
C57   O35   1.383983 S    
C51   C52   1.426363 A    
C9    O42   1.385074 S    
C12   C16   1.411100 A    
C40   C41   1.553307 S    
O5    V1    1.958660 S    
O15   V3    1.992347 S    
O8    C3    1.302959 A    
C60   C62   1.421106 A    
C55   C61   1.438724 A    
N5    O32   1.301590 A    
C5    C67   1.482771 S    
C47   C50   1.392243 A    
O15   C67   1.298584 A    
C29   C32   1.490747 S    
C28   H14   1.113819 S    
C20   C21   1.400365 A    
C7    C8    1.390344 A    
O9    V2    1.990889 S    
N3    O26   1.301504 A    
O7    V2    1.709425 S    
C37   H20   1.112787 S    
O3    V1    1.992232 S    
C47   C51   1.404513 A    
O33   H32   0.989525 S    
O5    C3    1.298231 A    
C25   C29   1.555790 S    
C55   C56   1.409373 A    
O23   H30   0.992948 S    
C43   H21   1.113889 S    
C27   C31   1.581239 S    
C34   C68   1.448736 S    
C62   N7    1.437798 S    
C36   C39   1.554781 S    
H15   C40   1.113254 S    
C54   C58   1.407806 A    
C59   C60   1.416136 A    
C38   C66   1.457210 S    
C25   H9    1.113439 S    
O14   C66   1.306033 A    
N5    O31   1.301291 A    
C24   C27   1.563654 S    
C35   H16   1.113539 S    
O4    V1    1.998199 S    
N7    O39   1.301560 A    
C52   C53   1.423077 A    
O41   H36   0.987784 S    
N4    O29   1.300748 A    
C10   C11   1.419726 A    
O30   H31   0.988946 S    
O1    C2    1.300404 A    
C42   H22   1.115891 S    
C31   N3    1.473001 S    
N1    O21   1.301411 A    
O9    C4    1.301589 A    
C25   H10   1.107443 S    
O14   V3    1.964787 S    
O17   V4    1.708374 S    
C50   H26   1.083737 S    
O34   H33   0.992910 S    
