data_mof_unit_38612.cif
_audit_creation_date              2012-10-26T20:37:31-0400
_audit_creation_method            fapswitch 2.2
_symmetry_space_group_name_H-M    P1
_symmetry_Int_Tables_number       1
_space_group_crystal_system       triclinic
_cell_length_a                    11.129211
_cell_length_b                    11.141169
_cell_length_c                    9.891279
_cell_angle_alpha                 91.954684
_cell_angle_beta                  102.194621
_cell_angle_gamma                 92.512041
_cell_volume                      1196.43620148

loop_
_atom_site_label
_atom_site_type_symbol
_atom_type_description
_atom_site_fract_x
_atom_site_fract_y
_atom_site_fract_z
_atom_type_partial_charge
C1    C     C_R   0.496900 0.267988 0.496688 0.539173
C2    C     C_2   0.131507 0.488608 0.415898 -0.080467
C3    C     C_2   0.067146 0.533480 0.505184 0.286879
C4    C     C_2   0.874177 0.495361 0.584443 0.258739
C5    C     C_2   0.933512 0.503438 0.477675 0.277990
C6    C     C_2   0.540972 0.943166 0.431884 -0.016833
C7    C     C_3   0.851522 0.373335 0.291964 -0.118813
C8    C     C_3   0.635203 0.653940 0.894989 -0.021110
C9    C     C_3   0.222492 0.375304 0.001612 -0.133001
C10   C     C_3   0.654341 0.638361 0.186294 0.031735
C11   C     C_3   0.167340 0.605672 0.725488 -0.069916
C12   C     C_2   0.501099 0.867116 0.520292 -0.016334
C13   C     C_3   0.906314 0.519336 0.826853 -0.139658
C14   C     C_3   0.554647 0.904341 0.287781 -0.253400
C15   C     C_3   0.537663 0.004451 0.183376 -0.297431
C16   C     C_3   0.543385 0.954463 0.039513 -0.483904
C17   C     C_3   0.460339 0.913870 0.650849 -0.267499
C18   C     C_3   0.319294 0.901630 0.627483 -0.282526
C19   C     C_3   0.272831 0.945129 0.754089 -0.448686
C20   C     C_3   0.707189 0.115080 0.500524 -0.247013
C21   C     C_3   0.761039 0.145755 0.654291 -0.303568
C22   C     C_3   0.900771 0.166279 0.681794 -0.438228
C23   C     C_2   0.573333 0.069758 0.475834 -0.021261
C24   C     C_3   0.563015 0.248890 0.904035 -0.107214
C25   C     C_2   0.480447 0.140065 0.482744 -0.086935
C26   C     C_2   0.456107 0.413561 0.913883 0.449095
C27   C     C_2   0.427662 0.431473 0.056799 0.473250
C28   C     C_R   0.264523 0.501208 0.444173 0.554238
C29   C     C_R   0.499463 0.734294 0.503002 0.526089
C30   C     C_R   0.737069 0.497467 0.556223 0.520586
Cu1   Cu    Cu3+1 0.500020 0.500020 0.638640 0.966938
Cu2   Cu    Cu3+1 0.499980 0.499980 0.361360 1.009866
H1    H     H_    0.088285 0.430020 0.327765 0.069593
H2    H     H_    0.202332 0.472018 0.991966 0.085918
H3    H     H_    0.147767 0.330910 0.043442 0.135316
H4    H     H_    0.743594 0.662319 0.158880 0.091227
H5    H     H_    0.676497 0.653993 0.297996 0.179067
H6    H     H_    0.585571 0.702775 0.142273 0.117482
H7    H     H_    0.172200 0.507439 0.741943 0.149908
H8    H     H_    0.115882 0.647710 0.797397 0.126500
H9    H     H_    0.262551 0.646204 0.754239 0.165276
H10   H     H_    0.836738 0.458477 0.858802 0.149120
H11   H     H_    0.874146 0.611664 0.807511 0.105190
H12   H     H_    0.386129 0.103378 0.458485 0.084270
H13   H     H_    0.985967 0.527649 0.915913 0.110792
H14   H     H_    0.640519 0.942518 0.032996 0.130927
H15   H     H_    0.489660 0.867348 0.014443 0.166878
H16   H     H_    0.502411 0.017325 0.961139 0.151024
H17   H     H_    0.446456 0.043078 0.178718 0.188050
H18   H     H_    0.610439 0.077516 0.214358 0.160186
H19   H     H_    0.646810 0.867754 0.295553 0.116530
H20   H     H_    0.479544 0.836824 0.243668 0.177408
H21   H     H_    0.305089 0.887253 0.842156 0.150751
H22   H     H_    0.305266 0.040036 0.783513 0.181582
H23   H     H_    0.908470 0.309094 0.358822 0.053286
H24   H     H_    0.170607 0.939725 0.729913 0.149796
H25   H     H_    0.276934 0.954176 0.538050 0.153388
H26   H     H_    0.287621 0.806227 0.602206 0.218591
H27   H     H_    0.502189 0.862968 0.741998 0.165301
H28   H     H_    0.492155 0.007542 0.683270 0.139334
H29   H     H_    0.944063 0.081360 0.661755 0.140611
H30   H     H_    0.926896 0.235856 0.614087 0.179226
H31   H     H_    0.936314 0.196910 0.791570 0.152003
H32   H     H_    0.721296 0.228766 0.686805 0.182255
H33   H     H_    0.738144 0.071122 0.717894 0.145180
H34   H     H_    0.873185 0.365134 0.187673 0.119914
H35   H     H_    0.761854 0.044280 0.464099 0.143049
H36   H     H_    0.716189 0.195077 0.438925 0.129479
H37   H     H_    0.640643 0.309623 0.887764 0.116273
H38   H     H_    0.566552 0.165479 0.841652 0.116720
H39   H     H_    0.577638 0.227406 0.015084 0.111078
H40   H     H_    0.753079 0.344735 0.280022 0.179475
H41   H     H_    0.650752 0.670358 0.792620 0.165650
H42   H     H_    0.705587 0.590831 0.940044 0.120159
H43   H     H_    0.656390 0.743152 0.949187 0.044197
H44   H     H_    0.220530 0.331276 0.898577 0.142264
N1    N     N_2   0.498650 0.498660 0.846590 -0.060470
N2    N     N_2   0.498620 0.498630 0.152710 -0.047717
O1    O     O_R   0.500020 0.321960 0.617050 -0.473197
O2    O     O_3   0.515069 0.610872 0.904497 -0.522996
O3    O     O_3   0.335370 0.360769 0.094216 -0.561378
O4    O     O_3   0.614753 0.519554 0.135146 -0.502454
O5    O     O_3   0.114158 0.635149 0.588726 -0.591668
O6    O     O_3   0.944806 0.466905 0.712658 -0.638669
O7    O     O_3   0.446775 0.297375 0.859338 -0.577290
O8    O     O_R   0.499980 0.321920 0.382890 -0.484240
O9    O     O_R   0.320700 0.500020 0.574050 -0.495266
O10   O     O_R   0.320660 0.499980 0.339890 -0.475626
O11   O     O_R   0.500020 0.678080 0.617110 -0.513769
O12   O     O_R   0.499980 0.678040 0.382950 -0.552474
O13   O     O_R   0.679340 0.500020 0.660110 -0.555356
O14   O     O_R   0.679300 0.499980 0.425950 -0.481994
O15   O     O_3   0.871524 0.495580 0.339778 -0.586436

loop_
_geom_bond_atom_site_label_1
_geom_bond_atom_site_label_2
_ccdc_geom_bond_type
C19   H24   S    
C12   C29   S    
C20   H35   S    
C7    H23   S    
C27   N2    D    
C16   H16   S    
C29   O11   A    
C24   H38   S    
C13   O6    S    
C26   C27   S    
C10   H5    S    
C6    C12   D    
C6    C14   S    
C15   C16   S    
Cu2   O10   S    
C25   H12   S    
C18   C19   S    
C15   H18   S    
C29   O12   A    
C21   H32   S    
C22   H31   S    
C18   H26   S    
C14   H20   S    
Cu1   Cu2   S    
Cu1   O11   S    
C12   C17   S    
C28   O10   A    
C9    H44   S    
C24   O7    S    
C19   H21   S    
C15   H17   S    
C21   C22   S    
C1    C25   S    
C16   H15   S    
C13   H10   S    
C24   H37   S    
Cu1   N1    S    
C7    O15   S    
Cu2   O12   S    
C26   N1    D    
Cu1   O9    S    
C27   O3    S    
C30   O14   A    
C16   H14   S    
C7    H40   S    
C30   O13   A    
C11   O5    S    
C10   O4    S    
C8    H43   S    
C22   H30   S    
N2    O4    S    
C18   H25   S    
C14   H19   S    
C4    O6    S    
C20   C23   S    
Cu2   O8    S    
C28   O9    A    
C8    H42   S    
C17   C18   S    
C11   H7    S    
C17   H27   S    
C19   H22   S    
Cu1   O13   S    
C3    O5    S    
C9    H2    S    
C1    O1    A    
C13   H11   S    
C2    H1    S    
C8    O2    S    
N1    O2    S    
C1    O8    A    
C21   H33   S    
C20   H36   S    
C4    C5    D    
C3    C5    S    
C5    O15   S    
Cu1   O1    S    
C10   H6    S    
C2    C3    D    
C22   H29   S    
C13   H13   S    
Cu2   O14   S    
C26   O7    S    
C6    C23   S    
C8    H41   S    
C10   H4    S    
C11   H9    S    
C23   C25   D    
C11   H8    S    
C17   H28   S    
Cu2   N2    S    
C20   C21   S    
C9    H3    S    
C14   C15   S    
C2    C28   S    
C4    C30   S    
C24   H39   S    
C9    O3    S    
C7    H34   S    
