data_mof_unit_9957.cif
_audit_creation_date              2012-10-26T20:21:20-0400
_audit_creation_method            fapswitch 2.2
_symmetry_space_group_name_H-M    P1
_symmetry_Int_Tables_number       1
_space_group_crystal_system       triclinic
_cell_length_a                    9.517923
_cell_length_b                    10.834113
_cell_length_c                    15.474061
_cell_angle_alpha                 89.8707
_cell_angle_beta                  74.674132
_cell_angle_gamma                 90.010755
_cell_volume                      1538.90921695

loop_
_atom_site_label
_atom_site_type_symbol
_atom_type_description
_atom_site_fract_x
_atom_site_fract_y
_atom_site_fract_z
_atom_type_partial_charge
C1    C     C_R   0.999926 0.262067 0.500073 0.549876
C2    C     C_R   0.127700 0.063890 0.499920 -0.130578
C3    C     C_R   0.000052 0.871784 0.499940 0.023657
C4    C     C_R   0.999931 0.128220 0.500102 0.024220
C5    C     C_R   0.549328 0.426638 0.558089 0.011710
C6    C     C_R   0.450672 0.573364 0.441914 0.013680
C7    C     C_R   0.400501 0.426721 0.558092 0.027257
C8    C     C_R   0.599508 0.573259 0.441894 0.032004
C9    C     C_R   0.918544 0.497746 0.672215 0.570880
C10   C     C_R   0.081470 0.501016 0.327697 0.569597
C11   C     C_R   0.873723 0.484850 0.770249 0.010503
C12   C     C_R   0.000067 0.737934 0.499942 0.548232
C13   C     C_R   0.125862 0.504647 0.229140 0.008176
C14   C     C_R   0.917689 0.417537 0.909887 -0.109253
C15   C     C_R   0.076127 0.543538 0.086121 -0.105675
C16   C     C_R   0.969343 0.441015 0.818479 0.357992
C17   C     C_R   0.027011 0.532974 0.178879 0.363167
C18   C     C_R   0.727824 0.506997 0.814859 -0.190319
C19   C     C_R   0.272483 0.483804 0.185137 -0.191570
C20   C     C_R   0.671665 0.478913 0.906246 0.016687
C21   C     C_R   0.324135 0.491248 0.091338 0.016276
C22   C     C_R   0.770308 0.435921 0.953972 -0.014312
C23   C     C_R   0.575950 0.427625 0.090179 -0.107080
C24   C     C_R   0.223329 0.524022 0.042201 -0.016898
C25   C     C_R   0.520902 0.491982 0.951251 0.044706
C26   C     C_R   0.473303 0.470612 0.045424 0.045952
C27   C     C_R   0.415693 0.522812 0.904934 -0.109788
C28   C     C_R   0.721046 0.410216 0.045033 -0.110492
C29   C     C_R   0.270140 0.538067 0.949725 -0.113622
C30   C     C_R   0.872208 0.063815 0.500240 -0.133419
C31   C     C_R   0.127771 0.936190 0.499813 -0.133499
C32   C     C_R   0.872278 0.936115 0.500133 -0.131783
Cu1   Cu    Cu3+1 0.140660 0.500020 0.500000 0.974341
Cu2   Cu    Cu3+1 0.859340 0.499980 0.500000 0.975343
F1    F     F_    0.884240 0.554634 0.219118 -0.645446
F2    F     F_    0.111221 0.417205 0.777244 -0.652107
H1    H     H_    0.795463 0.376242 0.081932 0.141852
H2    H     H_    0.227682 0.888196 0.499634 0.131612
H3    H     H_    0.772423 0.888063 0.500216 0.131832
H4    H     H_    0.227554 0.111944 0.499838 0.132560
H5    H     H_    0.585318 0.367669 0.604533 0.118546
H6    H     H_    0.414678 0.632340 0.395478 0.118052
H7    H     H_    0.324353 0.367889 0.604511 0.161243
H8    H     H_    0.675679 0.632042 0.395441 0.155261
H9    H     H_    0.193716 0.562420 0.911518 0.152240
H10   H     H_    0.345073 0.465162 0.226225 0.134964
H11   H     H_    0.660457 0.546654 0.776167 0.129999
H12   H     H_    0.992605 0.382458 0.945980 0.130153
H13   H     H_    0.999089 0.568941 0.048639 0.131357
H14   H     H_    0.547700 0.402878 0.160030 0.120987
H15   H     H_    0.440902 0.533333 0.833309 0.126107
H16   H     H_    0.772297 0.111810 0.500419 0.132007
N1    N     N_R   0.352080 0.500030 0.499980 -0.233142
N2    N     N_R   0.647920 0.499970 0.500020 -0.232084
O1    O     O_R   0.118740 0.319660 0.500000 -0.510168
O2    O     O_R   0.881260 0.680340 0.500000 -0.512231
O3    O     O_R   0.881170 0.319630 0.500010 -0.512801
O4    O     O_R   0.118830 0.680370 0.499990 -0.513409
O5    O     O_R   0.055570 0.500030 0.629830 -0.434618
O6    O     O_R   0.944430 0.499970 0.370170 -0.432520
O7    O     O_R   0.818000 0.500000 0.629840 -0.527686
O8    O     O_R   0.182000 0.500000 0.370160 -0.528528

loop_
_geom_bond_atom_site_label_1
_geom_bond_atom_site_label_2
_ccdc_geom_bond_type
Cu1   O1    S    
Cu2   O3    S    
C2    C4    A    
C21   C26   A    
C11   C18   A    
Cu2   O2    S    
Cu1   O4    S    
C1    O3    A    
C27   C29   A    
C20   C22   A    
C17   F1    S    
C11   C16   A    
C10   O6    A    
C31   H2    S    
C13   C17   A    
C3    C31   A    
C1    C4    S    
C12   O4    A    
C18   H11   S    
C14   C22   A    
Cu1   Cu2   S    
C1    O1    A    
C19   H10   S    
Cu1   O5    S    
C22   C28   A    
C23   C28   A    
C16   F2    S    
Cu2   O6    S    
C9    C11   S    
C12   O2    A    
C28   H1    S    
C9    O7    A    
C6    C8    A    
C15   C24   A    
C19   C21   A    
C27   H15   S    
Cu2   N2    S    
C18   C20   A    
C15   H13   S    
Cu1   N1    S    
C3    C32   A    
C14   C16   A    
C10   O8    A    
C7    N1    A    
C25   C27   A    
C20   C25   A    
C21   C24   A    
C6    N1    A    
C5    H5    S    
C30   C32   A    
C2    H4    S    
C5    N2    A    
C5    C7    A    
C6    H6    S    
C23   C26   A    
C8    N2    A    
C7    H7    S    
C15   C17   A    
C13   C19   A    
C30   H16   S    
C24   C29   A    
C2    C31   A    
C23   H14   S    
C14   H12   S    
C3    C12   S    
C32   H3    S    
C25   C26   A    
Cu2   O7    S    
C4    C30   A    
C8    H8    S    
C29   H9    S    
Cu1   O8    S    
C9    O5    A    
C10   C13   S    
