data_mof_unit_56462.cif
_audit_creation_date              2012-12-11T14:13:08-0500
_audit_creation_method            fapswitch 2.2
_symmetry_space_group_name_H-M    P1
_symmetry_Int_Tables_number       1
_space_group_crystal_system       triclinic
_cell_length_a                    11.458836
_cell_length_b                    19.311958
_cell_length_c                    10.413382
_cell_angle_alpha                 91.133532
_cell_angle_beta                  107.134264
_cell_angle_gamma                 88.755562
_cell_volume                      2201.39215566

loop_
_atom_site_label
_atom_site_type_symbol
_atom_type_description
_atom_site_fract_x
_atom_site_fract_y
_atom_site_fract_z
_atom_type_partial_charge
C1    C     C_R   0.082614 0.644838 0.143749 0.534235
C2    C     C_R   0.906814 0.357439 0.854333 0.510793
C3    C     C_R   0.916711 0.143569 0.854058 0.554549
C4    C     C_R   0.090553 0.857684 0.145855 0.498451
C5    C     C_R   0.434336 0.483990 0.606067 -0.017374
C6    C     C_R   0.602394 0.543879 0.469969 0.019235
C7    C     C_R   0.574425 0.965891 0.403333 0.001904
C8    C     C_R   0.400033 0.043712 0.520800 0.026064
C9    C     C_2   0.381507 0.934004 0.961999 -0.073847
C10   C     C_2   0.590582 0.076528 0.066510 -0.060418
C11   C     C_2   0.623205 0.434915 0.010330 -0.066767
C12   C     C_2   0.397960 0.572822 0.945592 -0.055456
C13   C     C_2   0.478642 0.968781 0.038215 -0.135209
C14   C     C_2   0.481947 0.046040 0.050876 -0.117420
C15   C     C_2   0.517999 0.468656 0.990603 -0.130837
C16   C     C_2   0.502079 0.541019 0.944688 -0.131140
C17   C     C_2   0.058115 0.932365 0.127738 -0.099537
C18   C     C_2   0.966508 0.071030 0.872565 -0.099644
C19   C     C_2   0.926561 0.432789 0.871574 -0.082413
C20   C     C_2   0.036851 0.573411 0.124603 -0.129771
C21   C     C_2   0.038220 0.965412 0.008670 -0.084417
C22   C     C_2   0.010441 0.041905 0.996379 -0.129028
C23   C     C_2   0.978584 0.464202 0.992119 -0.071940
C24   C     C_2   0.993320 0.541095 0.004058 -0.125333
C25   C     C_R   0.468287 0.647875 0.435783 0.571991
C26   C     C_R   0.554037 0.364045 0.610077 0.510043
C27   C     C_R   0.537631 0.143771 0.570476 0.578139
C28   C     C_R   0.441575 0.862208 0.385116 0.523764
C29   C     C_R   0.378690 0.646278 0.965292 0.542200
C30   C     C_R   0.631207 0.358926 0.018826 0.541575
C31   C     C_R   0.619285 0.147688 0.036449 0.555451
C32   C     C_R   0.369063 0.858445 0.978219 0.543401
C33   C     C_R   0.535019 0.441899 0.572989 -0.033663
C34   C     C_R   0.500429 0.582267 0.500184 0.000708
C35   C     C_R   0.464676 0.935909 0.423898 -0.005762
C36   C     C_R   0.512115 0.073768 0.510683 -0.003609
C37   C     C_R   0.342656 0.460213 0.669040 -0.014752
C38   C     C_R   0.682667 0.569543 0.388033 0.022818
C39   C     C_R   0.665660 0.932650 0.339608 0.007946
C40   C     C_R   0.314562 0.073046 0.595464 0.028379
C41   C     C_R   0.249972 0.501803 0.697581 0.015547
C42   C     C_R   0.781952 0.531893 0.364852 0.002438
C43   C     C_R   0.741527 0.971608 0.286632 -0.017367
C44   C     C_R   0.205564 0.042210 0.591375 0.029622
C45   C     C_R   0.233784 0.569527 0.662143 0.125502
C46   C     C_R   0.819927 0.480501 0.446918 0.114706
C47   C     C_R   0.765090 0.037150 0.332080 0.122708
C48   C     C_R   0.159686 0.001914 0.485950 0.049432
C49   C     C_R   0.321928 0.598070 0.611101 0.004309
C50   C     C_R   0.725065 0.443543 0.473118 0.007831
C51   C     C_R   0.709566 0.066381 0.426011 0.045624
C52   C     C_R   0.250097 0.956580 0.457875 -0.088872
C53   C     C_R   0.420950 0.555943 0.574321 -0.068233
C54   C     C_R   0.620830 0.475108 0.509280 -0.093132
C55   C     C_R   0.598076 0.036459 0.448649 -0.054526
C56   C     C_R   0.375092 0.977371 0.469199 -0.052202
Cr1   Cr    Cr6+3 0.187610 0.750000 0.979860 1.053861
Cr2   Cr    Cr6+3 0.812390 0.250000 0.020140 1.069476
Cr3   Cr    Cr6+3 0.245810 0.750000 0.341640 1.128325
Cr4   Cr    Cr6+3 0.754190 0.250000 0.658360 1.071570
Cr5   Cr    Cr6+3 0.485760 0.750000 0.219910 1.014115
Cr6   Cr    Cr6+3 0.514240 0.250000 0.780090 1.051273
H1    H     H_    0.396875 0.076201 0.026695 0.136961
H2    H     H_    0.560244 0.939231 0.085894 0.136388
H3    H     H_    0.578881 0.570055 0.932268 0.117081
H4    H     H_    0.443484 0.442464 0.013467 0.120363
H5    H     H_    0.665288 0.043203 0.069475 0.191342
H6    H     H_    0.300902 0.961792 0.903154 0.155685
H7    H     H_    0.328809 0.541642 0.967794 0.123668
H8    H     H_    0.699938 0.461878 0.996188 0.126150
H9    H     H_    0.013944 0.070677 0.087261 0.159004
H10   H     H_    0.043017 0.936177 0.922094 0.211536
H11   H     H_    0.971690 0.571006 0.912770 0.180752
H12   H     H_    0.014217 0.433759 0.083185 0.197864
H13   H     H_    0.945798 0.039763 0.782745 0.211791
H14   H     H_    0.053829 0.962308 0.213111 0.116981
H15   H     H_    0.055580 0.544167 0.216264 0.154121
H16   H     H_    0.890106 0.464201 0.782883 0.119219
O1    O     O_R   0.267710 0.668200 0.902110 -0.559350
O2    O     O_R   0.732290 0.331800 0.097890 -0.433041
O3    O     O_R   0.732290 0.168200 0.097890 -0.522262
O4    O     O_R   0.267710 0.831800 0.902110 -0.457942
O5    O     O_R   0.099480 0.674460 0.038850 -0.500550
O6    O     O_R   0.900520 0.325540 0.961150 -0.495068
O7    O     O_R   0.900520 0.174460 0.961150 -0.504581
O8    O     O_R   0.099480 0.825540 0.038850 -0.493566
O9    O     O_R   0.116720 0.669210 0.267660 -0.457773
O10   O     O_R   0.883280 0.330790 0.732340 -0.519859
O11   O     O_R   0.883280 0.169210 0.732340 -0.459662
O12   O     O_R   0.116720 0.830790 0.267660 -0.543205
O13   O     O_R   0.366710 0.675440 0.427590 -0.480218
O14   O     O_R   0.633290 0.324560 0.572410 -0.503992
O15   O     O_R   0.633290 0.175440 0.572410 -0.545255
O16   O     O_R   0.366710 0.824560 0.427590 -0.468244
O17   O     O_R   0.534870 0.669390 0.371760 -0.519479
O18   O     O_R   0.465130 0.330610 0.628240 -0.463068
O19   O     O_R   0.465130 0.169390 0.628240 -0.504888
O20   O     O_R   0.534870 0.830610 0.371760 -0.513827
O21   O     O_R   0.453080 0.674480 0.075160 -0.468827
O22   O     O_R   0.546920 0.325520 0.924840 -0.568720
O23   O     O_R   0.546920 0.174480 0.924840 -0.466843
O24   O     O_R   0.453080 0.825520 0.075160 -0.568291
O25   O     O_3   0.306390 0.750000 0.180470 -0.312226
O26   O     O_3   0.693610 0.250000 0.819530 -0.316822
C57   C     C_2   0.181130 0.475163 0.787548 0.203876
H17   H     H_    0.214702 0.433141 0.855180 0.112329
O27   O     O_2   0.084664 0.497841 0.786155 -0.594846
C58   C     C_2   0.827269 0.526177 0.240504 0.210408
H18   H     H_    0.814285 0.568156 0.169845 0.074418
O28   O     O_2   0.874667 0.472009 0.214707 -0.503639
C59   C     C_2   0.801268 0.942071 0.183440 0.157611
H19   H     H_    0.812584 0.887868 0.168182 0.131553
O29   O     O_2   0.830458 0.976671 0.102881 -0.564007
C60   C     C_2   0.151742 0.033188 0.709675 0.248917
H20   H     H_    0.169444 0.069357 0.793391 0.067898
O30   O     O_2   0.093449 0.981735 0.718419 -0.496793
N1    N     N_3   0.121790 0.608010 0.666737 -0.514447
H21   H     H_    0.134562 0.659843 0.691000 0.259597
H22   H     H_    0.106086 0.604209 0.759170 0.271400
N2    N     N_3   0.945223 0.453800 0.471839 -0.492905
H23   H     H_    0.983930 0.449994 0.574368 0.270742
H24   H     H_    0.004153 0.486437 0.442067 0.266239
N3    N     N_3   0.851342 0.076749 0.286708 -0.633529
H25   H     H_    0.924837 0.099631 0.355390 0.263424
H26   H     H_    0.853025 0.080073 0.188422 0.311582
N4    N     N_3   0.037763 0.976106 0.474717 -0.543035
H27   H     H_    0.999055 0.952710 0.383110 0.229473
H28   H     H_    0.979577 0.012556 0.493483 0.321846
C61   C     C_2   0.331791 0.391481 0.718129 0.272302
H29   H     H_    0.372470 0.380679 0.822232 0.100294
O31   O     O_2   0.256764 0.352044 0.650704 -0.464365
C62   C     C_2   0.636001 0.598116 0.260051 0.296119
H30   H     H_    0.677392 0.643059 0.229151 0.086241
O32   O     O_2   0.546103 0.570387 0.191585 -0.504172
C63   C     C_2   0.710790 0.860539 0.330283 0.289631
H31   H     H_    0.674766 0.831259 0.236991 0.094546
O33   O     O_2   0.787161 0.834520 0.424031 -0.460429
C64   C     C_2   0.355758 0.100398 0.730281 0.271929
H32   H     H_    0.312734 0.145891 0.763847 0.093934
O34   O     O_2   0.443353 0.071106 0.802892 -0.503405
C65   C     C_2   0.304560 0.674751 0.616187 0.290985
H33   H     H_    0.376735 0.707661 0.675938 0.107216
O35   O     O_2   0.211481 0.702305 0.543768 -0.419857
C66   C     C_2   0.780159 0.386902 0.523659 0.406652
H34   H     H_    0.787813 0.404258 0.622467 0.070754
O36   O     O_2   0.811826 0.338306 0.464490 -0.427035
C67   C     C_2   0.787349 0.122532 0.492325 0.318431
H35   H     H_    0.774814 0.178303 0.469035 0.174471
O37   O     O_2   0.885760 0.102113 0.554130 -0.558377
C68   C     C_2   0.203836 0.889588 0.478223 0.491835
H36   H     H_    0.225134 0.904744 0.385616 0.084408
O38   O     O_2   0.250916 0.852040 0.570790 -0.416881

loop_
_geom_bond_atom_site_label_1
_geom_bond_atom_site_label_2
_ccdc_geom_bond_type
C1    O9    A    
C12   H7    S    
C18   H13   S    
C5    C37   A    
C12   C29   S    
C3    O7    A    
Cr1   O1    S    
C2    O6    A    
Cr5   O20   S    
C7    C55   A    
C8    C56   A    
C60   H20   S    
Cr4   O10   S    
C11   H8    S    
N3    H25   S    
C39   C63   S    
Cr4   O11   S    
Cr1   O8    S    
C57   O27   D    
N4    H27   S    
C41   C57   S    
C20   H15   S    
C31   O23   A    
C7    C39   A    
C5    C53   A    
C67   O37   D    
C38   C42   A    
Cr6   O18   S    
N1    H22   S    
C42   C46   A    
C24   H11   S    
N3    H26   S    
C4    O8    A    
C26   O14   A    
C15   C16   S    
C30   O22   A    
C58   H18   S    
C3    C18   S    
C28   O16   A    
C8    C36   A    
C9    C13   D    
C9    C32   S    
C11   C15   D    
C10   C31   S    
C12   C16   D    
C11   C30   S    
C50   C66   S    
C62   H30   S    
C49   C65   S    
C17   H14   S    
C23   C24   S    
C6    C38   A    
C2    O10   A    
Cr3   O16   S    
C45   C49   A    
C40   C44   A    
Cr6   O26   S    
Cr2   O2    S    
C25   C34   S    
Cr6   O23   S    
C30   O2    A    
Cr4   O15   S    
C35   C56   A    
C44   C60   S    
C21   C22   S    
Cr5   O21   S    
C43   C59   S    
C6    C54   A    
N2    H24   S    
C4    O12   A    
Cr4   O14   S    
C26   O18   A    
Cr1   O25   S    
C25   O13   A    
C29   O21   A    
C21   H10   S    
C67   H35   S    
C20   C24   D    
C63   H31   S    
C28   C35   S    
C66   O36   D    
C10   C14   D    
Cr2   O3    S    
C39   C43   A    
C51   C55   A    
C10   H5    S    
C15   H4    S    
C17   C21   D    
C6    C34   A    
C40   C64   S    
Cr3   O12   S    
C38   C62   S    
C19   H16   S    
C19   C23   D    
Cr2   O6    S    
Cr6   O19   S    
C26   C33   S    
C60   O30   D    
C29   O1    A    
C28   O20   A    
C51   C67   S    
Cr1   O5    S    
C46   N2    S    
C59   O29   D    
Cr3   O13   S    
C64   O34   D    
Cr6   O22   S    
C4    C17   S    
C62   O32   D    
C25   O17   A    
C68   O38   D    
C27   O15   A    
Cr2   O26   S    
C23   H12   S    
Cr2   O7    S    
C22   H9    S    
N2    H23   S    
C61   H29   S    
C45   N1    S    
C33   C54   A    
C63   O33   D    
C27   O19   A    
C1    C20   S    
N4    H28   S    
C59   H19   S    
Cr5   O25   S    
C2    C19   S    
C18   C22   D    
C7    C35   A    
C58   O28   D    
C66   H34   S    
C47   C51   A    
Cr5   O17   S    
C47   N3    S    
C27   C36   S    
C1    O5    A    
C32   O4    A    
C57   H17   S    
C46   C50   A    
N1    H21   S    
C31   O3    A    
C3    O11   A    
Cr3   O25   S    
C65   O35   D    
Cr5   O24   S    
C9    H6    S    
C50   C54   A    
C36   C55   A    
Cr4   O26   S    
C65   H33   S    
C13   H2    S    
C43   C47   A    
C49   C53   A    
C14   H1    S    
C37   C61   S    
C32   O24   A    
C5    C33   A    
C37   C41   A    
Cr3   O9    S    
C64   H32   S    
C48   N4    S    
C44   C48   A    
C48   C52   A    
C34   C53   A    
C52   C68   S    
C41   C45   A    
Cr1   O4    S    
C16   H3    S    
C8    C40   A    
C13   C14   S    
C42   C58   S    
C52   C56   A    
C68   H36   S    
C61   O31   D    
