data_mof_unit_15144.cif
_audit_creation_date              2012-12-10T17:47:44-0500
_audit_creation_method            fapswitch 2.2
_symmetry_space_group_name_H-M    P1
_symmetry_Int_Tables_number       1
_space_group_crystal_system       triclinic
_cell_length_a                    10.629282
_cell_length_b                    10.720579
_cell_length_c                    9.883863
_cell_angle_alpha                 89.080883
_cell_angle_beta                  90.012149
_cell_angle_gamma                 91.900333
_cell_volume                      1125.52220194

loop_
_atom_site_label
_atom_site_type_symbol
_atom_type_description
_atom_site_fract_x
_atom_site_fract_y
_atom_site_fract_z
_atom_type_partial_charge
C1    C     C_R   0.506834 0.259695 0.502177 0.871093
C2    C     C_R   0.491360 0.056966 0.631556 0.111051
C3    C     C_R   0.509869 0.125493 0.508039 -0.127995
C4    C     C_R   0.257682 0.499266 0.499744 0.815633
C5    C     C_R   0.511665 0.064544 0.384049 -0.229426
C6    C     C_R   0.495821 0.937578 0.380538 -0.226500
C7    C     C_R   0.468870 0.870814 0.499770 -0.138357
C8    C     C_R   0.333316 0.337473 0.142431 -0.253010
C9    C     C_R   0.250253 0.257985 0.073824 -0.358976
C10   C     C_R   0.249964 0.256155 0.931539 0.575173
C11   C     C_R   0.333591 0.337428 0.862297 -0.258205
C12   C     C_3   0.878740 0.499503 0.498806 0.173231
C13   C     C_R   0.417876 0.419756 0.929057 0.076243
C14   C     C_R   0.417905 0.419753 0.073498 0.181370
C15   C     C_R   0.578398 0.577005 0.070278 -0.132699
C16   C     C_R   0.486485 0.738653 0.499442 0.880180
C17   C     C_R   0.578339 0.576996 0.926930 -0.110847
C18   C     C_R   0.742304 0.499955 0.499743 0.837619
C19   C     C_3   0.068162 0.383106 0.577994 -0.375541
C20   C     C_3   0.923725 0.382561 0.576729 -0.398426
C21   C     C_3   0.076479 0.619306 0.566393 -0.406282
C22   C     C_3   0.071197 0.495083 0.351118 -0.390019
C23   C     C_3   0.932034 0.619009 0.567376 -0.400509
C24   C     C_3   0.121265 0.499156 0.498822 0.171821
C25   C     C_3   0.104335 0.085833 0.925696 -0.328088
C26   C     C_3   0.928437 0.496488 0.351045 -0.392783
C27   C     C_R   0.513398 0.105428 0.762755 -0.166925
C28   C     C_R   0.469960 0.040750 0.878074 -0.136536
C29   C     C_R   0.404607 0.927269 0.865166 -0.133898
C30   C     C_R   0.393919 0.873010 0.738473 -0.146340
C31   C     C_R   0.449044 0.932587 0.622836 0.099754
H1    H     H_    0.101599 0.384562 0.684644 0.205255
H2    H     H_    0.507657 0.891748 0.284640 0.167877
H3    H     H_    0.642351 0.639827 0.123230 0.137535
H4    H     H_    0.101397 0.296063 0.531786 0.164910
H5    H     H_    0.327883 0.331701 0.249763 0.229161
H6    H     H_    0.186999 0.198861 0.134133 0.150144
H7    H     H_    0.330919 0.331894 0.755057 0.227018
H8    H     H_    0.642205 0.639864 0.871769 0.143212
H9    H     H_    0.886252 0.296196 0.527785 0.155485
H10   H     H_    0.888376 0.381415 0.682793 0.185239
H11   H     H_    0.111926 0.625007 0.672211 0.174560
H12   H     H_    0.897695 0.579900 0.292715 0.173089
H13   H     H_    0.898174 0.623180 0.673755 0.175176
H14   H     H_    0.109002 0.576907 0.291232 0.181458
H15   H     H_    0.101717 0.408978 0.300720 0.174642
H16   H     H_    0.890423 0.411901 0.298924 0.176952
H17   H     H_    0.031047 0.126240 0.990448 0.158842
H18   H     H_    0.169020 0.027212 0.985833 0.161635
H19   H     H_    0.055219 0.023633 0.852667 0.190398
H20   H     H_    0.114111 0.703327 0.510199 0.155474
H21   H     H_    0.899165 0.703590 0.512871 0.156686
H22   H     H_    0.527601 0.114602 0.289118 0.171965
H23   H     H_    0.568221 0.190154 0.779821 0.165131
H24   H     H_    0.484973 0.080025 0.977269 0.130622
H25   H     H_    0.365932 0.879292 0.953755 0.123433
H26   H     H_    0.342793 0.784320 0.731922 0.148929
N1    N     N_R   0.498810 0.498800 0.142780 -0.111013
N2    N     N_R   0.498760 0.498720 0.857170 -0.110906
O1    O     O_R   0.500000 0.316780 0.614690 -0.647835
O2    O     O_R   0.499990 0.316750 0.385360 -0.635930
O3    O     O_R   0.314800 0.499990 0.614670 -0.648244
O4    O     O_R   0.314790 0.499970 0.385330 -0.643753
O5    O     O_R   0.500010 0.683250 0.614640 -0.621420
O6    O     O_R   0.500000 0.683220 0.385310 -0.618742
O7    O     O_R   0.685210 0.500030 0.614670 -0.625277
O8    O     O_R   0.685200 0.500010 0.385330 -0.625153
O9    O     O_3   0.170834 0.180553 0.852233 -0.617658
Zn1   Zn    Zn3+2 0.500010 0.500020 0.653130 0.917202
Zn2   Zn    Zn3+2 0.499990 0.499980 0.346870 0.922093

loop_
_geom_bond_atom_site_label_1
_geom_bond_atom_site_label_2
_ccdc_geom_bond_type
O2    Zn2   S    
C8    C9    A    
C11   H7    S    
C6    H2    S    
C2    C27   A    
C13   N2    A    
C29   H25   S    
C10   O9    S    
C2    C3    A    
C18   O7    A    
C9    C10   A    
C15   H3    S    
C19   C20   S    
C12   C23   S    
O4    Zn2   S    
C30   C31   A    
O8    Zn2   S    
C12   C20   S    
C9    H6    S    
C19   C24   S    
C5    H22   S    
C27   H23   S    
C19   H4    S    
O5    Zn1   S    
C11   C13   A    
C25   H17   S    
C23   H21   S    
C29   C30   A    
C25   O9    S    
C26   H16   S    
N2    Zn1   S    
C20   H9    S    
C19   H1    S    
O1    Zn1   S    
C4    O4    A    
C7    C16   S    
C22   H15   S    
C28   H24   S    
C17   N2    A    
C26   H12   S    
C20   H10   S    
C6    C7    A    
C25   H18   S    
C21   C23   S    
C22   C26   S    
C5    C6    A    
C4    C24   S    
C15   N1    A    
C22   C24   S    
C21   C24   S    
O7    Zn1   S    
C7    C31   A    
C10   C11   A    
C21   H11   S    
C30   H26   S    
C4    O3    A    
C21   H20   S    
C22   H14   S    
O3    Zn1   S    
C8    H5    S    
C1    O1    A    
C12   C18   S    
C27   C28   A    
C15   C17   A    
C17   H8    S    
C25   H19   S    
C28   C29   A    
C8    C14   A    
C16   O6    A    
C16   O5    A    
C3    C5    A    
C18   O8    A    
C13   C14   A    
N1    Zn2   S    
C23   H13   S    
O6    Zn2   S    
C14   N1    A    
C12   C26   S    
C2    C31   A    
C1    C3    S    
C1    O2    A    
