data_mof_unit_59600.cif
_audit_creation_date              2012-12-10T17:58:55-0500
_audit_creation_method            fapswitch 2.2
_symmetry_space_group_name_H-M    P1
_symmetry_Int_Tables_number       1
_space_group_crystal_system       triclinic
_cell_length_a                    9.555417
_cell_length_b                    10.79776
_cell_length_c                    13.872699
_cell_angle_alpha                 90.527309
_cell_angle_beta                  85.206235
_cell_angle_gamma                 90.112762
_cell_volume                      1426.27650436

loop_
_atom_site_label
_atom_site_type_symbol
_atom_type_description
_atom_site_fract_x
_atom_site_fract_y
_atom_site_fract_z
_atom_type_partial_charge
C1    C     C_R   0.499826 0.737475 0.500418 0.898779
C2    C     C_R   0.500174 0.262524 0.499582 0.898779
C3    C     C_R   0.501513 0.128429 0.498963 -0.167045
C4    C     C_R   0.498487 0.871572 0.501037 -0.167044
C5    C     C_R   0.477616 0.500110 0.682909 0.823312
C6    C     C_R   0.522384 0.499890 0.317091 0.823310
C7    C     C_R   0.919079 0.576186 0.561633 0.359067
C8    C     C_R   0.080920 0.423814 0.438366 0.359069
C9    C     C_R   0.068070 0.576733 0.560339 -0.143213
C10   C     C_R   0.931930 0.423267 0.439661 -0.143218
C11   C     C_1   0.535594 0.499253 0.214007 -0.194659
C12   C     C_1   0.464406 0.500746 0.785993 -0.194656
C13   C     C_2   0.557881 0.498443 0.023607 -0.167966
C14   C     C_2   0.442119 0.501556 0.976393 -0.167966
C15   C     C_1   0.453360 0.501194 0.872803 -0.011370
C16   C     C_1   0.546640 0.498806 0.127197 -0.011369
C17   C     C_R   0.556273 0.936326 0.576862 0.148487
C18   C     C_R   0.443725 0.063674 0.423139 0.148489
C19   C     C_R   0.561218 0.066310 0.574292 0.144142
C20   C     C_R   0.438780 0.933690 0.425709 0.144142
Cu1   Cu    Cu3+1 0.359340 0.499980 0.500000 0.971453
Cu2   Cu    Cu3+1 0.640660 0.500020 0.500000 0.971453
H1    H     H_    0.119557 0.638504 0.608082 0.143402
H2    H     H_    0.880443 0.361496 0.391918 0.143401
H3    H     H_    0.338548 0.504301 0.015227 0.152943
H4    H     H_    0.661452 0.495699 0.984773 0.152943
N1    N     N_R   0.147930 0.499970 0.499980 -0.183025
N2    N     N_R   0.852070 0.500030 0.500020 -0.183026
O1    O     O_R   0.381260 0.680340 0.500000 -0.577772
O2    O     O_R   0.618740 0.319660 0.500000 -0.577773
O3    O     O_R   0.618830 0.680370 0.500010 -0.558289
O4    O     O_R   0.381170 0.319630 0.499990 -0.558284
O5    O     O_R   0.364420 0.499960 0.637840 -0.595440
O6    O     O_R   0.635580 0.500040 0.362160 -0.595439
O7    O     O_R   0.601990 0.499990 0.637850 -0.530883
O8    O     O_R   0.398010 0.500010 0.362150 -0.530887
N3    N     N_2   0.839444 0.656814 0.626069 -0.359283
H5    H     H_    0.861500 0.748695 0.611890 0.231121
C21   C     C_3   0.846101 0.628803 0.727484 -0.685008
H6    H     H_    0.769273 0.687063 0.771685 0.228919
H7    H     H_    0.952590 0.648692 0.750383 0.191055
H8    H     H_    0.819795 0.529956 0.741552 0.243807
N4    N     N_2   0.160554 0.343186 0.373929 -0.359284
H9    H     H_    0.138487 0.251307 0.388103 0.231118
C22   C     C_3   0.153903 0.371205 0.272516 -0.685017
H10   H     H_    0.230721 0.312939 0.228313 0.228915
H11   H     H_    0.180226 0.470048 0.258452 0.243816
H12   H     H_    0.047413 0.351335 0.249617 0.191057
N5    N     N_2   0.600352 0.870090 0.657717 -0.413188
H13   H     H_    0.681744 0.908841 0.691685 0.247096
C23   C     C_3   0.486992 0.827859 0.725456 -0.669705
H14   H     H_    0.415606 0.764653 0.689523 0.219868
H15   H     H_    0.424855 0.907351 0.756666 0.214999
H16   H     H_    0.530697 0.776833 0.785170 0.218188
N6    N     N_2   0.399646 0.129910 0.342283 -0.413183
H17   H     H_    0.318254 0.091158 0.308316 0.247096
C24   C     C_3   0.513005 0.172141 0.274544 -0.669706
H18   H     H_    0.584390 0.235348 0.310477 0.219868
H19   H     H_    0.469300 0.223166 0.214830 0.218190
H20   H     H_    0.575144 0.092649 0.243335 0.214998
N7    N     N_2   0.628068 0.136250 0.645260 -0.415313
H21   H     H_    0.723852 0.103432 0.662607 0.241534
C25   C     C_3   0.537788 0.178926 0.727642 -0.668851
H22   H     H_    0.511381 0.101539 0.777782 0.218812
H23   H     H_    0.439775 0.220009 0.704241 0.218919
H24   H     H_    0.593739 0.250920 0.767244 0.225105
N8    N     N_2   0.371930 0.863750 0.354741 -0.415313
H25   H     H_    0.276146 0.896568 0.337394 0.241533
C26   C     C_3   0.462211 0.821072 0.272359 -0.668852
H26   H     H_    0.488618 0.898459 0.222219 0.218813
H27   H     H_    0.406260 0.749078 0.232758 0.225105
H28   H     H_    0.560224 0.779989 0.295760 0.218918

loop_
_geom_bond_atom_site_label_1
_geom_bond_atom_site_label_2
_ccdc_geom_bond_type
C26   H28   S    
N4    H9    S    
C25   H23   S    
N5    C23   S    
C3    C19   A    
N3    H5    S    
C21   H7    S    
Cu2   O2    S    
C11   C16   T    
C20   N8    S    
C12   C15   T    
C2    O2    A    
C1    C4    S    
C10   H2    S    
C23   H16   S    
N6    H17   S    
C1    O1    A    
C2    C3    S    
C7    N3    S    
C25   H24   S    
C26   H27   S    
N3    C21   S    
Cu1   O8    S    
Cu2   N2    S    
Cu1   Cu2   S    
Cu2   O7    S    
N4    C22   S    
C6    C11   S    
C24   H18   S    
C26   H26   S    
C6    O6    A    
C18   N6    S    
C19   N7    S    
C4    C17   A    
C5    O7    A    
C8    N4    S    
C8    C10   A    
C17   C19   A    
C6    O8    A    
C21   H8    S    
C18   C20   A    
N6    C24   S    
C14   H3    S    
Cu1   N1    S    
N7    H21   S    
Cu2   O6    S    
Cu1   O4    S    
C13   H4    S    
C24   H19   S    
Cu1   O5    S    
Cu2   O3    S    
C10   N2    A    
C23   H14   S    
C4    C20   A    
C7    C9    A    
C1    O3    A    
C22   H11   S    
C9    N1    A    
C3    C18   A    
C2    O4    A    
N5    H13   S    
C13   C16   S    
C17   N5    S    
C21   H6    S    
N7    C25   S    
C8    N1    A    
C14   C15   S    
C9    H1    S    
C24   H20   S    
C22   H12   S    
N8    C26   S    
C22   H10   S    
C13   C14   D    
Cu1   O1    S    
C7    N2    A    
N8    H25   S    
C5    O5    A    
C25   H22   S    
C23   H15   S    
C5    C12   S    
