data_mof_unit_29519.cif
_audit_creation_date              2012-12-10T17:53:17-0500
_audit_creation_method            fapswitch 2.2
_symmetry_space_group_name_H-M    P1
_symmetry_Int_Tables_number       1
_space_group_crystal_system       triclinic
_cell_length_a                    22.935994
_cell_length_b                    10.677502
_cell_length_c                    9.970743
_cell_angle_alpha                 91.475554
_cell_angle_beta                  91.090131
_cell_angle_gamma                 93.905847
_cell_volume                      2434.81820888

loop_
_atom_site_label
_atom_site_type_symbol
_atom_type_description
_atom_site_fract_x
_atom_site_fract_y
_atom_site_fract_z
_atom_type_partial_charge
C1    C     C_R   0.504131 0.260192 0.498486 1.026565
C2    C     C_R   0.966607 0.365844 0.744515 0.620231
C3    C     C_R   0.027322 0.367166 0.758205 0.626936
C4    C     C_R   0.062753 0.468466 0.710512 -0.251916
C5    C     C_R   0.036607 0.572840 0.658410 -0.156489
C6    C     C_R   0.071992 0.679480 0.623848 -0.246107
C7    C     C_R   0.045964 0.786976 0.579788 0.628341
C8    C     C_R   0.985543 0.784187 0.559392 0.620715
C9    C     C_R   0.123893 0.467680 0.707503 0.739166
C10   C     C_R   0.132702 0.671474 0.627601 0.630473
C11   C     C_R   0.238646 0.616890 0.480921 0.469408
C12   C     C_R   0.389222 0.500829 0.498833 0.930383
C13   C     C_R   0.298293 0.611257 0.459050 0.374312
C14   C     C_R   0.325929 0.503052 0.497458 -0.510027
C15   C     C_R   0.291672 0.397274 0.539792 0.344233
C16   C     C_R   0.233519 0.410166 0.571995 0.696386
C17   C     C_R   0.209390 0.528733 0.566340 -0.271391
C18   C     C_R   0.771601 0.456657 0.475285 -0.147940
C19   C     C_R   0.711698 0.439268 0.449871 0.432284
C20   C     C_R   0.674471 0.524981 0.508624 -0.300609
C21   C     C_R   0.698480 0.628953 0.588318 0.302835
C22   C     C_R   0.758507 0.638145 0.621308 0.522862
C23   C     C_R   0.492995 0.738059 0.501795 0.864584
C24   C     C_R   0.794800 0.552480 0.563054 0.026227
C25   C     C_R   0.548520 0.118195 0.728727 0.513397
C26   C     C_R   0.544546 0.063079 0.855495 0.211060
C27   C     C_R   0.507988 0.954557 0.869610 0.621155
C28   C     C_R   0.479641 0.894849 0.757822 0.351653
C29   C     C_R   0.491124 0.941196 0.627416 -0.257432
C30   C     C_R   0.516140 0.063072 0.617020 -0.167050
C31   C     C_R   0.506986 0.125215 0.495255 -0.171945
C32   C     C_R   0.487731 0.057246 0.377320 0.382731
C33   C     C_R   0.475992 0.928803 0.383960 0.582545
C34   C     C_R   0.610983 0.502587 0.501429 0.867800
C35   C     C_R   0.481909 0.869802 0.506548 -0.239182
C36   C     C_R   0.409214 0.361179 0.130711 0.563208
C37   C     C_R   0.358727 0.315515 0.059711 0.172832
C38   C     C_R   0.359535 0.311844 0.920388 0.300064
C39   C     C_R   0.409664 0.356827 0.856017 0.601414
C40   C     C_R   0.455774 0.430614 0.924397 -0.188698
C41   C     C_R   0.455615 0.431708 0.068423 -0.156046
C42   C     C_R   0.541668 0.567615 0.077236 0.564243
C43   C     C_R   0.541397 0.568974 0.933429 0.409621
C44   C     C_R   0.889709 0.665813 0.559670 0.709446
C45   C     C_R   0.879752 0.464320 0.659496 0.641827
C46   C     C_R   0.940261 0.466350 0.683754 -0.223383
C47   C     C_R   0.975491 0.571905 0.644275 -0.152488
C48   C     C_R   0.949977 0.675471 0.587905 -0.241038
H1    H     H_    0.800415 0.391643 0.430693 0.220244
N1    N     N_R   0.856181 0.561264 0.594983 -0.340729
N2    N     N_R   0.155150 0.555729 0.634508 -0.338835
N3    N     N_R   0.499460 0.498800 0.142780 -0.105280
N4    N     N_R   0.499440 0.498720 0.857170 -0.125553
O1    O     O_R   0.500000 0.316780 0.614690 -0.521797
O2    O     O_2   0.844550 0.366237 0.698869 -0.419019
O3    O     O_2   0.151424 0.386095 0.782910 -0.377196
O4    O     O_2   0.168490 0.776968 0.626999 -0.360156
O5    O     O_R   0.500000 0.316750 0.385360 -0.510995
O6    O     O_R   0.416160 0.499970 0.614690 -0.548002
O7    O     O_R   0.416150 0.499950 0.385360 -0.574492
O8    O     O_R   0.500000 0.683250 0.614640 -0.645023
O9    O     O_R   0.500000 0.683220 0.385310 -0.516738
O10   O     O_R   0.583850 0.500050 0.614640 -0.578306
O11   O     O_R   0.583840 0.500030 0.385310 -0.581193
O12   O     O_2   0.864759 0.758598 0.494989 -0.405568
Zn1   Zn    Zn3+2 0.500000 0.500020 0.653130 1.069344
Zn2   Zn    Zn3+2 0.500000 0.499980 0.346870 1.117438
F1    F     F_    0.934157 0.263958 0.787228 -0.517309
O13   O     O_3   0.692103 0.335460 0.371735 -0.676348
H2    H     H_    0.648976 0.325542 0.370476 0.352901
O14   O     O_3   0.664613 0.722197 0.635781 -0.725200
H3    H     H_    0.629612 0.726015 0.576733 0.339176
O15   O     O_3   0.783427 0.729366 0.709806 -0.675878
H4    H     H_    0.752794 0.779509 0.748387 0.407941
O16   O     O_3   0.482637 0.117184 0.256566 -0.650137
H5    H     H_    0.464924 0.058532 0.186336 0.423348
F2    F     F_    0.586925 0.219149 0.712446 -0.638548
O17   O     O_3   0.573913 0.114799 0.968020 -0.647933
H6    H     H_    0.596144 0.193570 0.944051 0.392496
F3    F     F_    0.500073 0.906087 0.992932 -0.548309
O18   O     O_3   0.437869 0.798885 0.780933 -0.661875
H7    H     H_    0.411820 0.786957 0.700428 0.353142
F4    F     F_    0.459454 0.861190 0.270351 -0.588454
O19   O     O_3   0.583167 0.637746 0.154573 -0.686621
H8    H     H_    0.611625 0.682700 0.096462 0.387010
F5    F     F_    0.051070 0.265865 0.811200 -0.508232
F6    F     F_    0.414462 0.315746 0.253428 -0.615800
O20   O     O_3   0.310991 0.260719 0.124193 -0.670454
H9    H     H_    0.314265 0.282224 0.221481 0.393712
O21   O     O_3   0.314306 0.254127 0.842714 -0.589522
H10   H     H_    0.280679 0.230220 0.899665 0.424410
F7    F     F_    0.413415 0.310692 0.731062 -0.599109
O22   O     O_3   0.583912 0.643878 0.873414 -0.733700
H11   H     H_    0.570942 0.656896 0.780830 0.397771
F8    F     F_    0.078889 0.891916 0.547130 -0.502854
F9    F     F_    0.962364 0.887911 0.510541 -0.515878
O23   O     O_3   0.209808 0.702183 0.407431 -0.584491
H12   H     H_    0.169586 0.665390 0.387873 0.338494
O24   O     O_3   0.326746 0.712281 0.397781 -0.631114
H13   H     H_    0.368777 0.699784 0.389827 0.345479
O25   O     O_3   0.312860 0.279633 0.549639 -0.571843
H14   H     H_    0.350401 0.277633 0.502506 0.368580
F10   F     F_    0.200014 0.303007 0.592360 -0.510191

loop_
_geom_bond_atom_site_label_1
_geom_bond_atom_site_label_2
_ccdc_geom_bond_type
O25   H14   S    
O15   H4    S    
C37   O20   S    
C19   C20   A    
C9    N2    A    
O16   H5    S    
C17   N2    S    
C32   O16   S    
O18   H7    S    
C44   O12   S    
C7    C8    A    
C45   C46   A    
C2    C46   A    
C5    C47   A    
C26   C27   A    
C29   C30   A    
O9    Zn2   S    
C21   O14   S    
C25   F2    S    
C28   C29   A    
C2    F1    S    
O6    Zn1   S    
C30   C31   A    
C15   C16   A    
C1    C31   S    
C18   C19   A    
C43   O22   S    
C12   O6    A    
O8    Zn1   S    
C43   N4    A    
C23   O9    A    
C11   C17   A    
C47   C48   A    
O7    Zn2   S    
C16   C17   A    
C8    F9    S    
C18   C24   A    
C41   N3    A    
C20   C34   S    
O10   Zn1   S    
C21   C22   A    
C3    F5    S    
C36   C41   A    
C10   N2    A    
O23   H12   S    
C36   F6    S    
C24   N1    S    
C38   C39   A    
O11   Zn2   S    
C10   O4    S    
C42   O19   S    
O19   H8    S    
C27   F3    S    
C39   C40   A    
O17   H6    S    
C25   C26   A    
C13   O24   S    
C1    O1    A    
C8    C48   A    
C37   C38   A    
C16   F10   S    
O24   H13   S    
C20   C21   A    
C34   O11   A    
C9    O3    S    
C26   O17   S    
C15   O25   S    
N4    Zn1   S    
C33   F4    S    
N3    Zn2   S    
C40   C41   A    
C12   C14   S    
C23   C35   S    
C22   C24   A    
C19   O13   S    
C42   C43   A    
C3    C4    A    
C39   F7    S    
C44   N1    A    
C25   C30   A    
C38   O21   S    
C46   C47   A    
C36   C37   A    
C28   O18   S    
C31   C32   A    
C4    C5    A    
C6    C10   A    
C6    C7    A    
O1    Zn1   S    
C7    F8    S    
O22   H11   S    
C29   C35   A    
C11   O23   S    
C32   C33   A    
C2    C3    A    
O14   H3    S    
C1    O5    A    
C11   C13   A    
O21   H10   S    
C5    C6    A    
C45   N1    A    
C34   O10   A    
C33   C35   A    
O13   H2    S    
C12   O7    A    
O5    Zn2   S    
C23   O8    A    
O20   H9    S    
C45   O2    S    
C40   N4    A    
C27   C28   A    
C14   C15   A    
C22   O15   S    
C4    C9    A    
C13   C14   A    
C44   C48   A    
C18   H1    S    
C42   N3    A    
