data_mof_unit_43640.cif
_audit_creation_date              2012-12-11T14:15:17-0500
_audit_creation_method            fapswitch 2.2
_symmetry_space_group_name_H-M    P1
_symmetry_Int_Tables_number       1
_space_group_crystal_system       triclinic
_cell_length_a                    11.173574
_cell_length_b                    12.653123
_cell_length_c                    23.513685
_cell_angle_alpha                 90.516771
_cell_angle_beta                  96.564172
_cell_angle_gamma                 68.709069
_cell_volume                      3075.28408117

loop_
_atom_site_label
_atom_site_type_symbol
_atom_type_description
_atom_site_fract_x
_atom_site_fract_y
_atom_site_fract_z
_atom_type_partial_charge
C1    C     C_R   0.148886 0.616140 0.428635 0.541135
C2    C     C_R   0.586028 0.593915 0.328127 0.010331
C3    C     C_R   0.672332 0.744326 0.326462 -0.126423
C4    C     C_R   0.641014 0.758519 0.267121 -0.020276
C5    C     C_R   0.593865 0.679810 0.237830 0.017969
C6    C     C_R   0.554770 0.696257 0.178942 0.228617
C7    C     C_R   0.622314 0.858924 0.177141 -0.188880
C8    C     C_R   0.659285 0.846195 0.236046 0.006113
C9    C     C_1   0.235661 0.162528 0.123041 0.030013
C10   C     C_2   0.179267 0.232899 0.226546 -0.091826
C11   C     C_2   0.158270 0.162961 0.263389 -0.110117
C12   C     C_R   0.738515 0.609548 0.408443 0.535160
C13   C     C_1   0.134048 0.197171 0.320995 -0.016046
C14   C     C_1   0.209761 0.197402 0.169762 -0.004937
C15   C     C_1   0.116836 0.231070 0.368638 0.027104
C16   C     C_1   0.164264 0.755592 0.123348 0.091059
C17   C     C_2   0.142204 0.723616 0.231669 -0.092820
C18   C     C_2   0.202861 0.624922 0.261708 0.017435
C19   C     C_1   0.195795 0.625380 0.322436 -0.055884
C20   C     C_1   0.151021 0.738002 0.171933 0.048085
C21   C     C_1   0.181629 0.624146 0.372324 0.023993
C22   C     C_1   0.628888 0.756619 0.864980 0.046982
C23   C     C_R   0.101263 0.282143 0.423425 0.554302
C24   C     C_2   0.700354 0.711961 0.761210 -0.089301
C25   C     C_2   0.613707 0.703258 0.718800 -0.106932
C26   C     C_1   0.651673 0.669976 0.662790 -0.012294
C27   C     C_1   0.664614 0.737500 0.818173 -0.012996
C28   C     C_1   0.690239 0.640151 0.617245 0.021990
C29   C     C_R   0.204118 0.177859 0.852577 0.019370
C30   C     C_R   0.113928 0.214035 0.638720 0.036715
C31   C     C_R   0.002672 0.181351 0.715693 -0.073688
C32   C     C_R   0.004240 0.202496 0.657746 -0.091484
C33   C     C_R   0.225686 0.195333 0.677833 0.010697
C34   C     C_R   0.150903 0.616781 0.590903 0.518376
C35   C     C_R   0.210959 0.203144 0.736100 0.011789
C36   C     C_R   0.103661 0.185986 0.755462 0.036918
C37   C     C_R   0.102955 0.169315 0.814092 -0.119630
C38   C     C_R   0.292146 0.221190 0.833294 -0.094704
C39   C     C_R   0.299003 0.229352 0.775435 -0.143936
C40   C     C_R   0.120546 0.741948 0.852766 0.017369
C41   C     C_R   0.198226 0.635041 0.649748 -0.042158
C42   C     C_R   0.289743 0.545343 0.743311 -0.145578
C43   C     C_R   0.280245 0.540810 0.684040 -0.140892
C44   C     C_R   0.136316 0.737663 0.675825 0.051378
C45   C     C_R   0.749499 0.602543 0.566005 0.537118
C46   C     C_R   0.121351 0.733851 0.734458 0.060554
C47   C     C_R   0.207468 0.640276 0.769594 -0.047942
C48   C     C_R   0.206930 0.644074 0.829603 -0.027412
C49   C     C_R   0.011203 0.814289 0.816960 -0.011649
C50   C     C_R   0.014111 0.812931 0.757444 0.200387
C51   C     C_R   0.265869 0.109992 0.069462 0.541389
C52   C     C_R   0.537308 0.796997 0.085993 0.568313
C53   C     C_R   0.187496 0.787092 0.068726 0.563550
C54   C     C_R   0.241486 0.115506 0.907562 0.551582
C55   C     C_R   0.574163 0.776378 0.918168 0.565120
C56   C     C_R   0.100948 0.275873 0.584449 0.559775
C57   C     C_R   0.162568 0.785042 0.907424 0.594859
C58   C     C_R   0.572132 0.784498 0.148267 -0.012877
C59   C     C_R   0.654218 0.657037 0.355833 -0.088495
C60   C     C_R   0.581337 0.589384 0.268978 0.292330
Cr1   Cr    Cr6+3 0.189770 0.415650 0.511620 1.067870
Cr2   Cr    Cr6+3 0.930400 0.667320 0.496770 1.071670
Cr3   Cr    Cr6+3 0.879870 0.417010 0.491650 1.056489
Cr4   Cr    Cr6+3 0.149500 0.973980 0.985330 1.058628
Cr5   Cr    Cr6+3 0.457000 0.976510 0.994660 1.067210
Cr6   Cr    Cr6+3 0.411170 0.724270 0.995270 1.130249
H1    H     H_    0.091545 0.799905 0.253723 0.140498
H2    H     H_    0.514921 0.717780 0.726405 0.136405
H3    H     H_    0.799547 0.696035 0.753813 0.172438
H4    H     H_    0.030597 0.141384 0.828994 0.124897
H5    H     H_    0.366035 0.235821 0.862797 0.154406
H6    H     H_    0.919215 0.169364 0.729674 0.142997
H7    H     H_    0.373670 0.255691 0.762158 0.085738
H8    H     H_    0.918579 0.213252 0.628181 0.147805
H9    H     H_    0.635591 0.926180 0.153434 0.145126
H10   H     H_    0.354023 0.470104 0.767500 0.100549
H11   H     H_    0.332509 0.461298 0.665199 0.141201
H12   H     H_    0.715508 0.797200 0.350399 0.206527
H13   H     H_    0.162383 0.078927 0.250920 0.133846
H14   H     H_    0.175625 0.316644 0.239220 0.145474
O1    O     O_R   0.196340 0.303200 0.448500 -0.491485
O2    O     O_R   0.811960 0.658090 0.547150 -0.477598
O3    O     O_R   0.757930 0.506140 0.547110 -0.521864
O4    O     O_R   0.988670 0.321620 0.556040 -0.513562
O5    O     O_3   0.000020 0.499990 0.500010 -0.261745
O6    O     O_R   0.113660 0.883270 0.047820 -0.514560
O7    O     O_R   0.186930 0.068530 0.043990 -0.498285
O8    O     O_R   0.377770 0.089040 0.054220 -0.502356
O9    O     O_R   0.562800 0.872960 0.056970 -0.502106
O10   O     O_R   0.555390 0.700940 0.062700 -0.430581
O11   O     O_R   0.295020 0.731920 0.049950 -0.445612
O12   O     O_R   0.199310 0.519670 0.454880 -0.494108
O13   O     O_R   0.094290 0.884230 0.921550 -0.482752
O14   O     O_R   0.168980 0.069410 0.926940 -0.503017
O15   O     O_R   0.358400 0.089990 0.927950 -0.508021
O16   O     O_R   0.544850 0.873850 0.939920 -0.471766
O17   O     O_R   0.536020 0.701900 0.936430 -0.512507
O18   O     O_R   0.277070 0.732810 0.932890 -0.479510
O19   O     O_3   0.339220 0.891590 0.991750 -0.305727
O20   O     O_R   0.045660 0.691380 0.441680 -0.490104
O21   O     O_R   0.811930 0.659460 0.430950 -0.493200
O22   O     O_R   0.757900 0.507620 0.421760 -0.502706
O23   O     O_R   0.988630 0.322990 0.439840 -0.479906
O24   O     O_R   0.196380 0.301720 0.573850 -0.475034
O25   O     O_R   0.199350 0.518300 0.571080 -0.503033
O26   O     O_R   0.045700 0.689900 0.567030 -0.512049
Cl1   Cl    Cl    0.466558 0.616187 0.145648 -0.468277
C61   C     C_2   0.357374 0.158417 0.658684 0.266220
H15   H     H_    0.437629 0.170442 0.684592 0.102025
O27   O     O_2   0.379388 0.107487 0.614385 -0.459665
C62   C     C_2   0.295213 0.547825 0.868078 0.257393
H16   H     H_    0.392205 0.498996 0.858481 0.091679
O28   O     O_2   0.259251 0.522008 0.911219 -0.471692
C63   C     C_2   0.893478 0.889764 0.841148 0.276543
H17   H     H_    0.829252 0.967391 0.818395 0.150948
O29   O     O_2   0.865018 0.863972 0.886264 -0.487699
Cl2   Cl    Cl    0.873715 0.895835 0.711696 -0.615688
C64   C     C_2   0.107434 0.847001 0.643902 0.303206
H18   H     H_    0.106203 0.849997 0.597791 0.126288
O30   O     O_2   0.094514 0.934203 0.669374 -0.477492
Cl3   Cl    Cl    0.611047 0.453058 0.240111 -0.427096
C65   C     C_2   0.719002 0.925526 0.261848 0.225995
H19   H     H_    0.683471 0.012922 0.245712 0.134741
O31   O     O_2   0.813617 0.893000 0.297862 -0.509069
C66   C     C_2   0.529093 0.528512 0.361979 0.281469
H20   H     H_    0.518754 0.546414 0.406774 0.102254
O32   O     O_2   0.491154 0.456314 0.340830 -0.477619
C67   C     C_2   0.268054 0.513908 0.235969 0.323569
H21   H     H_    0.315020 0.438678 0.263672 0.157598
O33   O     O_2   0.267693 0.503731 0.184287 -0.431163

loop_
_geom_bond_atom_site_label_1
_geom_bond_atom_site_label_2
_ccdc_geom_bond_type
C1    C21   S    
C50   Cl2   S    
C6    C58   A    
C52   O10   A    
C35   C36   A    
C9    C51   S    
C24   C27   S    
C4    C8    A    
C67   H21   S    
C63   H17   S    
C7    C8    A    
Cr6   O10   S    
Cr5   O9    S    
C33   C61   S    
Cr6   O17   S    
C36   C37   A    
C19   C21   T    
C62   H16   S    
Cr4   O13   S    
C32   H8    S    
C5    C6    A    
C2    C60   A    
C29   C54   S    
C40   C49   A    
C17   C20   S    
C61   H15   S    
C18   C19   S    
C46   C47   A    
C16   C53   S    
C18   C67   S    
C64   H18   S    
C12   C59   S    
Cr4   O19   S    
C23   O23   A    
C45   O2    A    
C29   C38   A    
C53   O11   A    
C6    Cl1   S    
C53   O6    A    
C11   H13   S    
Cr1   O25   S    
C7    C58   A    
C30   C33   A    
Cr1   O12   S    
Cr2   O21   S    
C15   C23   S    
C49   C63   S    
Cr2   O2    S    
C57   O13   A    
C37   H4    S    
Cr3   O5    S    
C41   C43   A    
C52   O9    A    
C45   O3    A    
C25   H2    S    
Cr3   O22   S    
C1    O20   A    
Cr4   O6    S    
C44   C46   A    
C24   H3    S    
C56   O4    A    
Cr5   O16   S    
C52   C58   S    
Cr2   O5    S    
C28   C45   S    
C17   H1    S    
C34   O26   A    
C47   C48   A    
Cr1   O24   S    
C24   C25   D    
Cr5   O19   S    
Cr3   O23   S    
C10   C14   S    
C51   O7    A    
C10   H14   S    
C2    C59   A    
C55   O16   A    
C7    H9    S    
C25   C26   S    
C30   C56   S    
Cr3   O3    S    
Cr6   O19   S    
C35   C39   A    
C9    C14   T    
C12   O22   A    
C31   C32   A    
C44   C64   S    
C16   C20   T    
C55   O17   A    
C17   C18   D    
C62   O28   D    
C56   O24   A    
C54   O15   A    
Cr6   O11   S    
Cr1   O5    S    
Cr2   O20   S    
C31   H6    S    
C1    O12   A    
C22   C27   T    
C13   C15   T    
C66   H20   S    
C41   C44   A    
C42   C43   A    
C65   O31   D    
C3    C4    A    
Cr5   O8    S    
C40   C48   A    
C38   H5    S    
C40   C57   S    
Cr4   O7    S    
C5    C60   A    
C34   O25   A    
C26   C28   T    
C23   O1    A    
C4    C5    A    
C67   O33   D    
C51   O8    A    
C63   O29   D    
C22   C55   S    
Cr2   O26   S    
C43   H11   S    
C46   C50   A    
C42   H10   S    
Cr3   O4    S    
Cr6   O18   S    
Cr4   O14   S    
C12   O21   A    
C34   C41   S    
Cr1   O1    S    
C30   C32   A    
C11   C13   S    
C8    C65   S    
C38   C39   A    
C57   O18   A    
C33   C35   A    
C61   O27   D    
C42   C47   A    
C39   H7    S    
C60   Cl3   S    
C64   O30   D    
C54   O14   A    
C10   C11   D    
C2    C66   S    
Cr5   O15   S    
C48   C62   S    
C49   C50   A    
C29   C37   A    
C66   O32   D    
C31   C36   A    
C65   H19   S    
C3    H12   S    
C3    C59   A    
