data_mof_unit_8644.cif
_audit_creation_date              2012-10-26T20:32:04-0400
_audit_creation_method            fapswitch 2.2
_symmetry_space_group_name_H-M    P1
_symmetry_Int_Tables_number       1
_space_group_crystal_system       triclinic
_cell_length_a                    10.641881
_cell_length_b                    10.804712
_cell_length_c                    9.538078
_cell_angle_alpha                 90.255349
_cell_angle_beta                  90.232843
_cell_angle_gamma                 90.552634
_cell_volume                      1096.64051171

loop_
_atom_site_label
_atom_site_type_symbol
_atom_type_description
_atom_site_fract_x
_atom_site_fract_y
_atom_site_fract_z
_atom_type_partial_charge
C1    C     C_R   0.509602 0.262514 0.499431 0.567958
C2    C     C_R   0.525293 0.937271 0.625491 0.008844
C3    C     C_3   0.441519 0.932324 0.750383 -0.253990
C4    C     C_R   0.259269 0.499928 0.499544 0.601854
C5    C     C_3   0.445842 0.073064 0.750012 -0.252558
C6    C     C_R   0.553911 0.595809 0.074362 0.163969
C7    C     C_R   0.435891 0.412183 0.073727 -0.006780
C8    C     C_R   0.435780 0.412242 0.924783 -0.003198
C9    C     C_R   0.553770 0.595866 0.927001 0.156873
C10   C     C_3   0.687648 0.637384 0.921762 -0.275872
C11   C     C_3   0.687943 0.637089 0.080974 -0.277904
C12   C     C_3   0.958939 0.607159 0.445469 -0.130930
C13   C     C_R   0.504361 0.737730 0.500265 0.541087
C14   C     C_R   0.740615 0.500674 0.500318 0.540607
C15   C     C_3   0.039063 0.394086 0.552761 0.030096
C16   C     C_3   0.955165 0.404590 0.421752 -0.139266
C17   C     C_3   0.877155 0.500610 0.500825 0.026510
C18   C     C_3   0.959148 0.488619 0.632764 -0.134910
C19   C     C_3   0.043456 0.595172 0.577164 -0.140382
C20   C     C_2   0.079879 0.272745 0.611199 0.204072
C21   C     C_2   0.605169 0.123145 0.242111 0.220855
C22   C     C_3   0.039693 0.511154 0.366650 -0.126607
C23   C     C_3   0.122318 0.499209 0.498445 0.061446
C24   C     C_R   0.528891 0.064127 0.624372 0.006806
C25   C     C_R   0.533853 0.129760 0.498343 -0.021357
C26   C     C_R   0.563381 0.062622 0.373795 -0.014349
C27   C     C_R   0.554255 0.932753 0.376058 -0.123387
C28   C     C_R   0.524062 0.870439 0.500573 -0.019877
Cu1   Cu    Cu3+1 0.499990 0.499980 0.640670 0.960124
Cu2   Cu    Cu3+1 0.500010 0.500020 0.359330 0.939995
H1    H     H_    0.916263 0.326335 0.358820 0.104168
H2    H     H_    0.698606 0.731102 0.127498 0.131686
H3    H     H_    0.924962 0.478232 0.741857 0.108129
H4    H     H_    0.082114 0.673297 0.640428 0.114545
H5    H     H_    0.922529 0.694781 0.401368 0.113846
H6    H     H_    0.074681 0.520473 0.257673 0.124351
H7    H     H_    0.568854 0.880625 0.280291 0.170457
H8    H     H_    0.346977 0.893070 0.725566 0.142023
H9    H     H_    0.010614 0.209587 0.654654 0.097940
H10   H     H_    0.651068 0.213130 0.244648 0.133484
H11   H     H_    0.489061 0.891394 0.843010 0.161062
H12   H     H_    0.353492 0.114843 0.726688 0.196837
H13   H     H_    0.496069 0.113030 0.842319 0.175199
H14   H     H_    0.385982 0.339774 0.128969 0.135512
H15   H     H_    0.385518 0.340065 0.868407 0.137118
H16   H     H_    0.750431 0.566476 0.876058 0.147719
H17   H     H_    0.697849 0.731547 0.876449 0.134549
H18   H     H_    0.750996 0.565997 0.126072 0.153121
N1    N     N_R   0.500800 0.500930 0.147930 -0.238949
N2    N     N_R   0.500800 0.500890 0.852020 -0.237160
O1    O     O_R   0.500000 0.319640 0.618810 -0.485779
O2    O     O_2   0.592039 0.071298 0.128865 -0.550666
O3    O     O_R   0.500010 0.319680 0.381230 -0.520202
O4    O     O_R   0.316850 0.499950 0.618770 -0.479703
O5    O     O_R   0.316860 0.499990 0.381190 -0.503908
O6    O     O_R   0.499990 0.680320 0.618770 -0.502645
O7    O     O_R   0.500000 0.680360 0.381190 -0.508888
O8    O     O_R   0.683140 0.500010 0.618810 -0.512888
O9    O     O_R   0.683150 0.500050 0.381230 -0.518089
O10   O     O_2   0.190223 0.243799 0.609071 -0.532598

loop_
_geom_bond_atom_site_label_1
_geom_bond_atom_site_label_2
_ccdc_geom_bond_type
C12   C17   S    
C10   H16   S    
C15   C18   S    
C19   C23   S    
C21   C26   S    
C13   C28   S    
Cu1   Cu2   S    
Cu1   O6    S    
C12   C22   S    
C20   O10   D    
C22   H6    S    
C9    C10   S    
C2    C24   A    
C5    H12   S    
C13   O6    A    
Cu2   O9    S    
C3    C5    S    
C6    C9    A    
C15   C23   S    
C2    C3    S    
C11   H18   S    
C7    C8    A    
C4    O5    A    
C7    H14   S    
C24   C25   A    
C16   H1    S    
C1    C25   S    
C14   O9    A    
C1    O1    A    
C14   C17   S    
C26   C27   A    
C5    C24   S    
C27   H7    S    
C12   C19   S    
C18   H3    S    
Cu2   N1    S    
Cu1   O1    S    
C11   H2    S    
C17   C18   S    
Cu1   N2    S    
C6    C11   S    
C6    N1    A    
C5    H13   S    
C15   C20   S    
C14   O8    A    
Cu2   O3    S    
C13   O7    A    
C10   C11   S    
C15   C16   S    
Cu2   O7    S    
C8    N2    A    
C10   H17   S    
Cu1   O8    S    
C7    N1    A    
C18   C19   S    
Cu2   O5    S    
Cu1   O4    S    
C27   C28   A    
C20   H9    S    
C4    C23   S    
C1    O3    A    
C22   C23   S    
C3    H11   S    
C2    C28   A    
C4    O4    A    
C25   C26   A    
C8    H15   S    
C21   O2    D    
C9    N2    A    
C3    H8    S    
C16   C22   S    
C16   C17   S    
C12   H5    S    
C19   H4    S    
C21   H10   S    
