data_mof_unit_10706.cif
_audit_creation_date              2013-03-05T16:48:45-0500
_audit_creation_method            fapswitch 2.2
_symmetry_space_group_name_H-M    P1
_symmetry_Int_Tables_number       1
_space_group_crystal_system       triclinic
_cell_length_a                    27.731438
_cell_length_b                    8.912381
_cell_length_c                    8.098964
_cell_angle_alpha                 90.107207
_cell_angle_beta                  90.012715
_cell_angle_gamma                 89.997133
_cell_volume                      2001.68083676

loop_
_atom_site_label
_atom_site_type_symbol
_atom_site_description
_atom_site_fract_x
_atom_site_fract_y
_atom_site_fract_z
_atom_type_partial_charge
O1    O     O_R   0.500000 0.285350 0.636850 -0.612270
O2    O     O_R   0.500000 0.714650 0.363150 -0.612219
O3    O     O_R   0.500000 0.714650 0.636850 -0.617040
O4    O     O_R   0.500000 0.285350 0.363150 -0.617184
C1    C     C_R   0.500000 0.218004 0.499902 0.941851
C2    C     C_R   0.499999 0.781996 0.500098 0.942103
O5    O     O_R   0.428760 0.500000 0.636860 -0.618843
O6    O     O_R   0.571240 0.500000 0.363140 -0.619199
O7    O     O_R   0.571240 0.500000 0.636860 -0.619156
O8    O     O_R   0.428760 0.500000 0.363140 -0.618928
C3    C     C_R   0.405850 0.499876 0.499968 0.900052
C4    C     C_R   0.594159 0.499925 0.500009 0.900757
Zn1   Zn    Zn3+2 0.500000 0.500000 0.682780 1.008521
Zn2   Zn    Zn3+2 0.500000 0.500000 0.317220 1.008419
C5    C     C_R   0.177871 0.378908 0.568811 0.566936
C6    C     C_R   0.822254 0.621709 0.444413 0.566808
C7    C     C_R   0.177901 0.613766 0.427552 0.566753
C8    C     C_R   0.822190 0.373122 0.553666 0.566971
O9    O     O_2   0.202968 0.265398 0.637899 -0.512232
O10   O     O_2   0.797188 0.741955 0.390639 -0.510332
O11   O     O_2   0.203031 0.727416 0.358951 -0.512299
O12   O     O_2   0.797067 0.253216 0.607984 -0.510203
N1    N     N_R   0.201742 0.496466 0.498537 -0.348879
N2    N     N_R   0.798346 0.497596 0.499354 -0.349022
C9    C     C_R   0.277972 0.564703 0.630566 0.206970
C10   C     C_R   0.721752 0.432602 0.367613 0.208451
C11   C     C_R   0.278349 0.429856 0.368346 0.206871
C12   C     C_R   0.721997 0.563885 0.632033 0.208859
C13   C     C_R   0.328091 0.564091 0.631153 -0.228588
C14   C     C_R   0.671645 0.435147 0.367322 -0.228875
C15   C     C_R   0.328455 0.432528 0.368266 -0.228884
C16   C     C_R   0.671879 0.562699 0.632557 -0.228781
C17   C     C_R   0.253069 0.496818 0.499267 0.195192
C18   C     C_R   0.746996 0.497930 0.499739 0.194212
C19   C     C_R   0.101876 0.496141 0.497459 -0.049279
C20   C     C_R   0.898230 0.496871 0.498124 -0.048759
C21   C     C_R   0.127463 0.376136 0.568955 -0.030009
C22   C     C_R   0.872661 0.624224 0.444057 -0.028140
C23   C     C_R   0.127497 0.616201 0.426297 -0.029916
C24   C     C_R   0.872594 0.369870 0.552771 -0.028213
C25   C     C_R   0.102383 0.256918 0.639787 -0.118031
C26   C     C_R   0.897745 0.751330 0.392328 -0.120696
C27   C     C_R   0.102460 0.735220 0.354825 -0.117925
C28   C     C_R   0.897609 0.242377 0.603786 -0.120496
C29   C     C_R   0.353416 0.498914 0.499801 -0.109725
C30   C     C_R   0.646612 0.499308 0.499969 -0.110241
H1    H     H_    0.347855 0.380575 0.267078 0.183911
H2    H     H_    0.652724 0.613569 0.734917 0.184298
H3    H     H_    0.347205 0.616838 0.732554 0.183910
H4    H     H_    0.652307 0.384779 0.265049 0.184316
H5    H     H_    0.121308 0.164485 0.697603 0.199965
H6    H     H_    0.878825 0.851698 0.353626 0.198996
H7    H     H_    0.121420 0.827583 0.297045 0.200037
H8    H     H_    0.878633 0.142234 0.642818 0.199090
C31   C     C_R   0.974513 0.368539 0.556384 0.046126
C32   C     C_R   0.025587 0.620817 0.430403 0.043770
C33   C     C_R   0.974569 0.624242 0.438364 0.046163
C34   C     C_R   0.025543 0.371536 0.563942 0.043796
C35   C     C_R   0.949313 0.496540 0.497595 0.077532
C36   C     C_R   0.050792 0.496145 0.497228 0.076573
C37   C     C_R   0.947583 0.241080 0.604759 -0.219486
C38   C     C_R   0.052494 0.737666 0.356386 -0.216241
C39   C     C_R   0.947716 0.751973 0.390317 -0.219419
C40   C     C_R   0.052416 0.254451 0.637732 -0.216182
H9    H     H_    0.963936 0.136729 0.641300 0.144323
H10   H     H_    0.036113 0.831803 0.294966 0.146850
H11   H     H_    0.964133 0.856106 0.353378 0.144329
H12   H     H_    0.036008 0.160173 0.698751 0.146803
C41   C     C_1   0.499999 0.065230 0.499859 -0.174088
C42   C     C_1   0.499999 0.934770 0.500140 -0.174130
N3    N     N_1   0.500000 0.500000 0.073640 -0.027669
N4    N     N_1   0.500000 0.500000 0.926360 -0.027640
I1    I     I_    0.242203 0.322392 0.169965 -0.213983
I2    I     I_    0.758508 0.667660 0.831901 -0.216537
I3    I     I_    0.241212 0.670779 0.828434 -0.214213
I4    I     I_    0.757852 0.327960 0.167460 -0.216563

loop_
_geom_bond_atom_site_label_1
_geom_bond_atom_site_label_2
_geom_bond_distance
_ccdc_geom_bond_type
O5    Zn1   2.010207 S    
C31   C35   1.420663 A    
Zn2   N3    1.972746 S    
C20   C35   1.416624 A    
C12   I2    2.120052 S    
C13   H3    1.083876 S    
C11   C17   1.403504 A    
C5    O9    1.350097 S    
C7    N1    1.364743 A    
O1    C1    1.260140 A    
C40   H12   1.076536 S    
C19   C21   1.408796 A    
C22   C26   1.394509 A    
C33   C35   1.420659 A    
C34   C36   1.420582 A    
O7    Zn1   2.010367 S    
C32   C33   1.416602 A    
C7    C23   1.398003 A    
C8    C24   1.398070 A    
C5    C21   1.398123 A    
C1    C41   1.361579 S    
C27   H7    1.083807 S    
N1    C17   1.423394 S    
C10   I4    2.120081 S    
C8    N2    1.364924 A    
O3    Zn1   1.949555 S    
C6    O10   1.350157 S    
O3    C2    1.260715 A    
C5    N1    1.364662 A    
C14   H4    1.083334 S    
C12   C18   1.404290 A    
C6    N2    1.364971 A    
C15   H1    1.083595 S    
C21   C25   1.394375 A    
C16   H2    1.083392 S    
O2    C2    1.260139 A    
C10   C18   1.404110 A    
C33   C39   1.415401 A    
C9    C13   1.389884 A    
C39   H11   1.076684 S    
C38   H10   1.076628 S    
C11   C15   1.389723 A    
C12   C16   1.389909 A    
C4    C30   1.454607 S    
O8    Zn2   2.010370 S    
C23   C27   1.394391 A    
C34   C40   1.415434 A    
N2    C18   1.424036 S    
C32   C36   1.420596 A    
C13   C29   1.400118 A    
C19   C36   1.416625 A    
C9    I3    2.120376 S    
C19   C23   1.408714 A    
C37   H9    1.076617 S    
O5    C3    1.277691 A    
C20   C24   1.408740 A    
O6    C4    1.277666 A    
C10   C14   1.389727 A    
C32   C38   1.415364 A    
C3    C29   1.454102 S    
O1    Zn1   1.948190 S    
C2    C42   1.361581 S    
O6    Zn2   2.010205 S    
C8    O12   1.350161 S    
C16   C30   1.400238 A    
C14   C30   1.400359 A    
O4    C1    1.260714 A    
Zn1   N4    1.972746 S    
C28   C37   1.385897 A    
C20   C22   1.408696 A    
N3    N4    1.192815 T    
C31   C37   1.415458 A    
O4    Zn2   1.949556 S    
C41   C42   1.162718 T    
O2    Zn2   1.948189 S    
O7    C4    1.277777 A    
C7    O11   1.350050 S    
C9    C17   1.403953 A    
O8    C3    1.277496 A    
C28   H8    1.083793 S    
C24   C28   1.394494 A    
C15   C29   1.400497 A    
C31   C34   1.416712 A    
C26   H6    1.083794 S    
C25   C40   1.385934 A    
C11   I1    2.120643 S    
C26   C39   1.385874 A    
C25   H5    1.083814 S    
C27   C38   1.385868 A    
C6    C22   1.398024 A    
