data_mof_unit_17103.cif
_audit_creation_date              2012-12-10T18:57:40-0500
_audit_creation_method            fapswitch 2.2
_symmetry_space_group_name_H-M    P1
_symmetry_Int_Tables_number       1
_space_group_crystal_system       triclinic
_cell_length_a                    10.910717
_cell_length_b                    10.817689
_cell_length_c                    9.553345
_cell_angle_alpha                 89.546916
_cell_angle_beta                  89.696601
_cell_angle_gamma                 89.921869
_cell_volume                      1127.51725601

loop_
_atom_site_label
_atom_site_type_symbol
_atom_type_description
_atom_site_fract_x
_atom_site_fract_y
_atom_site_fract_z
_atom_type_partial_charge
C1    C     C_R   0.497196 0.262348 0.500646 0.809353
C2    C     C_R   0.480633 0.129670 0.502611 -0.168031
C3    C     C_R   0.434358 0.068844 0.385018 -0.299425
C4    C     C_R   0.425475 0.939514 0.383301 0.378671
C5    C     C_R   0.471074 0.870736 0.499835 -0.233521
C6    C     C_R   0.494940 0.934884 0.623109 0.107625
C7    C     C_3   0.596585 0.922792 0.726335 -0.445463
C8    C     C_3   0.601420 0.063063 0.727537 -0.446842
C9    C     C_R   0.558705 0.591122 0.072735 0.322285
C10   C     C_R   0.431619 0.417641 0.075538 -0.051456
C11   C     C_R   0.431349 0.417851 0.926657 -0.056549
C12   C     C_R   0.265507 0.505429 0.500548 0.839247
C13   C     C_R   0.561065 0.589675 0.925788 0.205497
C14   C     C_3   0.695464 0.619493 0.923454 0.259619
C15   C     C_3   0.690161 0.625029 0.082489 -0.569241
C16   C     C_R   0.491233 0.737508 0.499309 0.840004
C17   C     C_R   0.734562 0.494670 0.499454 0.718004
C18   C     C_2   0.932855 0.536061 0.398975 -0.279317
C19   C     C_2   0.866890 0.474794 0.496528 0.368404
C20   C     C_2   0.066264 0.525510 0.389251 -0.093119
C21   C     C_2   0.134119 0.521303 0.505057 -0.236214
C22   C     C_R   0.498723 0.061657 0.624945 0.139524
Cu1   Cu    Cu3+1 0.499990 0.499980 0.640670 0.979103
Cu2   Cu    Cu3+1 0.500010 0.500020 0.359330 0.998756
H1    H     H_    0.887827 0.593349 0.320785 0.126465
H2    H     H_    0.687567 0.100240 0.681888 0.174008
H3    H     H_    0.378194 0.349352 0.132193 0.140660
H4    H     H_    0.377627 0.349846 0.871799 0.146076
H5    H     H_    0.714816 0.709436 0.870250 0.075918
H6    H     H_    0.745853 0.552253 0.134553 0.227423
H7    H     H_    0.702978 0.719874 0.123747 0.181381
H8    H     H_    0.108480 0.525272 0.286017 0.178200
H9    H     H_    0.092567 0.533219 0.607636 0.176390
H10   H     H_    0.407541 0.121801 0.293447 0.201726
H11   H     H_    0.564603 0.882353 0.827419 0.224680
H12   H     H_    0.680133 0.879487 0.680845 0.178761
H13   H     H_    0.573463 0.103379 0.829534 0.218894
N1    N     N_R   0.500780 0.500930 0.147930 -0.179608
N2    N     N_R   0.500780 0.500890 0.852020 -0.180542
O1    O     O_R   0.500000 0.319640 0.618810 -0.584962
O2    O     O_R   0.500010 0.319680 0.381230 -0.590559
O3    O     O_R   0.321940 0.499980 0.618760 -0.593094
O4    O     O_R   0.321950 0.500020 0.381180 -0.557115
O5    O     O_R   0.499990 0.680320 0.618770 -0.594685
O6    O     O_R   0.500000 0.680360 0.381190 -0.512252
O7    O     O_R   0.678050 0.499980 0.618820 -0.527200
O8    O     O_R   0.678060 0.500020 0.381240 -0.613889
O9    O     O_3   0.767138 0.518556 0.877866 -0.530790
C23   C     C_3   0.890818 0.555739 0.868221 -0.236439
H14   H     H_    0.923537 0.598422 0.966880 0.144540
H15   H     H_    0.904223 0.620669 0.778619 0.154705
H16   H     H_    0.948411 0.472923 0.849646 0.212896
O10   O     O_3   0.924774 0.394296 0.589997 -0.589397
C24   C     C_3   0.855620 0.285974 0.613398 -0.294367
H17   H     H_    0.816385 0.248754 0.514874 0.133202
H18   H     H_    0.782566 0.302767 0.692284 0.211675
H19   H     H_    0.917163 0.213905 0.657192 0.183895
S1    S     S_3+6 0.357056 0.872655 0.234224 -0.002743
O11   O     O_2   0.456010 0.837924 0.132090 -0.299247
O12   O     O_2   0.284155 0.759733 0.273636 -0.302682
O13   O     O_3   0.263466 0.975462 0.156013 -0.527230
H20   H     H_    0.197702 0.991293 0.225508 0.338386

loop_
_geom_bond_atom_site_label_1
_geom_bond_atom_site_label_2
_ccdc_geom_bond_type
C16   O6    A    
C2    C22   A    
C8    C22   S    
Cu1   Cu2   S    
C15   H7    S    
C6    C7    S    
C13   C14   S    
C8    H2    S    
C7    H12   S    
C16   O5    A    
Cu2   N1    S    
C3    H10   S    
C10   H3    S    
C10   N1    A    
C23   H16   S    
C19   O10   S    
S1    O13   S    
C12   O3    A    
C2    C3    A    
C9    C15   S    
C7    C8    S    
Cu1   O7    S    
O10   C24   S    
C17   O7    A    
C11   N2    A    
Cu2   O2    S    
Cu1   O3    S    
C5    C6    A    
C18   H1    S    
C11   H4    S    
Cu1   N2    S    
Cu2   O6    S    
C1    O2    A    
O9    C23   S    
C17   C19   S    
C23   H14   S    
C12   O4    A    
C18   C20   S    
C20   H8    S    
O13   H20   S    
C24   H18   S    
C13   N2    A    
C21   H9    S    
C8    H13   S    
C14   H5    S    
S1    O12   D    
Cu1   O1    S    
C6    C22   A    
C9    N1    A    
C20   C21   D    
C3    C4    A    
C15   H6    S    
C1    C2    S    
C10   C11   A    
C4    S1    S    
Cu2   O4    S    
C9    C13   A    
C24   H17   S    
C18   C19   D    
C5    C16   S    
C14   O9    S    
C1    O1    A    
S1    O11   D    
C14   C15   S    
Cu2   O8    S    
C7    H11   S    
C12   C21   S    
Cu1   O5    S    
C17   O8    A    
C4    C5    A    
C23   H15   S    
C24   H19   S    
