data_mof_unit_11557.cif
_audit_creation_date              2013-03-05T15:49:19-0500
_audit_creation_method            fapswitch 2.2
_symmetry_space_group_name_H-M    P1
_symmetry_Int_Tables_number       1
_space_group_crystal_system       triclinic
_cell_length_a                    23.66164
_cell_length_b                    25.445844
_cell_length_c                    8.430162
_cell_angle_alpha                 89.999548
_cell_angle_beta                  98.919369
_cell_angle_gamma                 90.043624
_cell_volume                      5014.34003439

loop_
_atom_site_label
_atom_site_type_symbol
_atom_site_description
_atom_site_fract_x
_atom_site_fract_y
_atom_site_fract_z
_atom_type_partial_charge
P1    P     P_3+3 0.883430 0.443490 0.026090 0.538685
P2    P     P_3+3 0.883430 0.556510 0.526090 0.544000
P3    P     P_3+3 0.383430 0.943490 0.026090 0.539627
P4    P     P_3+3 0.383430 0.056510 0.526090 0.543204
O1    O     O_2   0.888900 0.426190 0.854560 -0.302760
O2    O     O_2   0.888900 0.573810 0.354560 -0.305251
O3    O     O_2   0.388900 0.926190 0.854560 -0.303546
O4    O     O_2   0.388900 0.073810 0.354560 -0.304893
O5    O     O_3   0.935290 0.474120 0.115310 -0.374423
O6    O     O_3   0.935290 0.525880 0.615310 -0.370221
O7    O     O_3   0.435290 0.974120 0.115310 -0.373855
O8    O     O_3   0.435290 0.025880 0.615310 -0.370590
O9    O     O_3   0.980700 0.380570 0.633410 -0.318084
O10   O     O_3   0.980700 0.619430 0.133410 -0.336952
O11   O     O_3   0.480700 0.880570 0.633410 -0.318786
O12   O     O_3   0.480700 0.119430 0.133410 -0.335937
O13   O     O_2   0.883593 0.342900 0.696531 -0.251895
O14   O     O_2   0.888589 0.662404 0.214362 -0.266445
O15   O     O_2   0.383630 0.842896 0.696958 -0.252893
O16   O     O_2   0.388574 0.162444 0.214016 -0.265993
O17   O     O_3   0.818129 0.477873 0.007360 -0.629757
O18   O     O_3   0.818032 0.522203 0.506403 -0.626621
O19   O     O_3   0.318126 0.977868 0.007274 -0.628913
O20   O     O_3   0.318023 0.022259 0.506872 -0.628261
O21   O     O_3   0.959648 0.271816 0.696079 -0.550526
O22   O     O_3   0.967350 0.729001 0.170412 -0.547690
O23   O     O_3   0.459654 0.771827 0.695961 -0.550379
O24   O     O_3   0.467408 0.229040 0.170286 -0.547683
C1    C     C_3   0.956682 0.181057 0.623575 -0.750609
C2    C     C_3   0.972884 0.797446 0.979386 -0.876609
C3    C     C_3   0.456529 0.681086 0.623279 -0.750436
C4    C     C_3   0.472946 0.297783 0.980249 -0.876412
H1    H     H_    0.976580 0.167255 0.744102 0.261076
H2    H     H_    0.959120 0.824434 0.069691 0.296950
H3    H     H_    0.476473 0.667250 0.743723 0.261165
H4    H     H_    0.502239 0.319240 0.912193 0.258942
H5    H     H_    0.909707 0.182027 0.620788 0.260960
H6    H     H_    0.935156 0.785514 0.892845 0.206160
H7    H     H_    0.409566 0.682102 0.620722 0.260925
H8    H     H_    0.459636 0.324734 0.071341 0.296801
P5    P     P_3+3 0.116320 0.442910 0.663460 0.518538
P6    P     P_3+3 0.116320 0.557090 0.163460 0.512502
P7    P     P_3+3 0.616320 0.942910 0.663460 0.518430
P8    P     P_3+3 0.616320 0.057090 0.163460 0.512583
P9    P     P_3+3 0.071417 0.331563 0.091281 0.545896
P10   P     P_3+3 0.071313 0.668497 0.594336 0.539435
P11   P     P_3+3 0.571415 0.831560 0.091287 0.545840
P12   P     P_3+3 0.571301 0.168504 0.594339 0.539805
O25   O     O_2   0.110790 0.425640 0.834940 -0.333558
O26   O     O_2   0.110790 0.574360 0.334940 -0.338933
O27   O     O_2   0.610790 0.925640 0.834940 -0.333590
O28   O     O_2   0.610790 0.074360 0.334940 -0.338905
O29   O     O_3   0.018840 0.380480 0.055970 -0.405259
O30   O     O_3   0.018840 0.619520 0.555970 -0.395610
O31   O     O_3   0.518840 0.880480 0.055970 -0.405303
O32   O     O_3   0.518840 0.119520 0.555970 -0.395087
O33   O     O_2   0.112283 0.338083 0.966288 -0.289495
O34   O     O_2   0.117062 0.656827 0.487141 -0.284142
O35   O     O_2   0.612276 0.838077 0.966277 -0.289594
O36   O     O_2   0.617003 0.156895 0.486942 -0.283968
O37   O     O_3   0.176467 0.483944 0.691391 -0.527170
O38   O     O_3   0.177188 0.517074 0.188206 -0.533178
O39   O     O_3   0.676471 0.983939 0.691373 -0.527187
O40   O     O_3   0.677184 0.017069 0.188213 -0.533204
O41   O     O_3   0.038077 0.271204 0.041289 -0.444538
O42   O     O_3   0.041042 0.727569 0.516903 -0.417520
O43   O     O_3   0.538062 0.771208 0.041289 -0.444525
O44   O     O_3   0.540906 0.227551 0.517103 -0.417778
C5    C     C_3   0.993205 0.265871 0.131357 0.245771
C6    C     C_3   0.001790 0.744161 0.615013 0.224164
C7    C     C_3   0.493205 0.765874 0.131411 0.245761
C8    C     C_3   0.502230 0.244412 0.616620 0.224218
H9    H     H_    0.958835 0.294637 0.089313 0.059364
H10   H     H_    0.969864 0.712825 0.627132 0.027428
H11   H     H_    0.458871 0.794701 0.089611 0.059025
H12   H     H_    0.470658 0.213029 0.631644 0.025278
H13   H     H_    0.008761 0.272097 0.261269 0.044321
H14   H     H_    0.025294 0.754862 0.734494 0.045767
H15   H     H_    0.508808 0.772012 0.261334 0.044757
H16   H     H_    0.526340 0.255714 0.734864 0.048799
C9    C     C_3   0.967598 0.210819 0.108330 -0.100219
C10   C     C_3   0.969346 0.792439 0.541413 -0.087694
C11   C     C_3   0.467506 0.710864 0.108101 -0.100091
C12   C     C_3   0.469079 0.292225 0.542286 -0.088730
H17   H     H_    0.947074 0.206032 0.981418 0.145204
H18   H     H_    0.951451 0.784916 0.413888 0.178927
H19   H     H_    0.446989 0.706158 0.981151 0.145294
H20   H     H_    0.450642 0.284109 0.415487 0.178718
C13   C     C_3   0.164409 0.467825 0.246845 0.262296
C14   C     C_3   0.161823 0.533829 0.741485 0.267606
C15   C     C_3   0.664401 0.967820 0.246845 0.262344
C16   C     C_3   0.661836 0.033823 0.741497 0.267615
H21   H     H_    0.150162 0.472679 0.364912 0.065922
H22   H     H_    0.144537 0.530409 0.855677 0.060366
H23   H     H_    0.650153 0.972674 0.364909 0.065922
H24   H     H_    0.644572 0.030399 0.855721 0.060331
C17   C     C_3   0.218751 0.434366 0.269179 -0.099914
C18   C     C_3   0.215806 0.567803 0.769777 -0.099363
C19   C     C_3   0.718743 0.934360 0.269183 -0.099955
C20   C     C_3   0.715821 0.067795 0.769725 -0.099420
Ba1   Ba    Ba6+2 0.999910 0.463090 0.844860 1.704804
Ba2   Ba    Ba6+2 0.999910 0.536910 0.344860 1.701081
Ba3   Ba    Ba6+2 0.499910 0.963090 0.844860 1.705119
Ba4   Ba    Ba6+2 0.499910 0.036910 0.344860 1.701535
C21   C     C_3   0.808353 0.511412 0.873939 0.572375
C22   C     C_3   0.809376 0.488261 0.374032 0.575239
C23   C     C_3   0.308555 0.011533 0.874162 0.573172
C24   C     C_3   0.308926 0.988586 0.373908 0.574935
C25   C     C_3   0.745542 0.505309 0.791997 -0.141471
C26   C     C_3   0.745963 0.490554 0.295458 -0.145673
C27   C     C_3   0.245642 0.005997 0.792616 -0.141810
C28   C     C_3   0.245459 0.991541 0.296212 -0.146895
H25   H     H_    0.736650 0.533524 0.690551 0.143080
H26   H     H_    0.738430 0.461343 0.196354 0.139403
H27   H     H_    0.236939 0.034480 0.691820 0.142668
H28   H     H_    0.237363 0.962799 0.195948 0.139986
O45   O     O_3   0.064650 0.525760 0.074400 -0.414102
O46   O     O_3   0.064650 0.474240 0.574400 -0.418152
O47   O     O_3   0.564650 0.025760 0.074400 -0.414102
O48   O     O_3   0.564650 0.974240 0.574400 -0.418292
P13   P     P_3+3 0.931877 0.671387 0.096999 0.601023
P14   P     P_3+3 0.930932 0.328770 0.596456 0.614117
P15   P     P_3+3 0.431926 0.171430 0.096826 0.602318
P16   P     P_3+3 0.430889 0.828804 0.596577 0.613649
C29   C     C_3   0.978897 0.235807 0.589328 0.887690
C30   C     C_3   0.001879 0.748650 0.061732 0.858092
C31   C     C_3   0.478785 0.735819 0.589016 0.888295
C32   C     C_3   0.501834 0.248760 0.061417 0.865253
H29   H     H_    0.962596 0.244338 0.461638 -0.197736
H30   H     H_    0.008828 0.719557 0.968114 -0.180720
H31   H     H_    0.462422 0.744387 0.461389 -0.198659
H32   H     H_    0.508489 0.219816 0.967102 -0.188845
H33   H     H_    0.933893 0.205921 0.185396 0.091241
H34   H     H_    0.932742 0.800221 0.606277 0.087306
H35   H     H_    0.433781 0.705975 0.185108 0.091097
H36   H     H_    0.432814 0.300063 0.608410 0.087168
H37   H     H_    0.200249 0.646662 0.221326 0.199448
H38   H     H_    0.200082 0.352973 0.722171 0.197747
H39   H     H_    0.700297 0.146623 0.221259 0.199381
H40   H     H_    0.700068 0.852974 0.722210 0.197711
C33   C     C_R   0.909624 0.368874 0.280942 -0.425821
C34   C     C_R   0.908228 0.630020 0.783824 -0.426543
C35   C     C_R   0.409497 0.868968 0.281181 -0.426018
C36   C     C_R   0.408374 0.130139 0.783499 -0.424470
C37   C     C_R   0.876139 0.378933 0.131553 0.272595
C38   C     C_R   0.875776 0.620772 0.632604 0.272118
C39   C     C_R   0.376098 0.878964 0.131635 0.272812
C40   C     C_R   0.375835 0.120811 0.632444 0.272591
C41   C     C_R   0.831996 0.343093 0.073862 -0.236481
C42   C     C_R   0.832120 0.656957 0.574194 -0.219799
C43   C     C_R   0.331983 0.843104 0.073875 -0.235308
C44   C     C_R   0.332115 0.156940 0.574099 -0.220914
C45   C     C_R   0.820215 0.298945 0.165650 -0.090173
C46   C     C_R   0.819333 0.700301 0.668001 -0.091632
C47   C     C_R   0.320143 0.798998 0.165756 -0.090298
C48   C     C_R   0.319360 0.200317 0.667824 -0.090873
C49   C     C_R   0.851945 0.291681 0.321256 0.253155
C50   C     C_R   0.849487 0.706304 0.826247 0.232670
C51   C     C_R   0.351816 0.791773 0.321455 0.252949
C52   C     C_R   0.349555 0.206365 0.826013 0.232377
C53   C     C_R   0.896210 0.327531 0.380576 0.089450
C54   C     C_R   0.894277 0.670833 0.884306 0.106555
C55   C     C_R   0.396075 0.827625 0.380791 0.089764
C56   C     C_R   0.394384 0.170922 0.884043 0.106956
C57   C     C_R   0.173259 0.653889 0.107499 -0.135795
C58   C     C_R   0.174469 0.346867 0.605582 -0.134644
C59   C     C_R   0.673303 0.153856 0.107441 -0.135827
C60   C     C_R   0.674462 0.846867 0.605612 -0.134880
C61   C     C_R   0.127145 0.619336 0.054645 0.291675
C62   C     C_R   0.128933 0.381856 0.551425 0.307056
C63   C     C_R   0.627169 0.119322 0.054619 0.291754
C64   C     C_R   0.628927 0.881855 0.551437 0.307106
C65   C     C_R   0.106673 0.668791 0.805520 0.149516
C66   C     C_R   0.110910 0.334395 0.297982 0.175548
C67   C     C_R   0.606702 0.168772 0.805491 0.148991
C68   C     C_R   0.610915 0.834395 0.297990 0.175512
C69   C     C_R   0.151628 0.703728 0.859208 -0.186925
C70   C     C_R   0.155419 0.299137 0.352467 -0.112828
C71   C     C_R   0.651671 0.203699 0.859159 -0.187277
C72   C     C_R   0.655430 0.799141 0.352487 -0.112614
C73   C     C_R   0.185015 0.697111 0.011356 0.041152
C74   C     C_R   0.187303 0.304561 0.507308 0.037609
C75   C     C_R   0.685065 0.197076 0.011295 0.041752
C76   C     C_R   0.687308 0.804566 0.507344 0.037667
C77   C     C_1   0.232610 0.733327 0.063630 0.111487
C78   C     C_1   0.233717 0.267410 0.561779 0.110809
C79   C     C_1   0.732667 0.233284 0.063567 0.111469
C80   C     C_1   0.733721 0.767419 0.561863 0.110591
C81   C     C_1   0.772245 0.263570 0.106923 0.167264
C82   C     C_1   0.772343 0.736391 0.607183 0.168546
C83   C     C_1   0.272182 0.763618 0.106992 0.167626
C84   C     C_1   0.272344 0.236385 0.607045 0.168081
C85   C     C_R   0.093244 0.628469 0.906133 -0.490070
C86   C     C_R   0.096791 0.374112 0.399593 -0.478269
C87   C     C_R   0.593264 0.128460 0.906119 -0.488859
C88   C     C_R   0.596791 0.874111 0.399597 -0.478023
H41   H     H_    0.161854 0.734728 0.780230 0.184210
H42   H     H_    0.165620 0.268092 0.273670 0.178397
H43   H     H_    0.661897 0.234698 0.780180 0.183920
H44   H     H_    0.665637 0.768096 0.273697 0.178340
H45   H     H_    0.805577 0.350353 0.959544 0.216826
H46   H     H_    0.806778 0.650480 0.457702 0.217022
H47   H     H_    0.305629 0.850322 0.959426 0.216862
H48   H     H_    0.306687 0.150374 0.457754 0.216350
N1    N     N_R   0.041471 0.236942 0.613087 0.245142
O49   O     O_R   0.067332 0.281715 0.607617 -0.408899
O50   O     O_R   0.071966 0.194730 0.647946 -0.298124
N2    N     N_R   0.058235 0.761764 0.151116 0.249449
O51   O     O_R   0.089286 0.724733 0.226088 -0.334257
O52   O     O_R   0.078826 0.809296 0.154206 -0.316822
N3    N     N_R   0.541358 0.736888 0.612497 0.245046
O53   O     O_R   0.567264 0.781637 0.606983 -0.409073
O54   O     O_R   0.571814 0.694648 0.647254 -0.297826
N4    N     N_R   0.558354 0.261546 0.150354 0.249356
O55   O     O_R   0.589103 0.224377 0.225592 -0.334329
O56   O     O_R   0.579436 0.308880 0.152476 -0.318024
H49   H     H_    0.255003 0.456867 0.336493 0.194893
H50   H     H_    0.250014 0.547308 0.851983 0.186549
H51   H     H_    0.754995 0.956862 0.336497 0.194853
H52   H     H_    0.750048 0.047289 0.851838 0.186566
H53   H     H_    0.212333 0.399212 0.341510 0.049604
H54   H     H_    0.206466 0.604939 0.828677 0.055220
H55   H     H_    0.712325 0.899207 0.341517 0.049573
H56   H     H_    0.706500 0.104920 0.828705 0.055142
N5    N     N_R   0.233252 0.418064 0.114471 0.278170
O57   O     O_R   0.234831 0.368396 0.078923 -0.324617
O58   O     O_R   0.249198 0.452719 0.016967 -0.326945
N6    N     N_R   0.236125 0.579556 0.618748 0.281371
O59   O     O_R   0.239485 0.628041 0.572165 -0.316553
O60   O     O_R   0.255815 0.542192 0.537374 -0.332848
N7    N     N_R   0.733245 0.918058 0.114476 0.278146
O61   O     O_R   0.734826 0.868389 0.078932 -0.324720
O62   O     O_R   0.749190 0.952712 0.016969 -0.327027
N8    N     N_R   0.736096 0.079573 0.618651 0.281344
O63   O     O_R   0.739433 0.128065 0.572111 -0.316698
O64   O     O_R   0.755765 0.042223 0.537178 -0.332926
H57   H     H_    0.836928 0.503418 0.785422 0.083368
H58   H     H_    0.836104 0.498202 0.282600 0.089040
H59   H     H_    0.336909 0.003298 0.785273 0.083897
H60   H     H_    0.335648 0.998446 0.282386 0.089840
N9    N     N_R   0.819208 0.564731 0.932572 0.186650
O65   O     O_R   0.864530 0.572761 0.037282 -0.349189
O66   O     O_R   0.781523 0.602121 0.901296 -0.380450
N10   N     N_R   0.824933 0.435935 0.432964 0.186812
O67   O     O_R   0.872862 0.430955 0.529299 -0.348859
O68   O     O_R   0.789424 0.396519 0.411097 -0.381703
N11   N     N_R   0.320056 0.064723 0.933052 0.186725
O69   O     O_R   0.365674 0.072358 0.036983 -0.348935
O70   O     O_R   0.282737 0.102433 0.902529 -0.381421
N12   N     N_R   0.324003 0.936045 0.431844 0.187196
O71   O     O_R   0.371714 0.930621 0.528852 -0.349175
O72   O     O_R   0.288197 0.896878 0.408763 -0.381207
N13   N     N_R   0.731496 0.452374 0.730435 0.258837
O73   O     O_R   0.679239 0.441909 0.665061 -0.278873
O74   O     O_R   0.770025 0.415715 0.736905 -0.315661
N14   N     N_R   0.728498 0.542328 0.229910 0.264232
O75   O     O_R   0.676189 0.549065 0.158610 -0.272637
O76   O     O_R   0.763466 0.582192 0.244716 -0.313382
N15   N     N_R   0.231118 0.953288 0.729781 0.259253
O77   O     O_R   0.178873 0.943458 0.662828 -0.278893
O78   O     O_R   0.269107 0.916032 0.738252 -0.315790
N16   N     N_R   0.228367 0.043722 0.233395 0.262854
O79   O     O_R   0.175580 0.051566 0.167915 -0.270274
O80   O     O_R   0.264658 0.082367 0.239909 -0.313523
H61   H     H_    0.716769 0.515138 0.880119 0.190430
H62   H     H_    0.718383 0.479773 0.385763 0.190843
H63   H     H_    0.217028 0.015832 0.881189 0.188614
H64   H     H_    0.218071 0.980582 0.386810 0.191640
H65   H     H_    0.966608 0.152612 0.531858 0.258694
H66   H     H_    0.002304 0.818957 0.911882 0.259693
H67   H     H_    0.466362 0.652643 0.531445 0.258666
H68   H     H_    0.434936 0.286117 0.894386 0.207291
N17   N     N_R   0.837874 0.248941 0.419250 0.225099
O81   O     O_R   0.834855 0.201281 0.362575 -0.405942
O82   O     O_R   0.819909 0.258280 0.554663 -0.316833
N18   N     N_R   0.832622 0.746560 0.929102 0.240103
O83   O     O_R   0.827007 0.794950 0.879217 -0.379782
O84   O     O_R   0.813631 0.733685 0.060496 -0.296296
N19   N     N_R   0.337714 0.749054 0.419484 0.225204
O85   O     O_R   0.334657 0.701388 0.362853 -0.405834
O86   O     O_R   0.319781 0.758420 0.554926 -0.316968
N20   N     N_R   0.332630 0.246581 0.928911 0.239862
O87   O     O_R   0.326868 0.294959 0.878987 -0.380034
O88   O     O_R   0.313635 0.233651 0.060253 -0.295967
H69   H     H_    0.942821 0.396604 0.327039 0.174810
H70   H     H_    0.941369 0.602280 0.829884 0.170010
H71   H     H_    0.442657 0.896724 0.327352 0.174660
H72   H     H_    0.441574 0.102445 0.829479 0.169776
H73   H     H_    0.059274 0.601190 0.862426 0.155550
H74   H     H_    0.062655 0.401216 0.356226 0.150177
H75   H     H_    0.559279 0.101193 0.862436 0.155291
H76   H     H_    0.562655 0.901214 0.356224 0.150116
N21   N     N_R   0.011606 0.170835 0.149967 0.301252
O89   O     O_R   0.038894 0.167497 0.295882 -0.320519
O90   O     O_R   0.022827 0.137410 0.042383 -0.273079
N22   N     N_R   0.006706 0.838398 0.552280 0.281060
O91   O     O_R   0.995056 0.879525 0.632932 -0.302512
O92   O     O_R   0.050196 0.839598 0.475035 -0.227456
N23   N     N_R   0.511443 0.670807 0.149589 0.301183
O93   O     O_R   0.538695 0.667362 0.295518 -0.320499
O94   O     O_R   0.522622 0.637416 0.041865 -0.273137
N24   N     N_R   0.506024 0.338421 0.549964 0.281313
O95   O     O_R   0.494619 0.379691 0.630349 -0.301972
O96   O     O_R   0.548918 0.339622 0.470410 -0.228483
H77   H     H_    0.130628 0.447599 0.162129 0.094155
H78   H     H_    0.129687 0.552934 0.649454 0.104361
H79   H     H_    0.630621 0.947596 0.162123 0.094129
H80   H     H_    0.629687 0.052931 0.649508 0.104225

loop_
_geom_bond_atom_site_label_1
_geom_bond_atom_site_label_2
_geom_bond_distance
_ccdc_geom_bond_type
N16   O80   1.300572 A    
C34   C38   1.402259 A    
C20   N8    1.459867 S    
P5    O37   1.750704 S    
O24   P15   1.753363 S    
P7    O39   1.750698 S    
P8    O40   1.750336 S    
P9    O33   1.545504 D    
N20   O87   1.301400 A    
P14   C53   1.877321 S    
C52   N20   1.438195 S    
C46   C50   1.420130 A    
O10   Ba2   2.746523 S    
N12   O72   1.302527 A    
P4    C40   1.887787 S    
C1    H1    1.108739 S    
N10   O67   1.294725 A    
C2    H6    1.104067 S    
O22   C30   1.410094 S    
C41   C45   1.415920 A    
O16   P15   1.547376 D    
C38   C42   1.414546 A    
O12   Ba4   2.746523 S    
C12   H36   1.111504 S    
C44   C48   1.417087 A    
C26   N14   1.463469 S    
C6    H10   1.113522 S    
C43   C47   1.415929 A    
P5    O46   1.552683 S    
P4    O8    1.547319 S    
C28   H64   1.110979 S    
C71   C75   1.408410 A    
P11   C68   1.846633 S    
C33   C37   1.403628 A    
P7    O48   1.552683 S    
P12   C67   1.846055 S    
N1    O50   1.302363 A    
O10   P13   1.751866 S    
C36   C56   1.411564 A    
N8    O64   1.300542 A    
C35   C55   1.412401 A    
N6    O59   1.300822 A    
N24   O96   1.300705 A    
C57   C61   1.417697 A    
O1    Ba1   2.801891 S    
C63   C87   1.397764 A    
C85   H73   1.082120 S    
C61   C85   1.397779 A    
P8    O47   1.551731 S    
C24   N12   1.449118 S    
C10   H34   1.111532 S    
O44   C8    1.401450 S    
O19   C23   1.402083 S    
H39   C59   1.082874 S    
O4    Ba4   2.803231 S    
C8    C12   1.528795 S    
C12   N24   1.459801 S    
N22   O91   1.300781 A    
C66   C86   1.398576 A    
C65   C85   1.398629 A    
C18   H50   1.110896 S    
H37   C57   1.082875 S    
C64   C88   1.397664 A    
P1    Ba1   3.388604 S    
P3    Ba3   3.388604 S    
C69   H41   1.083374 S    
C12   H20   1.109446 S    
N15   O78   1.301217 A    
C19   N7    1.459374 S    
P6    O45   1.551731 S    
C1    H65   1.110603 S    
C27   H63   1.111576 S    
O25   Ba1   2.805396 S    
O42   C6    1.401319 S    
P4    Ba4   3.389226 S    
C29   N1    1.463266 S    
O2    Ba2   2.803231 S    
C6    C10   1.528787 S    
C31   H31   1.107245 S    
P3    O7    1.546380 S    
P11   O35   1.545509 D    
C29   H29   1.107248 S    
O13   P14   1.545750 D    
C21   H57   1.100941 S    
O40   C15   1.397159 S    
O11   Ba3   2.746015 S    
C72   C76   1.409521 A    
C32   N4    1.464551 S    
C15   H79   1.111836 S    
P3    C39   1.888150 S    
C1    C29   1.531825 S    
C51   N19   1.435563 S    
C5    H13   1.111264 S    
C58   C74   1.419842 A    
C3    C31   1.531822 S    
C7    H15   1.111236 S    
C45   C81   1.472365 S    
Ba1   O46   2.950921 S    
C4    H4    1.109230 S    
N13   O73   1.300680 A    
N4    O56   1.302377 A    
P2    Ba2   3.389226 S    
C16   H24   1.106167 S    
C80   C82   1.223613 T    
N9    O65   1.295025 A    
N14   O76   1.302228 A    
O22   P13   1.753250 S    
C26   H26   1.111720 S    
Ba4   O47   2.951151 S    
P8    O28   1.535826 D    
N19   O86   1.300365 A    
P9    O29   1.753042 S    
O3    Ba3   2.801891 S    
P10   O34   1.542862 D    
C33   H69   1.081849 S    
N17   O81   1.301305 A    
C7    C11   1.526241 S    
C88   H76   1.082121 S    
C19   H55   1.106131 S    
O11   P16   1.762039 S    
C2    H2    1.111069 S    
C47   C51   1.418967 A    
C48   C52   1.420184 A    
C25   H61   1.111308 S    
O29   Ba1   2.746062 S    
O5    Ba2   2.777460 S    
C39   C43   1.414307 A    
P2    O18   1.761382 S    
N21   O89   1.300394 A    
C72   H44   1.083321 S    
C5    H9    1.110996 S    
Ba2   O45   2.951151 S    
P6    O26   1.535826 D    
C17   N5    1.459370 S    
C58   C62   1.418098 A    
P9    O41   1.747545 S    
C28   H28   1.111589 S    
O37   C14   1.398489 S    
C86   H74   1.082121 S    
C21   C25   1.546420 S    
C23   C27   1.546199 S    
C40   C44   1.414534 A    
C22   N10   1.448852 S    
O23   P16   1.758363 S    
C9    H33   1.110924 S    
N16   O79   1.300445 A    
N20   O88   1.300104 A    
H38   C58   1.082870 S    
C4    C32   1.532242 S    
C8    H16   1.106891 S    
C69   C73   1.408395 A    
C18   H54   1.105735 S    
N5    O58   1.300486 A    
N10   O68   1.302546 A    
C13   H21   1.106201 S    
C37   C41   1.414313 A    
C15   H23   1.106195 S    
C68   C72   1.405910 A    
N18   O83   1.301393 A    
C20   H52   1.110899 S    
C15   C19   1.529793 S    
C21   N9    1.452973 S    
C9    H17   1.110918 S    
C11   N23   1.459775 S    
C11   H19   1.110930 S    
C35   H71   1.081856 S    
Ba1   Ba2   4.614674 S    
C36   H72   1.081834 S    
Ba3   O48   2.950921 S    
C2    H66   1.109200 S    
N6    O60   1.300544 A    
C33   C53   1.412481 A    
P1    O1    1.536121 D    
C52   C56   1.420683 A    
P10   O42   1.747916 S    
P3    O3    1.536121 D    
C49   N17   1.435545 S    
P4    O20   1.761024 S    
C30   H30   1.112824 S    
O27   Ba3   2.805396 S    
O38   C13   1.397168 S    
C74   C78   1.468273 S    
C67   C87   1.398602 A    
O21   C29   1.408764 S    
O23   C31   1.408719 S    
C30   N2    1.464593 S    
N2    O51   1.297770 A    
N19   O85   1.301310 A    
C77   C83   1.223624 T    
O7    Ba4   2.777460 S    
O20   C24   1.400652 S    
C66   C70   1.405857 A    
C36   C40   1.402292 A    
N22   O92   1.300622 A    
C46   C82   1.472162 S    
C27   N15   1.463036 S    
C14   H22   1.106168 S    
N11   O70   1.302896 A    
P1    O5    1.546380 S    
O32   Ba4   2.745561 S    
O8    Ba3   2.778780 S    
C62   C86   1.397666 A    
C16   H80   1.110886 S    
N12   O71   1.294699 A    
C10   H18   1.109231 S    
C23   H59   1.100763 S    
C24   C28   1.544349 S    
N23   O93   1.300384 A    
P6    C61   1.867642 S    
C75   C79   1.468409 S    
N3    O53   1.297000 A    
N11   O69   1.294948 A    
P10   O30   1.752845 S    
P10   C65   1.845997 S    
N7    O62   1.300490 A    
P12   O44   1.747884 S    
C19   H51   1.110837 S    
O26   Ba2   2.804038 S    
C3    H67   1.110595 S    
C3    H3    1.108735 S    
C4    H68   1.103933 S    
P1    C37   1.888322 S    
C42   H46   1.080932 S    
C49   C53   1.419648 A    
C26   H62   1.111056 S    
O28   Ba4   2.804038 S    
O30   Ba2   2.745561 S    
O6    Ba1   2.778780 S    
C34   C54   1.411489 A    
C59   C63   1.417704 A    
C50   N18   1.438146 S    
P5    C62   1.866221 S    
Ba1   O45   2.776912 S    
P8    C63   1.867570 S    
P9    C66   1.846561 S    
P15   C56   1.874252 S    
P7    O27   1.535762 D    
C71   H43   1.083374 S    
O41   C5    1.404276 S    
P13   C54   1.874041 S    
C25   N13   1.462861 S    
P5    Ba1   3.390803 S    
O43   C7    1.404275 S    
C45   C49   1.418956 A    
P7    Ba3   3.390803 S    
C5    C9    1.526236 S    
O14   P13   1.547317 D    
C87   H75   1.082118 S    
C60   C64   1.418063 A    
C22   H58   1.099532 S    
C1    H5    1.108416 S    
Ba3   Ba4   4.614674 S    
C44   H48   1.081100 S    
O17   C21   1.402327 S    
O24   C32   1.410277 S    
Ba4   O48   2.778232 S    
H40   C60   1.082871 S    
C2    C30   1.532270 S    
P1    O17   1.761886 S    
C6    H14   1.106364 S    
P3    O19   1.761835 S    
P4    O4    1.536057 D    
P8    Ba4   3.390165 S    
N1    O49   1.297006 A    
C35   C39   1.403548 A    
C23   N11   1.452572 S    
O12   P15   1.752081 S    
C13   H77   1.111839 S    
C20   H56   1.105720 S    
O31   Ba3   2.746062 S    
C9    N21   1.459780 S    
N17   O82   1.300365 A    
P5    O25   1.535762 D    
C59   C75   1.418928 A    
C24   H60   1.099566 S    
C3    H7    1.108401 S    
C60   C76   1.419809 A    
O39   C16   1.398479 S    
O21   P14   1.758363 S    
C11   H35   1.110935 S    
Ba2   O46   2.778232 S    
C25   H25   1.111553 S    
C70   H42   1.083325 S    
P2    O2    1.536057 D    
P6    Ba2   3.390165 S    
P11   O43   1.747548 S    
P12   O36   1.542882 D    
C18   N6    1.459872 S    
O15   P16   1.545679 D    
N13   O74   1.300037 A    
C73   C77   1.468400 S    
N4    O55   1.297726 A    
C67   C71   1.405709 A    
O18   C22   1.400718 S    
C76   C80   1.468294 S    
C13   C17   1.529793 S    
N9    O66   1.303170 A    
N8    O63   1.300822 A    
C65   C69   1.405684 A    
N14   O75   1.300858 A    
N5    O57   1.300798 A    
C8    H12   1.113688 S    
C70   C74   1.409468 A    
C68   C88   1.398584 A    
N23   O94   1.300549 A    
C47   C83   1.472359 S    
C34   H70   1.081834 S    
C48   C84   1.472141 S    
C31   N3    1.463266 S    
N3    O54   1.302363 A    
N18   O84   1.300113 A    
C51   C55   1.419628 A    
O9    Ba1   2.746015 S    
N15   O77   1.300970 A    
P2    O6    1.547319 S    
C41   H45   1.080296 S    
C16   C20   1.529600 S    
P11   O31   1.753063 S    
C22   C26   1.544513 S    
P12   O32   1.752778 S    
P6    O38   1.750339 S    
N24   O95   1.300791 A    
C32   H32   1.112848 S    
Ba3   O47   2.776912 S    
C43   H47   1.080317 S    
P7    C64   1.866174 S    
C14   H78   1.110876 S    
P2    C38   1.887832 S    
C57   C73   1.418939 A    
P16   C55   1.877207 S    
N21   O90   1.300553 A    
C10   N22   1.459742 S    
C7    H11   1.111007 S    
O9    P14   1.762122 S    
C17   H53   1.106137 S    
C17   H49   1.110834 S    
C4    H8    1.111088 S    
C78   C84   1.223601 T    
C79   C81   1.223630 T    
C50   C54   1.420570 A    
N2    O52   1.302340 A    
C42   C46   1.417070 A    
N7    O61   1.300799 A    
C27   H27   1.111615 S    
C14   C18   1.529604 S    
C28   N16   1.463361 S    
