data_mof_unit_12060.cif
_audit_creation_date              2013-03-05T15:40:29-0500
_audit_creation_method            fapswitch 2.2
_symmetry_space_group_name_H-M    P1
_symmetry_Int_Tables_number       1
_space_group_crystal_system       triclinic
_cell_length_a                    6.927612
_cell_length_b                    11.428223
_cell_length_c                    18.700634
_cell_angle_alpha                 90.000063
_cell_angle_beta                  92.899745
_cell_angle_gamma                 89.99992
_cell_volume                      1478.63900382

loop_
_atom_site_label
_atom_site_type_symbol
_atom_site_description
_atom_site_fract_x
_atom_site_fract_y
_atom_site_fract_z
_atom_type_partial_charge
O1    O     O_R   0.330540 0.606360 0.598870 -0.553673
O2    O     O_R   0.669460 0.106360 0.401130 -0.553672
O3    O     O_R   0.026770 0.620470 0.750430 -0.547184
O4    O     O_R   0.973230 0.120470 0.249570 -0.547183
O5    O     O_R   0.856460 0.393640 0.750930 -0.536803
O6    O     O_R   0.143540 0.893640 0.249070 -0.536804
C1    C     C_R   0.198744 0.648167 0.774712 0.691913
C2    C     C_R   0.801255 0.148167 0.225288 0.691913
O7    O     O_R   0.000920 0.620350 0.599420 -0.518854
O8    O     O_R   0.999080 0.120350 0.400580 -0.518855
O9    O     O_R   0.830430 0.393520 0.598850 -0.511208
O10   O     O_R   0.169570 0.893520 0.401150 -0.511208
C3    C     C_R   0.166727 0.649850 0.575823 0.763939
C4    C     C_R   0.833272 0.149852 0.424176 0.763933
O11   O     O_R   0.356570 0.606480 0.750960 -0.547869
O12   O     O_R   0.643430 0.106480 0.249040 -0.547870
O13   O     O_3   0.176990 0.425580 0.674890 -0.348096
O14   O     O_3   0.823010 0.925580 0.325110 -0.348092
V1    V     V_3+5 0.902170 0.513810 0.674910 1.547633
V2    V     V_3+5 0.097830 0.013810 0.325090 1.547635
O15   O     O_R   0.500800 0.379530 0.599380 -0.531351
O16   O     O_R   0.499200 0.879530 0.400620 -0.531349
C5    C     C_R   0.667242 0.353398 0.573795 0.820764
C6    C     C_R   0.332757 0.853398 0.426205 0.820765
O17   O     O_R   0.526650 0.379650 0.750390 -0.537197
O18   O     O_R   0.473350 0.879650 0.249610 -0.537196
C7    C     C_R   0.698634 0.351510 0.774393 0.684377
C8    C     C_R   0.301365 0.851510 0.225607 0.684380
V3    V     V_3+5 0.402160 0.486190 0.674900 1.538875
V4    V     V_3+5 0.597840 0.986190 0.325100 1.538882
O19   O     O_3   0.677210 0.574420 0.674910 -0.382414
O20   O     O_3   0.322790 0.074420 0.325090 -0.382415
C9    C     C_R   0.716341 0.071566 0.879579 -0.084277
C10   C     C_R   0.283627 0.571565 0.120421 -0.084278
H1    H     H_    0.690280 0.115292 0.767971 0.112730
H2    H     H_    0.309681 0.615292 0.232029 0.112732
H3    H     H_    0.738423 0.940430 0.996421 0.147273
H4    H     H_    0.261535 0.440429 0.003579 0.147274
H5    H     H_    0.709849 0.978382 0.868876 0.103833
H6    H     H_    0.290102 0.478382 0.131124 0.103834
C11   C     C_R   0.714606 0.269397 0.834392 -0.015821
C12   C     C_R   0.285392 0.769397 0.165608 -0.015821
C13   C     C_R   0.792069 0.350753 0.180981 -0.262628
C14   C     C_R   0.207933 0.850753 0.819019 -0.262629
C15   C     C_R   0.780763 0.434365 0.126286 0.418675
C16   C     C_R   0.219235 0.934365 0.873714 0.418676
C17   C     C_R   0.763730 0.396837 0.054775 -0.271735
C18   C     C_R   0.236266 0.896837 0.945225 -0.271735
C19   C     C_R   0.757603 0.276368 0.036588 0.020643
C20   C     C_R   0.242395 0.776368 0.963412 0.020643
C21   C     C_R   0.767480 0.192812 0.093261 0.065974
C22   C     C_R   0.232514 0.692812 0.906739 0.065975
C23   C     C_R   0.741817 0.236046 0.964011 0.132023
C24   C     C_R   0.258179 0.736046 0.035989 0.132023
C25   C     C_R   0.734124 0.113618 0.950160 0.158389
C26   C     C_R   0.265855 0.613618 0.049840 0.158389
C27   C     C_R   0.743830 0.033795 0.006679 -0.195182
C28   C     C_R   0.256142 0.533795 0.993321 -0.195182
C29   C     C_R   0.760700 0.072490 0.077034 -0.178165
C30   C     C_R   0.239282 0.572490 0.922965 -0.178165
C31   C     C_R   0.733075 0.312652 0.904394 -0.189288
C32   C     C_R   0.266936 0.812653 0.095606 -0.189290
C33   C     C_R   0.705577 0.149081 0.822085 -0.029494
C34   C     C_R   0.294398 0.649081 0.177915 -0.029492
C35   C     C_R   0.785066 0.231248 0.165292 -0.138021
C36   C     C_R   0.214933 0.731248 0.834708 -0.138021
H7    H     H_    0.738698 0.406397 0.910039 0.094639
H8    H     H_    0.261337 0.906398 0.089961 0.094638
H9    H     H_    0.806321 0.378472 0.236414 0.162597
H10   H     H_    0.193686 0.878472 0.763586 0.162594
H11   H     H_    0.755219 0.464012 0.014530 0.167190
H12   H     H_    0.244770 0.964012 0.985470 0.167190
H13   H     H_    0.768068 0.006753 0.118770 0.134055
H14   H     H_    0.231908 0.506753 0.881230 0.134054
C37   C     C_2   0.833832 0.242707 0.478856 0.081261
C38   C     C_2   0.166164 0.742704 0.521143 0.081264
C39   C     C_2   0.673666 0.266028 0.515651 -0.361884
C40   C     C_2   0.326334 0.766028 0.484350 -0.361891
H15   H     H_    0.541899 0.216695 0.503656 0.153694
H16   H     H_    0.458104 0.716701 0.496350 0.153704
N1    N     N_R   0.786856 0.557459 0.143301 0.068926
O21   O     O_R   0.802132 0.592383 0.209596 -0.394496
O22   O     O_R   0.776704 0.635906 0.092772 -0.401391
N2    N     N_R   0.213136 0.057459 0.856699 0.068925
O23   O     O_R   0.197860 0.092382 0.790404 -0.394498
O24   O     O_R   0.223282 0.135906 0.907228 -0.401391
Br1   Br    Br    0.072844 0.330838 0.489502 -0.532379
Br2   Br    Br    0.927141 0.830823 0.510488 -0.532378

loop_
_geom_bond_atom_site_label_1
_geom_bond_atom_site_label_2
_geom_bond_distance
_ccdc_geom_bond_type
C9    C25   1.404211 A    
C10   C26   1.404210 A    
O13   V3    1.706756 S    
C14   C36   1.397211 A    
C11   C31   1.399105 A    
O4    C2    1.292676 A    
V1    O19   1.705433 S    
N1    O21   1.301633 A    
C17   C19   1.418252 A    
C30   H14   1.082644 S    
O9    V1    2.021983 S    
C9    H5    1.084079 S    
C10   H6    1.084078 S    
N2    O24   1.301857 A    
O3    C1    1.292676 A    
C40   H16   1.086603 S    
C27   C29   1.387337 A    
O12   V4    2.014485 S    
C21   C35   1.416203 A    
C15   C17   1.403670 A    
O9    C5    1.286162 A    
C31   H7    1.077033 S    
O7    C3    1.295787 A    
C22   C30   1.408425 A    
O5    C7    1.291628 A    
C23   C31   1.416410 A    
O7    V1    2.010248 S    
O6    C8    1.291627 A    
O8    V2    2.010245 S    
C19   C21   1.425625 A    
C20   C22   1.425625 A    
O3    V1    2.025351 S    
O14   V4    1.706754 S    
C12   C32   1.399107 A    
C9    C33   1.392201 A    
C39   H15   1.086604 S    
C2    C35   1.469757 S    
C2    O12   1.291824 A    
H4    C28   1.084420 S    
C18   H12   1.074591 S    
C10   C34   1.392203 A    
N1    O22   1.301859 A    
C14   C16   1.399030 A    
O11   V3    2.014482 S    
C16   C18   1.403670 A    
C23   C25   1.423419 A    
O17   V3    2.023850 S    
C24   C26   1.423420 A    
N2    O23   1.301633 A    
O8    C4    1.295789 A    
C1    O11   1.291825 A    
C24   C32   1.416408 A    
O15   V3    2.011192 S    
C37   C39   1.361210 D    
C7    C11   1.462601 S    
C3    C38   1.473527 S    
C13   C35   1.397211 A    
O10   V2    2.021982 S    
O1    V3    2.020489 S    
C20   C24   1.432262 A    
C5    C39   1.478563 S    
C14   H10   1.083676 S    
C18   C20   1.418252 A    
C13   C15   1.399031 A    
C17   H11   1.074591 S    
C16   N2    1.442426 S    
C37   Br1   1.939670 S    
O18   V4    2.023850 S    
C25   C27   1.395217 A    
O16   C6    1.305164 A    
C21   C29   1.408427 A    
C11   C33   1.395000 A    
C12   C34   1.395000 A    
C22   C36   1.416205 A    
V2    O20   1.705435 S    
C6    C40   1.478575 S    
C38   Br2   1.939668 S    
O16   V4    2.011198 S    
C15   N1    1.442426 S    
C38   C40   1.361213 D    
O5    V1    2.013174 S    
O17   C7    1.292414 A    
O6    V2    2.013172 S    
O10   C6    1.286158 A    
O18   C8    1.292413 A    
C32   H8    1.077033 S    
O2    V4    2.020489 S    
C4    C37   1.473522 S    
O15   C5    1.305161 A    
V3    O19   2.155775 S    
C1    C36   1.469755 S    
V4    O20   2.155772 S    
C19   C23   1.432262 A    
C8    C12   1.462600 S    
O13   V1    2.154389 S    
C26   C28   1.395217 A    
O14   V2    2.154392 S    
C29   H13   1.082644 S    
O2    C4    1.292726 A    
O4    V2    2.025354 S    
O1    C3    1.292723 A    
C13   H9    1.083675 S    
H1    C33   1.083314 S    
H2    C34   1.083312 S    
C28   C30   1.387336 A    
H3    C27   1.084419 S    
