data_mof_unit_59706.cif
_audit_creation_date              2012-12-10T17:11:03-0500
_audit_creation_method            fapswitch 2.2
_symmetry_space_group_name_H-M    P1
_symmetry_Int_Tables_number       1
_space_group_crystal_system       triclinic
_cell_length_a                    11.703812
_cell_length_b                    13.051417
_cell_length_c                    13.351231
_cell_angle_alpha                 92.258479
_cell_angle_beta                  77.752224
_cell_angle_gamma                 99.545583
_cell_volume                      1965.38577429

loop_
_atom_site_label
_atom_site_type_symbol
_atom_type_description
_atom_site_fract_x
_atom_site_fract_y
_atom_site_fract_z
_atom_type_partial_charge
C1    C     C_R   0.522759 0.700538 0.495696 0.852228
C2    C     C_R   0.447764 0.424753 0.971217 0.018355
C3    C     C_R   0.482459 0.436467 0.864059 -0.009898
C4    C     C_R   0.536652 0.446699 0.030321 0.059712
C5    C     C_R   0.657988 0.463687 0.979977 0.030052
C6    C     C_R   0.686905 0.435629 0.876051 0.169314
C7    C     C_R   0.598859 0.421464 0.819035 -0.155444
C8    C     C_R   0.507833 0.466458 0.135767 -0.188535
C9    C     C_R   0.713856 0.519219 0.141104 -0.200240
C10   C     C_R   0.400276 0.463076 0.808143 -0.189603
C11   C     C_R   0.467879 0.185671 0.508569 -0.102353
C12   C     C_R   0.437025 0.488765 0.696450 0.855183
C13   C     C_R   0.537853 0.813654 0.488785 -0.107043
C14   C     C_R   0.659249 0.982901 0.484210 -0.168206
C15   C     C_R   0.650992 0.876073 0.473312 0.170761
C16   C     C_R   0.436804 0.860961 0.497841 -0.253580
C17   C     C_R   0.446816 0.968804 0.500169 0.133513
C18   C     C_R   0.557640 0.030094 0.501816 0.083303
C19   C     C_R   0.565367 0.137432 0.517761 0.103714
C20   C     C_R   0.359545 0.123810 0.501276 -0.192619
C21   C     C_R   0.347794 0.016090 0.501605 -0.160188
C22   C     C_R   0.950685 0.598303 0.592074 -0.281394
C23   C     C_R   0.478554 0.299163 0.503394 0.817859
C24   C     C_R   0.830852 0.587634 0.586982 0.393013
C25   C     C_R   0.856594 0.458666 0.457391 0.041956
C26   C     C_R   0.977475 0.464831 0.463655 0.059867
C27   C     C_R   0.024762 0.536958 0.530950 0.030214
C28   C     C_R   0.145239 0.545406 0.536741 0.087445
C29   C     C_R   0.171001 0.409615 0.415910 0.102926
C30   C     C_R   0.052363 0.400863 0.405239 -0.254616
C31   C     C_R   0.562229 0.502919 0.303985 0.826010
C32   C     C_R   0.743747 0.511235 0.034749 0.219828
C33   C     C_R   0.595922 0.494854 0.192241 -0.104074
C34   C     C_R   0.283108 0.467875 0.862781 0.116483
C35   C     C_R   0.243209 0.423279 0.961119 0.186111
C36   C     C_R   0.325876 0.396464 0.013658 0.067991
Cu1   Cu    Cu3+1 0.386470 0.492430 0.492410 0.980624
Cu2   Cu    Cu3+1 0.613530 0.507570 0.507590 1.002070
H1    H     H_    0.350026 0.814100 0.503518 0.167507
H2    H     H_    0.227515 0.359214 0.371562 0.152599
H3    H     H_    0.820195 0.404724 0.404167 0.149750
H4    H     H_    0.416724 0.464241 0.174329 0.186780
H5    H     H_    0.622793 0.395668 0.740862 0.203999
N1    N     N_R   0.215880 0.481050 0.481000 -0.193691
N2    N     N_R   0.784100 0.518950 0.519000 -0.205581
O1    O     O_R   0.419710 0.645650 0.494620 -0.597643
O2    O     O_R   0.611450 0.658430 0.507430 -0.540713
O3    O     O_R   0.357340 0.490460 0.641450 -0.553558
O4    O     O_R   0.549080 0.503250 0.654260 -0.578809
O5    O     O_R   0.388550 0.341570 0.492570 -0.592391
O6    O     O_R   0.580290 0.354350 0.505380 -0.569779
O7    O     O_R   0.450920 0.496750 0.345740 -0.589577
O8    O     O_R   0.642660 0.509540 0.358550 -0.582110
H6    H     H_    0.780855 0.553565 0.182758 0.187716
H7    H     H_    0.282993 0.158641 0.496751 0.182781
H8    H     H_    0.746744 0.028675 0.473077 0.192701
H9    H     H_    0.262474 0.969912 0.499051 0.160466
I1    I     I_    0.816016 0.821951 0.421312 -0.296701
H10   H     H_    0.182701 0.603355 0.585905 0.142660
H11   H     H_    0.985230 0.653296 0.645575 0.184293
H12   H     H_    0.019437 0.343931 0.352602 0.175148
I2    I     I_    0.733462 0.683716 0.692881 -0.245969
I3    I     I_    0.852078 0.392698 0.803778 -0.221602
I4    I     I_    0.892651 0.619230 0.966015 -0.214129
I5    I     I_    0.170766 0.553544 0.805940 -0.245328
I6    I     I_    0.268188 0.285944 0.136321 -0.340615
I7    I     I_    0.059134 0.397481 0.032071 -0.216971
I8    I     I_    0.715865 0.215548 0.575926 -0.341974

loop_
_geom_bond_atom_site_label_1
_geom_bond_atom_site_label_2
_ccdc_geom_bond_type
C6    I3    S    
C14   H8    S    
C17   C21   A    
C31   C33   S    
C21   H9    S    
C29   C30   A    
C9    H6    S    
C7    H5    S    
C4    C8    A    
C14   C18   A    
C2    C4    A    
C35   C36   A    
Cu1   O1    S    
C35   I7    S    
C31   O7    A    
C12   O3    A    
C5    C32   A    
Cu1   N1    S    
C12   O4    A    
Cu2   O2    S    
C19   I8    S    
C10   C34   A    
C3    C10   A    
C31   O8    A    
Cu1   O3    S    
C9    C33   A    
Cu1   O5    S    
C11   C19   A    
C26   C27   A    
C6    C7    A    
Cu2   O8    S    
C10   C12   S    
C20   H7    S    
C24   N2    A    
C29   H2    S    
C11   C23   S    
C28   H10   S    
Cu1   Cu2   S    
C8    H4    S    
C26   C30   A    
C3    C7    A    
C2    C3    A    
C8    C33   A    
C13   C15   A    
C29   N1    A    
C22   H11   S    
C5    C6    A    
C1    O1    A    
C15   I1    S    
C36   I6    S    
C11   C20   A    
C30   H12   S    
C1    C13   S    
C16   H1    S    
C2    C36   A    
C16   C17   A    
C25   N2    A    
C22   C27   A    
C20   C21   A    
C32   I4    S    
C17   C18   A    
C34   C35   A    
C13   C16   A    
C25   H3    S    
C27   C28   A    
Cu2   O4    S    
Cu1   O7    S    
C14   C15   A    
C18   C19   A    
Cu2   N2    S    
C24   I2    S    
Cu2   O6    S    
C9    C32   A    
C25   C26   A    
C23   O6    A    
C28   N1    A    
C1    O2    A    
C22   C24   A    
C4    C5    A    
C23   O5    A    
C34   I5    S    
