data_mof_unit_62606.cif
_audit_creation_date              2012-12-10T20:32:55-0500
_audit_creation_method            fapswitch 2.2
_symmetry_space_group_name_H-M    P1
_symmetry_Int_Tables_number       1
_space_group_crystal_system       triclinic
_cell_length_a                    28.101093
_cell_length_b                    28.135109
_cell_length_c                    34.419969
_cell_angle_alpha                 89.966653
_cell_angle_beta                  89.913267
_cell_angle_gamma                 90.021121
_cell_volume                      27213.3300112

loop_
_atom_site_label
_atom_site_type_symbol
_atom_type_description
_atom_site_fract_x
_atom_site_fract_y
_atom_site_fract_z
_atom_type_partial_charge
C1    C     C_R   0.801760 0.699114 0.748958 -0.032715
C2    C     C_R   0.205372 0.692123 0.753887 -0.017542
C3    C     C_1   0.264865 0.764770 0.249928 0.226905
C4    C     C_1   0.234130 0.264305 0.747524 0.090038
C5    C     C_1   0.765008 0.734910 0.250053 0.227631
C6    C     C_1   0.266861 0.763567 0.755048 0.091148
C7    C     C_1   0.735192 0.235178 0.249880 0.226985
C8    C     C_1   0.765436 0.265477 0.249917 0.212220
C9    C     C_1   0.239171 0.730883 0.755044 0.163786
C10   C     C_1   0.734793 0.765173 0.250047 0.232974
C11   C     C_1   0.261910 0.231695 0.747831 0.160859
C12   C     C_1   0.234585 0.734504 0.249939 0.212301
C13   C     C_R   0.698574 0.801477 0.250027 -0.032583
C14   C     C_1   0.765238 0.265099 0.750052 0.225266
C15   C     C_1   0.265199 0.234818 0.250072 0.232905
C16   C     C_1   0.735232 0.765648 0.748707 0.225782
C17   C     C_R   0.084393 0.480554 0.979766 -0.112119
C18   C     C_R   0.915777 0.520080 0.020304 -0.118251
C19   C     C_R   0.501250 0.913524 0.979860 -0.109218
C20   C     C_R   0.498721 0.086508 0.020145 -0.110497
C21   C     C_R   0.915687 0.519667 0.979953 -0.115435
C22   C     C_R   0.084297 0.480132 0.020119 -0.116595
C23   C     C_R   0.498570 0.086508 0.979783 -0.111005
C24   C     C_R   0.295798 0.192983 0.748675 -0.017968
C25   C     C_R   0.501212 0.913521 0.020221 -0.109739
C26   C     C_R   0.586403 0.005584 0.479704 -0.111430
C27   C     C_R   0.413536 0.994562 0.520281 -0.110878
C28   C     C_R   0.960553 0.422705 0.479887 -0.116294
C29   C     C_R   0.038612 0.577149 0.520058 -0.111555
C30   C     C_R   0.413540 0.994521 0.479919 -0.110217
C31   C     C_R   0.586399 0.005598 0.520065 -0.114415
C32   C     C_R   0.039041 0.576964 0.479745 -0.117419
C33   C     C_R   0.960823 0.422554 0.520226 -0.111150
C34   C     C_R   0.957523 0.509276 0.918132 0.278980
C35   C     C_R   0.198270 0.698201 0.249966 -0.042411
C36   C     C_R   0.042255 0.489567 0.081947 0.274936
C37   C     C_R   0.499080 0.043469 0.918006 0.293128
C38   C     C_R   0.500574 0.956555 0.081996 0.291217
C39   C     C_R   0.042541 0.490858 0.918036 0.293378
C40   C     C_R   0.957790 0.510560 0.082038 0.274818
C41   C     C_R   0.500680 0.956563 0.918046 0.280270
C42   C     C_R   0.499560 0.043469 0.081959 0.290827
C43   C     C_R   0.456556 0.997218 0.418068 0.290810
C44   C     C_R   0.543393 0.002797 0.581915 0.278798
C45   C     C_R   0.019920 0.538480 0.418048 0.279213
C46   C     C_R   0.801508 0.301402 0.750015 -0.039488
C47   C     C_R   0.980637 0.460777 0.581950 0.289199
C48   C     C_R   0.543407 0.002756 0.417963 0.290983
C49   C     C_R   0.456540 0.997346 0.582027 0.291591
C50   C     C_R   0.979824 0.461228 0.418094 0.279457
C51   C     C_R   0.018551 0.539039 0.581791 0.294592
C52   C     C_R   0.000019 0.500007 0.898016 -0.213607
C53   C     C_R   0.000016 0.500045 0.102035 -0.205634
C54   C     C_R   0.499888 0.000016 0.897985 -0.210497
C55   C     C_R   0.500090 0.000011 0.102018 -0.214144
C56   C     C_R   0.499986 0.999969 0.397973 -0.213966
C57   C     C_R   0.301445 0.198534 0.250057 -0.032474
C58   C     C_R   0.499969 0.000055 0.602017 -0.211888
C59   C     C_R   0.999891 0.499872 0.398003 -0.212704
C60   C     C_R   0.999876 0.499824 0.601958 -0.209919
C61   C     C_R   0.042645 0.490408 0.958910 0.024202
C62   C     C_R   0.957547 0.510341 0.041164 0.031989
C63   C     C_R   0.500615 0.956365 0.958931 0.029163
C64   C     C_R   0.499418 0.043667 0.041074 0.026094
C65   C     C_R   0.957428 0.509771 0.959005 0.029751
C66   C     C_R   0.042516 0.489831 0.041071 0.031546
C67   C     C_R   0.499176 0.043667 0.958891 0.025553
C68   C     C_R   0.698853 0.801828 0.748943 -0.039139
C69   C     C_R   0.500597 0.956361 0.041112 0.024944
C70   C     C_R   0.543596 0.002820 0.458847 0.025773
C71   C     C_R   0.456345 0.997303 0.541140 0.024241
C72   C     C_R   0.979901 0.460967 0.458949 0.029180
C73   C     C_R   0.019171 0.538927 0.540968 0.025382
C74   C     C_R   0.456354 0.997232 0.458954 0.025420
C75   C     C_R   0.543588 0.002854 0.541029 0.030199
C76   C     C_R   0.019787 0.538680 0.458888 0.029766
C77   C     C_R   0.980248 0.460759 0.541083 0.030662
C78   C     C_R   0.499965 0.000013 0.855684 0.994548
C79   C     C_R   0.814651 0.677218 0.784539 -0.105211
C80   C     C_R   0.500031 0.000005 0.144317 1.001573
C81   C     C_R   0.000014 0.499995 0.855685 0.992133
C82   C     C_R   0.000004 0.500013 0.144332 0.981626
C83   C     C_R   0.999965 0.499925 0.355695 0.970104
C84   C     C_R   0.999995 0.499897 0.644293 0.985787
C85   C     C_R   0.499993 0.999988 0.355670 1.000610
C86   C     C_R   0.499979 0.000015 0.644327 0.995033
C87   C     C_R   0.409264 0.909061 0.750232 0.956498
C88   C     C_R   0.590925 0.090886 0.249976 0.948211
C89   C     C_R   0.909168 0.590889 0.749949 0.956325
C90   C     C_R   0.211809 0.349691 0.245352 -0.112339
C91   C     C_R   0.090869 0.409142 0.250000 0.959788
C92   C     C_R   0.590846 0.090845 0.750000 0.961871
C93   C     C_R   0.409108 0.909094 0.249997 0.947652
C94   C     C_R   0.090770 0.409047 0.749811 0.954277
C95   C     C_R   0.909107 0.590862 0.250012 0.960834
C96   C     C_R   0.409162 0.090825 0.249999 0.951105
C97   C     C_R   0.590835 0.909193 0.749988 0.956704
C98   C     C_R   0.909231 0.409269 0.250028 0.982475
C99   C     C_R   0.091084 0.590795 0.750075 0.942759
C100  C     C_R   0.590863 0.909172 0.249989 0.952193
C101  C     C_R   0.675736 0.186028 0.785354 -0.098633
C102  C     C_R   0.409086 0.090861 0.750053 0.948859
C103  C     C_R   0.090738 0.590749 0.250005 0.981953
C104  C     C_R   0.909181 0.409167 0.749995 0.957498
C105  C     C_R   0.000035 0.500086 0.979465 0.004196
C106  C     C_R   0.000033 0.500088 0.020612 0.005219
C107  C     C_R   0.499919 0.000016 0.979424 0.005864
C108  C     C_R   0.499976 0.000015 0.020581 0.005582
C109  C     C_R   0.499972 0.000043 0.479414 0.005324
C110  C     C_R   0.499968 0.000070 0.520572 0.006110
C111  C     C_R   0.999846 0.499804 0.479407 0.006268
C112  C     C_R   0.198700 0.301338 0.250036 -0.037058
C113  C     C_R   0.320620 0.817161 0.214205 -0.101606
C114  C     C_R   0.999805 0.499799 0.520532 0.004779
C115  C     C_2   0.791620 0.690563 0.822109 0.528835
C116  C     C_2   0.262513 0.364433 0.240271 0.550636
C117  C     C_2   0.687914 0.209490 0.822957 0.525918
C118  C     C_2   0.304268 0.797956 0.176037 0.526455
C119  C     C_2   0.216535 0.317154 0.819012 0.581700
C120  C     C_2   0.737465 0.635531 0.240526 0.550152
C121  C     C_2   0.312279 0.791326 0.825888 0.596214
C122  C     C_2   0.696137 0.202014 0.175978 0.524919
C123  C     C_2   0.748951 0.354359 0.207984 0.572685
C124  C     C_R   0.189326 0.326693 0.782783 -0.072249
C125  C     C_2   0.207719 0.686013 0.827177 0.488794
C126  C     C_2   0.688086 0.790446 0.177144 0.528785
C127  C     C_2   0.298076 0.197803 0.822087 0.574405
C128  C     C_2   0.251188 0.645695 0.207983 0.573768
C129  C     C_2   0.738452 0.363758 0.764939 0.553545
C130  C     C_2   0.312196 0.209667 0.177174 0.528850
C131  C     C_2   0.636571 0.738690 0.764011 0.555639
C132  C     C_2   0.290238 0.187810 0.322938 0.528406
C133  C     C_2   0.761589 0.864525 0.733862 0.550577
C134  C     C_2   0.145613 0.750922 0.291987 0.573317
C135  C     C_R   0.788164 0.650281 0.245492 -0.112284
C136  C     C_2   0.864096 0.238594 0.735040 0.556036
C137  C     C_2   0.709547 0.812112 0.322902 0.527333
C138  C     C_2   0.288050 0.183550 0.675843 0.487107
C139  C     C_2   0.854202 0.249060 0.292040 0.573716
C140  C     C_2   0.208683 0.693675 0.680412 0.574828
C141  C     C_2   0.283189 0.815639 0.682826 0.578495
C142  C     C_2   0.701972 0.195966 0.323788 0.525952
C143  C     C_2   0.190014 0.291444 0.675874 0.601878
C144  C     C_2   0.864504 0.762324 0.259555 0.549547
C145  C     C_2   0.709925 0.188006 0.677185 0.529618
C146  C     C_R   0.325332 0.814633 0.788547 -0.143557
C147  C     C_2   0.297846 0.803863 0.323844 0.526339
C148  C     C_2   0.811541 0.708180 0.675810 0.526497
C149  C     C_2   0.135446 0.237677 0.259760 0.550423
C150  C     C_R   0.679630 0.182774 0.214149 -0.100693
C151  C     C_R   0.794045 0.344916 0.229474 -0.115448
C152  C     C_R   0.187115 0.672935 0.788872 -0.099183
C153  C     C_R   0.675798 0.813979 0.214720 -0.101920
C154  C     C_R   0.316328 0.179128 0.784464 -0.109851
C155  C     C_R   0.205999 0.655134 0.229443 -0.115910
C156  C     C_R   0.698696 0.198552 0.750066 -0.032249
C157  C     C_R   0.788746 0.349403 0.757183 -0.107069
C158  C     C_R   0.324356 0.186087 0.214749 -0.101991
C159  C     C_R   0.650857 0.788986 0.756401 -0.109583
C160  C     C_R   0.313841 0.175620 0.285342 -0.101297
C161  C     C_R   0.711413 0.849932 0.741902 -0.107520
C162  C     C_R   0.155119 0.705845 0.270527 -0.118414
C163  C     C_R   0.849603 0.288778 0.742802 -0.110395
C164  C     C_R   0.686072 0.824354 0.285311 -0.100615
C165  C     C_R   0.311403 0.172171 0.713460 -0.099930
C166  C     C_R   0.844765 0.294169 0.270584 -0.118728
C167  C     C_R   0.301185 0.801076 0.249940 -0.035167
C168  C     C_R   0.187563 0.676655 0.717620 -0.110866
C169  C     C_R   0.310787 0.825813 0.718755 -0.067495
C170  C     C_R   0.682813 0.179492 0.285640 -0.101890
C171  C     C_R   0.176113 0.314946 0.712913 -0.139484
C172  C     C_R   0.849694 0.711693 0.254598 -0.109647
C173  C     C_R   0.686277 0.175742 0.714761 -0.103979
C174  C     C_R   0.317155 0.820374 0.285693 -0.101847
C175  C     C_R   0.824187 0.685632 0.713699 -0.096477
C176  C     C_R   0.150265 0.288299 0.254682 -0.109839
C177  C     C_R   0.850264 0.641967 0.784604 0.256626
C178  C     C_R   0.200414 0.303208 0.747555 -0.088747
C179  C     C_R   0.176059 0.384826 0.245068 0.253801
C180  C     C_R   0.640521 0.150342 0.785066 0.246207
C181  C     C_R   0.356206 0.852497 0.214533 0.250314
C182  C     C_R   0.152215 0.360309 0.783544 0.242151
C183  C     C_R   0.823915 0.615148 0.245222 0.253650
C184  C     C_R   0.361442 0.849450 0.786973 0.349299
C185  C     C_R   0.644043 0.147436 0.214482 0.250028
C186  C     C_R   0.830063 0.379774 0.229195 0.240296
C187  C     C_R   0.149133 0.640249 0.787482 0.257308
C188  C     C_R   0.640659 0.849702 0.214963 0.247124
C189  C     C_R   0.801269 0.698642 0.250051 -0.037206
C190  C     C_R   0.354544 0.146736 0.784592 0.244473
C191  C     C_R   0.169962 0.620298 0.229134 0.240453
C192  C     C_R   0.824513 0.384543 0.757394 0.243891
C193  C     C_R   0.359505 0.150372 0.214990 0.247233
C194  C     C_R   0.615659 0.824663 0.757049 0.246464
C195  C     C_R   0.349530 0.140439 0.285057 0.247005
C196  C     C_R   0.675543 0.884953 0.742096 0.245336
C197  C     C_R   0.120266 0.669826 0.270875 0.251910
C198  C     C_R   0.884707 0.324581 0.742554 0.250738
C199  C     C_R   0.650396 0.859542 0.285028 0.246944
C200  C     C_R   0.300431 0.802568 0.754296 -0.087563
C201  C     C_R   0.349316 0.139421 0.713999 0.254870
C202  C     C_R   0.879593 0.330206 0.270961 0.251695
C203  C     C_R   0.149241 0.644417 0.716590 0.248354
C204  C     C_R   0.347638 0.859738 0.717376 0.240013
C205  C     C_R   0.647496 0.143896 0.285357 0.250473
C206  C     C_R   0.139797 0.349614 0.713843 0.348817
C207  C     C_R   0.884837 0.675961 0.254856 0.246637
C208  C     C_R   0.650525 0.140598 0.715002 0.254852
C209  C     C_R   0.352477 0.855971 0.285404 0.250465
C210  C     C_R   0.859300 0.649852 0.714300 0.246960
C211  C     C_R   0.698912 0.198835 0.249884 -0.035314
C212  C     C_R   0.115122 0.324036 0.254927 0.246912
C213  C     C_R   0.872327 0.628158 0.749622 -0.150493
C214  C     C_R   0.127935 0.372086 0.250003 -0.155039
C215  C     C_R   0.627877 0.127868 0.750019 -0.151985
C216  C     C_R   0.372018 0.871946 0.249978 -0.158914
C217  C     C_R   0.127707 0.371927 0.749181 -0.191076
C218  C     C_R   0.872032 0.627904 0.250044 -0.155599
C219  C     C_R   0.372684 0.871663 0.751387 -0.192374
C220  C     C_R   0.628081 0.127967 0.249934 -0.159076
C221  C     C_R   0.872327 0.372468 0.250077 -0.143034
C222  C     C_R   0.801712 0.301815 0.249989 -0.042513
C223  C     C_R   0.129800 0.626320 0.751411 -0.165747
C224  C     C_R   0.627912 0.872223 0.249988 -0.153849
C225  C     C_R   0.371015 0.126882 0.749455 -0.161809
C226  C     C_R   0.127608 0.627589 0.249996 -0.142780
C227  C     C_R   0.872198 0.372161 0.749983 -0.141527
C228  C     C_R   0.372134 0.127802 0.250013 -0.153421
C229  C     C_R   0.627964 0.872350 0.749780 -0.144190
C230  C     C_1   0.765512 0.735426 0.748699 0.233267
C231  C     C_1   0.234968 0.265070 0.250063 0.227699
C232  C     C_1   0.734986 0.234835 0.750072 0.233001
Cl1   Cl    Cl    0.864975 0.612200 0.828396 -0.500659
Cl2   Cl    Cl    0.128385 0.613595 0.831092 -0.530715
Cl3   Cl    Cl    0.609646 0.864045 0.171626 -0.524516
Cl4   Cl    Cl    0.382301 0.131112 0.829085 -0.524200
Cl5   Cl    Cl    0.177757 0.566439 0.203181 -0.508157
Cl6   Cl    Cl    0.809853 0.444723 0.767180 -0.545507
Cl7   Cl    Cl    0.390670 0.136093 0.171649 -0.524033
Cl8   Cl    Cl    0.555492 0.809890 0.767193 -0.538134
Cl9   Cl    Cl    0.363725 0.109240 0.328358 -0.529028
Cl10  Cl    Cl    0.689924 0.945259 0.732447 -0.542802
Cl11  Cl    Cl    0.066340 0.677484 0.296927 -0.496918
Cl12  Cl    Cl    0.191448 0.445414 0.238216 -0.500285
Cl13  Cl    Cl    0.945000 0.310109 0.732685 -0.538094
Cl14  Cl    Cl    0.636068 0.890693 0.328330 -0.529610
Cl15  Cl    Cl    0.367246 0.111038 0.670334 -0.522787
Cl16  Cl    Cl    0.933409 0.322530 0.297036 -0.496181
Cl17  Cl    Cl    0.125327 0.626842 0.671232 -0.502242
Cl18  Cl    Cl    0.360166 0.890360 0.673468 -0.519788
Cl19  Cl    Cl    0.630029 0.116304 0.329544 -0.519155
Cl20  Cl    Cl    0.109240 0.365790 0.670734 -0.453375
Cl21  Cl    Cl    0.945522 0.691302 0.261491 -0.513080
Cl22  Cl    Cl    0.636305 0.109565 0.671668 -0.508220
Cl23  Cl    Cl    0.609292 0.135978 0.828379 -0.529010
Cl24  Cl    Cl    0.369785 0.883516 0.329583 -0.518984
Cl25  Cl    Cl    0.889980 0.634483 0.670971 -0.553234
Cl26  Cl    Cl    0.054428 0.308715 0.261691 -0.512458
Cl27  Cl    Cl    0.904486 0.519144 0.891458 -0.505660
Cl28  Cl    Cl    0.094738 0.477045 0.108697 -0.535620
Cl29  Cl    Cl    0.498032 0.097314 0.891143 -0.487576
Cl30  Cl    Cl    0.501048 0.902700 0.108856 -0.482486
Cl31  Cl    Cl    0.095606 0.481171 0.891237 -0.481729
Cl32  Cl    Cl    0.905297 0.523057 0.108902 -0.536262
Cl33  Cl    Cl    0.501762 0.902717 0.891235 -0.504868
Cl34  Cl    Cl    0.383973 0.869931 0.170387 -0.522189
Cl35  Cl    Cl    0.499153 0.097321 0.108772 -0.483788
Cl36  Cl    Cl    0.402727 0.994062 0.391300 -0.483422
Cl37  Cl    Cl    0.597236 0.005804 0.608671 -0.510745
Cl38  Cl    Cl    0.043590 0.587146 0.391388 -0.528257
Cl39  Cl    Cl    0.958289 0.411582 0.608679 -0.525722
Cl40  Cl    Cl    0.597246 0.005860 0.391066 -0.483844
Cl41  Cl    Cl    0.402703 0.994294 0.608926 -0.481171
Cl42  Cl    Cl    0.956144 0.412632 0.391476 -0.527395
Cl43  Cl    Cl    0.038774 0.589152 0.608231 -0.487186
Cl44  Cl    Cl    0.138722 0.390907 0.827190 -0.512281
Cl45  Cl    Cl    0.808536 0.554549 0.238523 -0.500743
Cl46  Cl    Cl    0.392724 0.865988 0.829633 -0.429334
Cl47  Cl    Cl    0.616454 0.130036 0.170339 -0.524284
Cl48  Cl    Cl    0.822364 0.433667 0.203238 -0.508806
H1    H     H_    0.117642 0.472843 0.965222 0.218100
H2    H     H_    0.379470 0.992385 0.534834 0.218531
H3    H     H_    0.944959 0.392358 0.465436 0.216778
H4    H     H_    0.053993 0.607604 0.534512 0.217232
H5    H     H_    0.379478 0.992319 0.465450 0.218443
H6    H     H_    0.620462 0.007806 0.534532 0.218151
H7    H     H_    0.054656 0.607321 0.465256 0.216550
H8    H     H_    0.945420 0.392110 0.534745 0.216801
H9    H     H_    0.810898 0.686772 0.849198 0.132478
H10   H     H_    0.271247 0.396550 0.224370 0.139824
H11   H     H_    0.682946 0.190683 0.850166 0.135147
H12   H     H_    0.882589 0.528059 0.034841 0.217498
H13   H     H_    0.306878 0.819553 0.150020 0.132702
H14   H     H_    0.199086 0.319102 0.847093 0.125701
H15   H     H_    0.728751 0.603381 0.224715 0.139849
H16   H     H_    0.275450 0.782165 0.831600 0.066420
H17   H     H_    0.693612 0.180449 0.149966 0.131997
H18   H     H_    0.748923 0.377605 0.182851 0.132954
H19   H     H_    0.185262 0.687769 0.852793 0.132233
H20   H     H_    0.683319 0.809239 0.149917 0.134586
H21   H     H_    0.322036 0.203382 0.846328 0.129106
H22   H     H_    0.251312 0.622519 0.182828 0.133378
H23   H     H_    0.501762 0.879436 0.965365 0.220161
H24   H     H_    0.730792 0.395009 0.782257 0.137977
H25   H     H_    0.317055 0.190908 0.149948 0.134913
H26   H     H_    0.605455 0.730893 0.781547 0.139666
H27   H     H_    0.308974 0.182860 0.350155 0.134945
H28   H     H_    0.768984 0.896012 0.716719 0.139021
H29   H     H_    0.122399 0.750968 0.317175 0.134427
H30   H     H_    0.895439 0.231054 0.717713 0.140032
H31   H     H_    0.690716 0.817019 0.350122 0.134685
H32   H     H_    0.308607 0.184102 0.649150 0.133037
H33   H     H_    0.877269 0.248994 0.317262 0.134652
H34   H     H_    0.498253 0.120596 0.034641 0.218084
H35   H     H_    0.186615 0.698208 0.654861 0.129104
H36   H     H_    0.300099 0.818100 0.654553 0.126522
H37   H     H_    0.680292 0.193479 0.349796 0.131932
H38   H     H_    0.226918 0.281973 0.670863 0.059003
H39   H     H_    0.896648 0.771020 0.275412 0.138530
H40   H     H_    0.691174 0.183207 0.649960 0.132633
H41   H     H_    0.319414 0.806350 0.349858 0.132158
H42   H     H_    0.816173 0.688732 0.648884 0.135471
H43   H     H_    0.103267 0.229007 0.275667 0.138835
H44   H     H_    0.882442 0.527394 0.965484 0.218200
H45   H     H_    0.117487 0.472167 0.034584 0.217646
H46   H     H_    0.498006 0.120595 0.965257 0.217777
H47   H     H_    0.501708 0.879433 0.034746 0.219071
H48   H     H_    0.620467 0.007779 0.465153 0.218235
O1    O     O_3   0.500000 0.000000 0.750000 -0.565395
O2    O     O_R   0.539300 1.000000 0.162640 -0.595268
O3    O     O_R   0.000000 0.539300 0.837360 -0.587630
O4    O     O_R   1.000000 0.460700 0.162640 -0.613428
O5    O     O_R   0.039300 0.500000 0.337360 -0.609194
O6    O     O_R   0.960700 0.500000 0.662640 -0.601186
O7    O     O_R   0.500000 0.960700 0.337360 -0.594774
O8    O     O_R   0.500000 0.039300 0.662640 -0.591257
O9    O     O_R   0.960700 0.500000 0.337360 -0.610288
O10   O     O_R   0.039300 0.500000 0.662640 -0.589561
O11   O     O_R   0.500000 0.039300 0.337360 -0.594616
O12   O     O_3   0.500000 1.000000 0.250000 -0.565348
O13   O     O_R   0.500000 0.960700 0.662640 -0.611225
O14   O     O_R   0.405600 0.944810 0.772850 -0.614303
O15   O     O_R   0.594400 0.055190 0.227150 -0.602822
O16   O     O_R   0.944810 0.594400 0.772850 -0.607936
O17   O     O_R   0.055190 0.405600 0.227150 -0.592649
O18   O     O_R   0.594400 0.055190 0.772850 -0.589010
O19   O     O_R   0.405600 0.944810 0.227150 -0.602535
O20   O     O_R   0.055190 0.405600 0.772850 -0.584000
O21   O     O_R   0.944810 0.594400 0.227150 -0.592515
O22   O     O_R   0.405600 0.055190 0.227150 -0.604642
O23   O     O_3   0.000000 0.500000 0.750000 -0.567098
O24   O     O_R   0.594400 0.944810 0.772850 -0.602612
O25   O     O_R   0.944810 0.405600 0.227150 -0.607436
O26   O     O_R   0.055190 0.594400 0.772850 -0.606563
O27   O     O_R   0.594400 0.944810 0.227150 -0.605000
O28   O     O_R   0.405600 0.055190 0.772850 -0.599565
O29   O     O_R   0.055190 0.594400 0.227150 -0.607524
O30   O     O_R   0.944810 0.405600 0.772850 -0.609105
O31   O     O_R   0.905600 0.444810 0.272850 -0.593068
O32   O     O_R   0.094400 0.555190 0.727150 -0.592732
O33   O     O_R   0.444810 0.094400 0.272850 -0.605276
O34   O     O_3   0.000000 0.500000 0.250000 -0.564236
O35   O     O_R   0.555190 0.905600 0.727150 -0.604901
O36   O     O_R   0.094400 0.555190 0.272850 -0.592635
O37   O     O_R   0.905600 0.444810 0.727150 -0.593486
O38   O     O_R   0.555190 0.905600 0.272850 -0.605165
O39   O     O_R   0.444810 0.094400 0.727150 -0.606936
O40   O     O_R   0.905600 0.555190 0.727150 -0.589972
O41   O     O_R   0.094400 0.444810 0.272850 -0.603983
O42   O     O_R   0.444810 0.905600 0.727150 -0.585548
O43   O     O_R   0.555190 0.094400 0.272850 -0.601741
O44   O     O_R   0.094400 0.444810 0.727150 -0.614840
O45   O     O_R   0.539300 0.000000 0.837360 -0.610453
O46   O     O_R   0.905600 0.555190 0.272850 -0.604395
O47   O     O_R   0.555190 0.094400 0.727150 -0.610076
O48   O     O_R   0.444810 0.905600 0.272850 -0.601893
O49   O     O_2   0.750603 0.704743 0.823550 -0.543027
O50   O     O_2   0.295158 0.341750 0.254504 -0.540894
O51   O     O_2   0.702460 0.250347 0.824269 -0.545531
O52   O     O_2   0.288725 0.757644 0.172805 -0.539502
O53   O     O_2   0.259147 0.308816 0.818003 -0.543722
O54   O     O_2   0.704802 0.658245 0.254757 -0.541060
O55   O     O_2   0.342303 0.780943 0.850031 -0.435201
O56   O     O_R   0.460700 1.000000 0.162640 -0.594465
O57   O     O_2   0.711718 0.242320 0.172738 -0.540369
O58   O     O_2   0.711050 0.337554 0.218617 -0.521951
O59   O     O_2   0.250320 0.693123 0.830825 -0.548365
O60   O     O_2   0.702492 0.749546 0.175874 -0.544039
O61   O     O_2   0.255718 0.205483 0.826886 -0.533943
O62   O     O_2   0.289057 0.662423 0.218665 -0.521483
O63   O     O_2   0.704902 0.341766 0.751397 -0.539295
O64   O     O_2   0.297795 0.250569 0.175903 -0.544032
O65   O     O_2   0.658462 0.705297 0.750105 -0.536444
O66   O     O_2   0.249339 0.202343 0.324233 -0.544887
O67   O     O_R   1.000000 0.460700 0.837360 -0.611486
O68   O     O_2   0.795346 0.842456 0.746962 -0.540849
O69   O     O_2   0.162325 0.788785 0.281268 -0.522709
O70   O     O_2   0.842116 0.205002 0.748582 -0.536243
O71   O     O_2   0.750444 0.797586 0.324190 -0.545937
O72   O     O_2   0.245252 0.190554 0.674041 -0.545274
O73   O     O_2   0.837604 0.211198 0.281279 -0.522575
O74   O     O_2   0.251328 0.701227 0.677511 -0.537110
O75   O     O_2   0.240841 0.806098 0.684276 -0.549771
O76   O     O_2   0.742340 0.211467 0.327016 -0.539129
O77   O     O_2   0.160599 0.281205 0.651201 -0.437021
O78   O     O_R   1.000000 0.539300 0.162640 -0.613387
O79   O     O_2   0.841852 0.794943 0.245265 -0.540616
O80   O     O_2   0.750876 0.202427 0.675914 -0.541158
O81   O     O_2   0.257477 0.788327 0.327067 -0.539100
O82   O     O_2   0.796953 0.748980 0.673928 -0.544633
O83   O     O_2   0.158130 0.205034 0.245516 -0.540309
O84   O     O_R   0.460700 0.000000 0.837360 -0.591896
Zn1   Zn    Zn3+2 0.500000 0.943960 0.717190 1.122615
Zn2   Zn    Zn3+2 0.000000 0.556040 0.782810 1.116071
Zn3   Zn    Zn3+2 0.443960 0.000000 0.217190 1.119642
Zn4   Zn    Zn3+2 0.556040 1.000000 0.782810 1.122273
Zn5   Zn    Zn3+2 1.000000 0.556040 0.217190 1.120481
Zn6   Zn    Zn3+2 0.000000 0.443960 0.782810 1.119490
Zn7   Zn    Zn3+2 0.556040 0.000000 0.217190 1.119366
Zn8   Zn    Zn3+2 0.443960 1.000000 0.782810 1.120634
Zn9   Zn    Zn3+2 0.500000 0.056040 0.282810 1.119360
Zn10  Zn    Zn3+2 0.943960 0.500000 0.717190 1.126285
Zn11  Zn    Zn3+2 0.056040 0.500000 0.282810 1.121555
Zn12  Zn    Zn3+2 0.500000 0.056040 0.717190 1.117421
Zn13  Zn    Zn3+2 0.500000 0.943960 0.282810 1.119515
Zn14  Zn    Zn3+2 0.056040 0.500000 0.717190 1.120849
Zn15  Zn    Zn3+2 0.943960 0.500000 0.282810 1.121074
Zn16  Zn    Zn3+2 1.000000 0.443960 0.217190 1.120285

loop_
_geom_bond_atom_site_label_1
_geom_bond_atom_site_label_2
_ccdc_geom_bond_type
C191  Cl5   S    
C159  C194  A    
O15   Zn7   S    
O10   Zn14  S    
C205  C220  A    
C131  O65   D    
C190  C225  A    
O34   Zn15  S    
C118  H13   S    
C41   Cl33  S    
C85   O11   A    
C93   O19   A    
C32   H7    S    
C150  C185  A    
C201  C225  A    
C104  C227  S    
C138  C165  S    
C50   C59   A    
C119  O53   D    
C89   C213  S    
O1    Zn8   S    
C38   Cl30  S    
C21   H44   S    
O2    Zn7   S    
C36   C66   A    
C20   H34   S    
O23   Zn2   S    
C98   C221  S    
C185  Cl47  S    
C166  C202  A    
C175  C210  A    
C50   C72   A    
C193  Cl7   S    
C36   C53   A    
C17   C61   A    
C38   C55   A    
C127  O61   D    
C163  C198  A    
C19   C63   A    
C171  C178  A    
C64   C108  A    
C90   C116  S    
C206  Cl20  S    
C14   C232  T    
C142  C170  S    
C98   O25   A    
C88   O43   A    
C38   C69   A    
C49   Cl41  S    
O45   Zn4   S    
C119  H14   S    
O13   Zn1   S    
C152  C187  A    
C24   C154  A    
C2    C152  A    
C39   C61   A    
C84   O10   A    
C156  C173  A    
O6    Zn10  S    
C145  O80   D    
C204  C219  A    
C148  C175  S    
C177  C213  A    
C133  O68   D    
C18   H12   S    
C102  C225  S    
C73   C114  A    
C176  C212  A    
C161  C196  A    
C53   C82   S    
C96   O33   A    
C124  C182  A    
C42   C55   A    
C192  Cl6   S    
O30   Zn6   S    
C50   Cl42  S    
C141  C169  S    
C86   O13   A    
O28   Zn8   S    
C171  C206  A    
C89   O40   A    
C116  O50   D    
C167  C174  A    
O3    Zn2   S    
C153  C188  A    
O36   Zn11  S    
C28   C33   A    
C121  O55   D    
C1    C79   A    
C31   H6    S    
C25   C69   A    
C41   C63   A    
C132  H27   S    
C98   O31   A    
C42   C64   A    
C27   C71   A    
O20   Zn6   S    
C45   C59   A    
C136  O70   D    
C180  C215  A    
O17   Zn16  S    
C48   C70   A    
C103  O36   A    
C62   C106  A    
C122  O57   D    
C151  C222  A    
C120  C135  S    
C99   O32   A    
C5    C189  S    
C123  O58   D    
C150  C211  A    
C92   O18   A    
C55   C80   S    
C89   O16   A    
C179  C214  A    
C116  H10   S    
C24   C165  A    
C181  C216  A    
C95   O46   A    
C146  C200  A    
C181  Cl34  S    
C78   O45   A    
C49   C71   A    
C199  C224  A    
C194  Cl8   S    
O47   Zn12  S    
C151  C186  A    
C129  H24   S    
C201  Cl15  S    
C79   C115  S    
C44   C75   A    
C103  O29   A    
C135  C183  A    
C6    C9    T    
C147  C174  S    
C3    C167  S    
C7    C8    T    
C210  Cl25  S    
O1    Zn4   S    
C112  C231  S    
C205  Cl19  S    
C96   C228  S    
C125  C152  S    
C87   O14   A    
C35   C155  A    
C30   C74   A    
C198  Cl13  S    
C184  Cl46  S    
C92   C215  S    
C23   C67   A    
C81   O67   A    
C139  O73   D    
C113  C181  A    
C30   H5    S    
C107  C108  A    
C79   C177  A    
O12   Zn9   S    
C88   O15   A    
O16   Zn2   S    
O43   Zn9   S    
C164  C199  A    
C197  C226  A    
C117  O51   D    
C139  H33   S    
C93   C216  S    
C202  C221  A    
O1    Zn12  S    
C58   C86   S    
C127  C154  S    
C65   C105  A    
O35   Zn1   S    
C180  Cl23  S    
C186  Cl48  S    
C183  Cl45  S    
C206  C217  A    
C45   Cl38  S    
C99   C223  S    
O12   Zn13  S    
O23   Zn6   S    
C18   C62   A    
C140  H35   S    
C94   C217  S    
C80   O2    A    
C82   O4    A    
C126  C153  S    
O42   Zn1   S    
C156  C232  S    
C20   C23   A    
C12   C35   S    
C131  C159  S    
C188  Cl3   S    
C112  C176  A    
C92   O47   A    
C208  C215  A    
C46   C163  A    
C104  O37   A    
C2    C168  A    
C61   C105  A    
C182  Cl44  S    
O78   Zn5   S    
C1    C175  A    
C75   C110  A    
C15   C231  T    
O34   Zn16  S    
C172  C207  A    
C4    C178  S    
C32   C76   A    
C7    C211  S    
O39   Zn12  S    
C93   O48   A    
C210  C213  A    
C202  Cl16  S    
C104  O30   A    
C146  C184  A    
C122  H17   S    
O29   Zn5   S    
C137  O71   D    
C101  C180  A    
C28   C72   A    
C169  C204  A    
C33   C77   A    
C102  O39   A    
C187  C223  A    
C76   C111  A    
C37   C67   A    
C212  Cl26  S    
C173  C208  A    
C96   O22   A    
O9    Zn15  S    
C154  C190  A    
C52   C81   S    
C130  O64   D    
C131  H26   S    
C142  O76   D    
C48   Cl40  S    
C182  C217  A    
C121  C146  S    
C51   C60   A    
C42   Cl35  S    
C2    C9    S    
C63   C107  A    
O8    Zn12  S    
C91   O41   A    
C44   Cl37  S    
C57   C158  A    
O22   Zn3   S    
C185  C220  A    
C174  C209  A    
C97   O24   A    
C166  C222  A    
C27   H2    S    
C209  C216  A    
C8    C222  S    
C14   C46   S    
C118  O52   D    
C68   C161  A    
C18   C21   A    
C82   O78   A    
C45   C76   A    
C122  C150  S    
C59   C83   S    
C147  H41   S    
C29   C32   A    
C149  O83   D    
C193  C228  A    
C71   C110  A    
O1    Zn1   S    
O34   Zn5   S    
C165  C201  A    
C199  Cl14  S    
C203  Cl17  S    
C1    C230  S    
C192  C227  A    
C44   C58   A    
C87   O42   A    
C91   O17   A    
C90   C112  A    
C17   H1    S    
C102  O28   A    
C195  Cl9   S    
C72   C111  A    
C81   O3    A    
C117  H11   S    
C194  C229  A    
C83   O9    A    
O12   Zn3   S    
C147  O81   D    
C123  C151  S    
C141  O75   D    
C158  C193  A    
C85   O7    A    
C101  C156  A    
C88   C220  S    
C196  Cl10  S    
C133  H28   S    
C127  H21   S    
C144  H39   S    
C138  H32   S    
C128  H22   S    
O21   Zn5   S    
O44   Zn14  S    
C149  H43   S    
C4    C11   T    
C13   C153  A    
C170  C205  A    
C160  C195  A    
O27   Zn7   S    
C57   C160  A    
C212  C214  A    
C144  O79   D    
C26   C70   A    
C19   H23   S    
C99   O26   A    
C190  Cl4   S    
C77   C114  A    
O23   Zn10  S    
C198  C227  A    
C13   C164  A    
O32   Zn14  S    
C197  Cl11  S    
C207  C218  A    
C21   C65   A    
O67   Zn6   S    
C113  C167  A    
C100  O27   A    
C25   H47   S    
C130  H25   S    
C51   Cl43  S    
C172  C189  A    
C105  C106  A    
C144  C172  S    
C22   H45   S    
C34   C52   A    
C17   C22   A    
C130  C158  S    
C149  C176  S    
C101  C117  S    
O34   Zn11  S    
C157  C192  A    
C143  C171  S    
C109  C110  A    
C6    C200  S    
C56   C85   S    
C95   O21   A    
O46   Zn15  S    
C16   C230  T    
C111  C114  A    
C37   Cl29  S    
C187  Cl2   S    
O37   Zn10  S    
C134  H29   S    
O38   Zn13  S    
C43   Cl36  S    
C29   C73   A    
C196  C229  A    
C54   C78   S    
C136  C163  S    
C140  C168  S    
C28   H3    S    
C128  O62   D    
C137  H31   S    
C60   C84   S    
C125  O59   D    
C126  O60   D    
C74   C109  A    
C129  C157  S    
C119  C124  S    
C103  C226  S    
O11   Zn9   S    
C162  C197  A    
C132  C160  S    
O25   Zn16  S    
C195  C228  A    
C143  H38   S    
C91   C214  S    
C29   H4    S    
C209  Cl24  S    
C125  H19   S    
O48   Zn13  S    
C126  H20   S    
C100  C224  S    
C84   O6    A    
C11   C24   S    
C95   C218  S    
C40   C62   A    
C86   O8    A    
O4    Zn16  S    
C135  C189  A    
C3    C12   T    
C128  C155  S    
C47   C60   A    
C31   C75   A    
C184  C219  A    
C22   C66   A    
C170  C211  A    
O26   Zn2   S    
C115  H9    S    
C16   C68   S    
C87   C219  S    
C68   C159  A    
O19   Zn3   S    
C179  Cl12  S    
C204  Cl18  S    
C43   C74   A    
C36   Cl28  S    
C39   C52   A    
C26   C31   A    
C141  H36   S    
C138  O72   D    
C27   C30   A    
O31   Zn15  S    
C15   C57   S    
C78   O84   A    
C208  Cl22  S    
C66   C106  A    
C34   C65   A    
C148  H42   S    
C69   C108  A    
C145  H40   S    
C97   C229  S    
C35   C162  A    
C203  C223  A    
C97   O35   A    
C143  O77   D    
C177  Cl1   S    
C46   C157  A    
C49   C58   A    
C134  C162  S    
C20   C64   A    
C139  C166  S    
C100  O38   A    
C115  O49   D    
C70   C109  A    
C47   Cl39  S    
C26   H48   S    
C33   H8    S    
O40   Zn10  S    
C83   O5    A    
O84   Zn8   S    
O12   Zn7   S    
C155  C191  A    
C37   C54   A    
C188  C224  A    
C145  C173  S    
C183  C218  A    
C169  C200  A    
C120  O54   D    
C123  H18   S    
C47   C77   A    
C132  O66   D    
C136  H30   S    
C48   C56   A    
C90   C179  A    
O24   Zn4   S    
C129  O63   D    
C142  H37   S    
C124  C178  A    
C186  C221  A    
C51   C73   A    
C120  H15   S    
C10   C13   S    
C133  C161  S    
O41   Zn11  S    
C137  C164  S    
O5    Zn11  S    
C168  C203  A    
O7    Zn13  S    
C207  Cl21  S    
C5    C10   T    
C39   Cl31  S    
C40   Cl32  S    
C23   H46   S    
C67   C107  A    
C148  O82   D    
C94   O20   A    
O33   Zn9   S    
C34   Cl27  S    
O18   Zn4   S    
C19   C25   A    
O23   Zn14  S    
C41   C54   A    
C113  C118  S    
C43   C56   A    
O14   Zn8   S    
C40   C53   A    
C140  O74   D    
C121  H16   S    
C94   O44   A    
C191  C226  A    
C80   O56   A    
O56   Zn3   S    
C134  O69   D    
