data_mof_unit_31024.cif
_audit_creation_date              2012-12-11T14:49:49-0500
_audit_creation_method            fapswitch 2.2
_symmetry_space_group_name_H-M    P1
_symmetry_Int_Tables_number       1
_space_group_crystal_system       triclinic
_cell_length_a                    10.913319
_cell_length_b                    10.925647
_cell_length_c                    18.917712
_cell_angle_alpha                 90.000115
_cell_angle_beta                  90.0
_cell_angle_gamma                 119.985895
_cell_volume                      1953.7318891

loop_
_atom_site_label
_atom_site_type_symbol
_atom_type_description
_atom_site_fract_x
_atom_site_fract_y
_atom_site_fract_z
_atom_type_partial_charge
C1    C     C_R   0.528982 0.468892 0.646592 0.562785
C2    C     C_R   0.463883 0.530645 0.355318 0.578249
C3    C     C_R   0.469160 0.932683 0.144554 0.575138
C4    C     C_R   0.067247 0.536412 0.355457 0.578964
C5    C     C_R   0.387570 0.018782 0.535211 0.089173
C6    C     C_R   0.631758 0.608520 0.964407 0.092220
C7    C     C_R   0.976994 0.368152 0.535671 0.093736
C8    C     C_R   0.387577 0.018791 0.964790 0.089168
C9    C     C_R   0.631758 0.608521 0.535593 0.092221
C10   C     C_R   0.976993 0.368152 0.964329 0.093735
C11   C     C_R   0.988635 0.379921 0.038384 0.082096
C12   C     C_R   0.940163 0.471003 0.853340 0.559039
C13   C     C_R   0.620337 0.608651 0.461533 0.081243
C14   C     C_R   0.389019 0.008126 0.038423 0.120821
C15   C     C_R   0.988636 0.379921 0.461616 0.082098
C16   C     C_R   0.620337 0.608652 0.038467 0.081239
C17   C     C_R   0.389018 0.008126 0.461578 0.120825
C18   C     C_R   0.478581 0.966245 0.430123 0.042185
C19   C     C_R   0.488515 0.520326 0.070098 0.050773
C20   C     C_R   0.033378 0.512047 0.430190 0.049315
C21   C     C_R   0.478577 0.966238 0.069877 0.042182
C22   C     C_R   0.488515 0.520325 0.429902 0.050781
C23   C     C_R   0.530654 0.059885 0.646574 0.546540
C24   C     C_R   0.033378 0.512048 0.069809 0.049313
C25   C     C_R   0.001753 0.487496 0.923588 0.047112
C26   C     C_R   0.512485 0.512776 0.576111 0.045985
C27   C     C_R   0.484807 0.997577 0.923586 0.018782
C28   C     C_R   0.001753 0.487496 0.576412 0.047111
C29   C     C_R   0.512485 0.512776 0.923889 0.045982
C30   C     C_R   0.484806 0.997574 0.576414 0.018782
C31   C     C_R   0.560974 0.929465 0.472296 -0.189308
C32   C     C_R   0.369194 0.436978 0.028192 -0.179221
C33   C     C_R   0.071793 0.631445 0.472358 -0.185879
C34   C     C_R   0.528982 0.468892 0.853408 0.562782
C35   C     C_R   0.560966 0.929454 0.027703 -0.189308
C36   C     C_R   0.369194 0.436977 0.471807 -0.179222
C37   C     C_R   0.071795 0.631445 0.027642 -0.185882
C38   C     C_R   0.057624 0.619624 0.955467 -0.188068
C39   C     C_R   0.380775 0.434147 0.543909 -0.185457
C40   C     C_R   0.562823 0.943437 0.955496 -0.181126
C41   C     C_R   0.057623 0.619623 0.544533 -0.188067
C42   C     C_R   0.380775 0.434148 0.956091 -0.185457
C43   C     C_R   0.562828 0.943443 0.544503 -0.181124
C44   C     C_R   0.940163 0.471003 0.646660 0.559039
C45   C     C_R   0.530654 0.059886 0.853427 0.546539
C46   C     C_R   0.463883 0.530645 0.144682 0.578245
C47   C     C_R   0.469161 0.932686 0.355445 0.575139
C48   C     C_R   0.067247 0.536412 0.144542 0.578963
Cr1   Cr    Cr6+3 0.776430 0.541680 0.750000 1.053922
Cr2   Cr    Cr6+3 0.765250 0.223570 0.750000 1.061109
Cr3   Cr    Cr6+3 0.458320 0.234750 0.750000 1.000728
Cr4   Cr    Cr6+3 0.541680 0.776430 0.250000 1.057126
Cr5   Cr    Cr6+3 0.223570 0.765250 0.250000 1.054606
Cr6   Cr    Cr6+3 0.234750 0.458320 0.250000 1.056665
H1    H     H_    0.236545 0.984327 0.608332 0.240966
H2    H     H_    0.791178 0.806700 0.557115 0.209256
H3    H     H_    0.840523 0.158883 0.950664 0.236372
H4    H     H_    0.013824 0.207367 0.943114 0.211462
H5    H     H_    0.012209 0.213462 0.067230 0.220200
H6    H     H_    0.844501 0.184373 0.073367 0.232495
H7    H     H_    0.785945 0.799616 0.433052 0.218771
H8    H     H_    0.816815 0.662352 0.426766 0.233465
H9    H     H_    0.197810 0.981767 0.066698 0.240173
H10   H     H_    0.333540 0.150122 0.071203 0.244824
H11   H     H_    0.012209 0.213460 0.432770 0.220199
H12   H     H_    0.340330 0.156978 0.582136 0.278031
H13   H     H_    0.844502 0.184374 0.426632 0.232495
H14   H     H_    0.785954 0.799615 0.066942 0.218769
H15   H     H_    0.816809 0.662343 0.073240 0.233466
H16   H     H_    0.197801 0.981725 0.433288 0.240163
H17   H     H_    0.333494 0.150103 0.428818 0.244828
H18   H     H_    0.624755 0.889182 0.449524 0.149555
H19   H     H_    0.265164 0.373388 0.051071 0.152326
H20   H     H_    0.113638 0.735535 0.449563 0.155019
H21   H     H_    0.624743 0.889165 0.050475 0.149561
H22   H     H_    0.265164 0.373387 0.448929 0.152324
H23   H     H_    0.841619 0.683444 0.950381 0.239164
H24   H     H_    0.113640 0.735536 0.050438 0.155032
H25   H     H_    0.082455 0.713193 0.924977 0.143693
H26   H     H_    0.287295 0.363830 0.574125 0.144970
H27   H     H_    0.632598 0.919898 0.925015 0.144341
H28   H     H_    0.082454 0.713193 0.575023 0.143694
H29   H     H_    0.287295 0.363832 0.925874 0.144974
H30   H     H_    0.632607 0.919907 0.574983 0.144342
H31   H     H_    0.791175 0.806699 0.942882 0.209254
H32   H     H_    0.840527 0.158882 0.549336 0.236371
H33   H     H_    0.013829 0.207370 0.556886 0.211461
H34   H     H_    0.236555 0.984357 0.891671 0.240971
H35   H     H_    0.340359 0.157004 0.917869 0.278037
H36   H     H_    0.841616 0.683440 0.549623 0.239167
N1    N     N_3   0.287486 0.051989 0.565778 -0.658691
N2    N     N_3   0.951048 0.258417 0.418126 -0.608265
N3    N     N_3   0.741937 0.693783 0.081762 -0.607770
N4    N     N_3   0.303701 0.044796 0.418550 -0.594819
N5    N     N_3   0.763662 0.702785 0.930621 -0.593047
N6    N     N_3   0.938074 0.235859 0.569234 -0.594133
N7    N     N_3   0.287504 0.052015 0.934225 -0.658693
N8    N     N_3   0.763661 0.702787 0.569380 -0.593050
N9    N     N_3   0.938071 0.235858 0.930766 -0.594133
N10   N     N_3   0.951047 0.258417 0.081874 -0.608265
N11   N     N_3   0.741937 0.693782 0.418239 -0.607774
N12   N     N_3   0.303706 0.044799 0.081452 -0.594823
O1    O     O_R   0.916700 0.566820 0.669930 -0.525484
O2    O     O_R   0.566820 0.916700 0.330070 -0.526031
O3    O     O_R   0.083300 0.650120 0.169930 -0.527972
O4    O     O_R   0.349880 0.433180 0.330070 -0.527984
O5    O     O_R   0.649840 0.534790 0.674920 -0.458823
O6    O     O_R   0.884950 0.350160 0.825080 -0.462827
O7    O     O_R   0.465210 0.115050 0.674920 -0.515037
O8    O     O_R   0.649840 0.534790 0.825080 -0.458822
O9    O     O_R   0.884950 0.350160 0.674920 -0.462826
O10   O     O_R   0.465210 0.115050 0.825080 -0.515039
O11   O     O_R   0.534790 0.649840 0.174920 -0.470218
O12   O     O_R   0.650120 0.083300 0.830070 -0.507516
O13   O     O_R   0.350160 0.884950 0.325080 -0.472787
O14   O     O_R   0.115050 0.465210 0.174920 -0.469870
O15   O     O_R   0.534790 0.649840 0.325080 -0.470221
O16   O     O_R   0.350160 0.884950 0.174920 -0.472780
O17   O     O_R   0.115050 0.465210 0.325080 -0.469870
O18   O     O_3   0.666667 0.333333 0.750000 -0.260359
O19   O     O_3   0.333333 0.666667 0.250000 -0.291037
O20   O     O_R   0.433180 0.349880 0.669930 -0.545282
O21   O     O_R   0.916700 0.566820 0.830070 -0.525481
O22   O     O_R   0.650120 0.083300 0.669930 -0.507516
O23   O     O_R   0.433180 0.349880 0.830070 -0.545285
O24   O     O_R   0.566820 0.916700 0.169930 -0.526030
O25   O     O_R   0.083300 0.650120 0.330070 -0.527975
O26   O     O_R   0.349880 0.433180 0.169930 -0.527988

loop_
_geom_bond_atom_site_label_1
_geom_bond_atom_site_label_2
_ccdc_geom_bond_type
H11   N2    S    
Cr3   O10   S    
C43   H30   S    
C29   C42   A    
C11   C24   A    
H2    N8    S    
C18   C47   S    
C19   C46   S    
Cr1   O5    S    
H17   N4    S    
Cr4   O11   S    
H10   N12   S    
C7    N6    S    
C35   H21   S    
C16   N3    S    
C9    N8    S    
C31   C43   A    
Cr2   O18   S    
C14   C21   A    
C46   O26   A    
H16   N4    S    
H15   N3    S    
C16   C19   A    
C26   C39   A    
C14   N12   S    
Cr1   O18   S    
C5    C17   A    
C38   H25   S    
Cr1   O21   S    
C28   C41   A    
C9    C13   A    
C1    O20   A    
Cr2   O9    S    
H1    N1    S    
C36   H22   S    
C15   N2    S    
C45   O12   A    
C44   O1    A    
Cr6   O14   S    
C2    C22   S    
C4    O17   A    
Cr5   O25   S    
H34   N7    S    
C46   O11   A    
C48   O14   A    
H8    N11   S    
Cr4   O15   S    
C27   C45   S    
C7    C15   A    
Cr3   O7    S    
Cr6   O17   S    
Cr2   O6    S    
H5    N10   S    
H9    N12   S    
C19   C32   A    
C18   C31   A    
C2    O15   A    
Cr3   O18   S    
C9    C26   A    
C24   C37   A    
C15   C20   A    
C23   O7    A    
C3    O24   A    
Cr6   O4    S    
C24   C48   S    
C23   C30   S    
Cr2   O22   S    
C32   H19   S    
C12   O6    A    
Cr4   O24   S    
Cr5   O16   S    
Cr6   O26   S    
C29   C34   S    
H23   N5    S    
C47   O13   A    
C7    C28   A    
H35   N7    S    
C11   N10   S    
Cr2   O12   S    
Cr3   O23   S    
H7    N11   S    
C8    N7    S    
C2    O4    A    
C37   C38   A    
C3    O16   A    
C25   C38   A    
Cr4   O19   S    
C45   O10   A    
C48   O3    A    
C27   C40   A    
H33   N6    S    
C17   C18   A    
C5    N1    S    
H32   N6    S    
C1    O5    A    
C20   C33   A    
C10   C25   A    
C31   H18   S    
Cr6   O19   S    
C1    C26   S    
C34   O8    A    
C30   C43   A    
C3    C21   S    
C13   N11   S    
C5    C30   A    
C8    C27   A    
Cr4   O2    S    
C8    C14   A    
C47   O2    A    
C4    O25   A    
C40   H27   S    
C36   C39   A    
H4    N9    S    
H6    N10   S    
Cr1   O1    S    
H12   N1    S    
C21   C35   A    
C22   C36   A    
C37   H24   S    
H14   N3    S    
C12   C25   S    
C33   C41   A    
C39   H26   S    
C35   C40   A    
C42   H29   S    
Cr5   O19   S    
H31   N5    S    
C12   O21   A    
C34   O23   A    
C41   H28   S    
H13   N2    S    
C28   C44   S    
C13   C22   A    
C10   N9    S    
C10   C11   A    
C6    C16   A    
C4    C20   S    
C44   O9    A    
Cr5   O3    S    
C33   H20   S    
C6    C29   A    
C6    N5    S    
Cr3   O20   S    
C32   C42   A    
C17   N4    S    
C23   O22   A    
H36   N8    S    
Cr5   O13   S    
Cr1   O8    S    
H3    N9    S    
