data_mof_unit_22292.cif
_audit_creation_date              2012-12-11T14:32:51-0500
_audit_creation_method            fapswitch 2.2
_symmetry_space_group_name_H-M    P1
_symmetry_Int_Tables_number       1
_space_group_crystal_system       triclinic
_cell_length_a                    6.964417
_cell_length_b                    13.78861
_cell_length_c                    17.934584
_cell_angle_alpha                 113.014208
_cell_angle_beta                  95.742059
_cell_angle_gamma                 90.355171
_cell_volume                      1575.28812147

loop_
_atom_site_label
_atom_site_type_symbol
_atom_type_description
_atom_site_fract_x
_atom_site_fract_y
_atom_site_fract_z
_atom_type_partial_charge
O1    O     O_R   0.484560 0.544530 0.414330 -0.499426
O2    O     O_R   0.197040 0.638810 0.585080 -0.540317
O3    O     O_R   0.026800 0.455470 0.585670 -0.545946
C1    C     C_R   0.374554 0.680492 0.610033 0.685300
O4    O     O_R   0.155000 0.556150 0.414940 -0.540547
O5    O     O_R   0.984450 0.372220 0.414320 -0.545795
C2    C     C_R   0.318576 0.566576 0.387436 0.785747
O6    O     O_R   0.526900 0.627780 0.585680 -0.540706
O7    O     O_3   0.339170 0.439750 0.499990 -0.382634
V1    V     V_3+5 0.064350 0.511180 0.500000 1.390865
O8    O     O_R   0.654880 0.361190 0.414920 -0.536294
C3    C     C_R   0.816974 0.323006 0.387678 0.727434
O9    O     O_R   0.696930 0.443850 0.585060 -0.542274
C4    C     C_R   0.873438 0.431567 0.611250 0.680380
V2    V     V_3+5 0.564340 0.488820 0.500000 1.414605
O10   O     O_3   0.839390 0.560250 0.500010 -0.364124
C5    C     C_R   0.043107 0.859705 0.821471 -0.032550
C6    C     C_R   0.908443 0.393818 0.677936 -0.047211
C7    C     C_R   0.927653 0.817462 0.679872 -0.135332
C8    C     C_R   0.973111 0.785909 0.744182 -0.153592
C9    C     C_R   0.064703 0.966716 0.833881 -0.221915
C10   C     C_R   0.022720 0.000903 0.768669 0.092983
C11   C     C_R   0.951121 0.923626 0.691315 0.123731
C12   C     C_R   0.038025 0.109432 0.778542 0.073925
C13   C     C_R   0.971618 0.138933 0.712099 0.074239
C14   C     C_R   0.905496 0.057934 0.636298 -0.182566
C15   C     C_R   0.897691 0.952757 0.626180 -0.215062
C16   C     C_R   0.113181 0.189670 0.853266 -0.196837
C17   C     C_R   0.111342 0.295248 0.864953 -0.222150
C18   C     C_R   0.039157 0.325600 0.802357 0.120234
C19   C     C_R   0.971164 0.248519 0.724228 0.095029
C20   C     C_R   0.038686 0.433321 0.817449 -0.133757
C21   C     C_R   0.975175 0.466903 0.755871 -0.139263
C22   C     C_R   0.906431 0.285154 0.662032 -0.216706
H1    H     H_    0.843529 0.893592 0.566956 0.104898
H2    H     H_    0.858420 0.231815 0.600464 0.096659
H3    H     H_    0.982631 0.550423 0.768686 0.089468
H4    H     H_    0.168160 0.354104 0.923944 0.118659
H5    H     H_    0.870927 0.758687 0.620966 0.139761
H6    H     H_    0.950810 0.703664 0.733761 0.091965
H7    H     H_    0.102554 0.021745 0.895696 0.075781
H8    H     H_    0.856430 0.073272 0.583290 0.124543
H9    H     H_    0.174914 0.173314 0.904375 0.118508
H10   H     H_    0.091292 0.492023 0.877031 0.134959
H11   H     H_    0.093873 0.237291 0.295160 0.162328
H12   H     H_    0.880029 0.012852 0.220779 0.144688
C23   C     C_2   0.131811 0.044067 0.176262 0.284340
C24   C     C_2   0.989154 0.072168 0.225352 -0.209944
C25   C     C_2   0.815572 0.213821 0.324791 0.000105
C26   C     C_2   0.973071 0.181522 0.284548 -0.112175
C27   C     C_R   0.411734 0.791350 0.675201 -0.119322
C28   C     C_R   0.538614 0.477175 0.818635 -0.069064
C29   C     C_R   0.535106 0.903437 0.816592 0.468310
C30   C     C_R   0.475395 0.804097 0.755442 -0.196861
C31   C     C_R   0.404783 0.883461 0.657191 -0.223468
C32   C     C_R   0.469492 0.986165 0.717726 0.048034
C33   C     C_R   0.549144 0.991716 0.795326 0.018322
C34   C     C_R   0.462254 0.084083 0.705273 0.093383
C35   C     C_R   0.532264 0.182293 0.770785 0.075025
C36   C     C_R   0.631499 0.178371 0.840916 -0.204612
C37   C     C_R   0.648201 0.084763 0.850383 -0.196055
C38   C     C_R   0.387002 0.088462 0.630902 -0.184764
C39   C     C_R   0.375013 0.184683 0.621987 -0.218695
C40   C     C_R   0.432730 0.280613 0.687271 0.107722
C41   C     C_R   0.511161 0.281378 0.763152 0.100454
C42   C     C_R   0.409909 0.376202 0.677547 -0.117201
C43   C     C_R   0.461306 0.473076 0.742299 -0.144301
C44   C     C_R   0.561523 0.381588 0.828959 -0.202459
H13   H     H_    0.743566 0.086476 0.902100 0.143162
H14   H     H_    0.610802 0.388471 0.889795 0.090239
H15   H     H_    0.437845 0.545221 0.732954 0.091132
H16   H     H_    0.314766 0.184254 0.563747 0.121589
H17   H     H_    0.479794 0.735706 0.770978 0.108929
H18   H     H_    0.353468 0.872756 0.595574 0.101542
H19   H     H_    0.708511 0.245913 0.888200 0.130689
H20   H     H_    0.334454 0.018403 0.578737 0.123053
H21   H     H_    0.349482 0.375878 0.619579 0.148075
H22   H     H_    0.336250 0.669508 0.195983 0.129812
C45   C     C_2   0.318666 0.604520 0.320086 -0.446473
C46   C     C_2   0.484211 0.626979 0.293747 0.500439
H23   H     H_    0.776320 0.644377 0.209787 0.162169
C47   C     C_2   0.636707 0.660953 0.185720 -0.323795
C48   C     C_2   0.476160 0.654254 0.220820 -0.232412
H24   H     H_    0.179588 0.612196 0.290047 0.104938
O11   O     O_R   0.421600 0.630430 0.917010 -0.540374
O12   O     O_R   0.793840 0.702190 0.087630 -0.547394
O13   O     O_R   0.964010 0.886170 0.088190 -0.551063
C49   C     C_R   0.631507 0.694070 0.116246 0.738958
O14   O     O_R   0.751460 0.619510 0.917500 -0.538732
O15   O     O_R   0.921330 0.802900 0.916840 -0.507141
C50   C     C_R   0.574001 0.581597 0.888898 0.688853
O16   O     O_R   0.464290 0.713700 0.088350 -0.535882
O17   O     O_3   0.609200 0.818520 0.002630 -0.340834
V3    V     V_3+5 0.884140 0.747190 0.002530 1.411890
O18   O     O_R   0.251150 0.814630 0.917340 -0.538378
C51   C     C_R   0.074772 0.825060 0.890084 0.696046
O19   O     O_R   0.293530 0.897310 0.087470 -0.536975
C52   C     C_R   0.131385 0.934900 0.114781 0.645459
V4    V     V_3+5 0.384070 0.769710 0.002370 1.419929
O20   O     O_3   0.109180 0.698190 0.002460 -0.380553
N1    N     N_3   0.653604 0.140790 0.309933 -0.669335
H25   H     H_    0.546103 0.176615 0.346845 0.244848
H26   H     H_    0.594343 0.120372 0.249708 0.283733
O21   O     O_3   0.272422 0.117672 0.179988 -0.561875
C53   C     C_3   0.217596 0.156065 0.119080 -0.296137
H27   H     H_    0.335672 0.210092 0.118566 0.163014
H28   H     H_    0.085245 0.201846 0.132320 0.147842
H29   H     H_    0.194099 0.091477 0.057287 0.098615
O22   O     O_3   0.593428 0.908333 0.894804 -0.536211
C54   C     C_3   0.522251 0.995557 0.958203 -0.144107
H30   H     H_    0.419456 0.043356 0.937577 0.067488
H31   H     H_    0.645437 0.046675 0.998922 0.103330
H32   H     H_    0.445512 0.968953 0.997885 0.190158
O23   O     O_3   0.664051 0.619679 0.331608 -0.531780
C55   C     C_3   0.726560 0.720762 0.390138 -0.197543
H33   H     H_    0.743701 0.778153 0.361325 0.115029
H34   H     H_    0.870011 0.715164 0.420797 0.152858
H35   H     H_    0.626111 0.750441 0.437907 0.104720

loop_
_geom_bond_atom_site_label_1
_geom_bond_atom_site_label_2
_ccdc_geom_bond_type
C34   C38   A    
C18   C20   A    
C31   C32   A    
C13   C19   A    
O17   V3    S    
C4    C6    S    
O2    C1    A    
O18   C51   A    
C1    O6    A    
C3    C25   S    
O11   C50   A    
C29   C30   A    
C53   H28   S    
C14   C15   A    
C38   C39   A    
C23   C52   S    
C16   C17   A    
H23   C47   S    
O5    C3    A    
C45   H24   S    
C8    H6    S    
O12   C49   A    
O18   V4    S    
C37   H13   S    
V2    O10   S    
O13   V3    S    
O19   C52   A    
C5    C8    A    
C32   C33   A    
O14   V3    S    
C54   H30   S    
O12   V3    S    
C31   H18   S    
O8    V2    S    
H22   C48   S    
C49   O16   A    
C55   H34   S    
C17   H4    S    
O1    V2    S    
C11   C15   A    
O14   C50   A    
O7    V1    S    
O17   V4    S    
C43   H15   S    
C28   C44   A    
O13   C52   A    
C41   C44   A    
C24   C26   S    
C42   C43   A    
C35   C36   A    
N1    H26   S    
O9    C4    A    
C38   H20   S    
C46   C48   S    
O21   C53   S    
O19   V4    S    
O15   V3    S    
C53   H29   S    
H12   C24   S    
C1    C27   S    
N1    H25   S    
C12   C13   A    
O23   C55   S    
O4    C2    A    
C29   C33   A    
C27   C31   A    
C15   H1    S    
C13   C14   A    
C21   H3    S    
C45   C46   D    
C36   C37   A    
C40   C42   A    
C7    C11   A    
C17   C18   A    
O11   V4    S    
C30   H17   S    
C23   C24   D    
V3    O20   S    
C55   H35   S    
C20   H10   S    
C19   C22   A    
C5    C51   S    
O15   C51   A    
C6    C22   A    
C54   H32   S    
O3    C4    A    
C7    H5    S    
C9    H7    S    
C46   O23   S    
C47   C48   D    
O6    V2    S    
O9    V2    S    
C10   C12   A    
O2    V1    S    
C14   H8    S    
C2    C45   S    
C29   O22   S    
C42   H21   S    
C23   O21   S    
C16   H9    S    
O1    C2    A    
C12   C16   A    
C28   C43   A    
O5    V1    S    
O8    C3    A    
C33   C37   A    
C53   H27   S    
C36   H19   S    
V4    O20   S    
C27   C30   A    
C20   C21   A    
C7    C8    A    
C34   C35   A    
O4    V1    S    
O3    V1    S    
V1    O10   S    
O22   C54   S    
C35   C41   A    
C25   N1    S    
C18   C19   A    
H11   C26   S    
C47   C49   S    
C40   C41   A    
C32   C34   A    
C22   H2    S    
O7    V2    S    
C6    C21   A    
C54   H31   S    
C39   C40   A    
C39   H16   S    
C44   H14   S    
C25   C26   D    
C10   C11   A    
C28   C50   S    
C9    C10   A    
C55   H33   S    
O16   V4    S    
C5    C9    A    
