data_mof_unit_51779.cif
_audit_creation_date              2013-03-05T16:43:17-0500
_audit_creation_method            fapswitch 2.2
_symmetry_space_group_name_H-M    P1
_symmetry_Int_Tables_number       1
_space_group_crystal_system       triclinic
_cell_length_a                    15.739039
_cell_length_b                    10.678752
_cell_length_c                    9.861612
_cell_angle_alpha                 90.092119
_cell_angle_beta                  89.926344
_cell_angle_gamma                 89.868814
_cell_volume                      1657.46575071

loop_
_atom_site_label
_atom_site_type_symbol
_atom_site_description
_atom_site_fract_x
_atom_site_fract_y
_atom_site_fract_z
_atom_type_partial_charge
O1    O     O_R   0.500010 0.316790 0.614690 -0.623481
O2    O     O_R   0.500000 0.316760 0.385350 -0.625324
C1    C     C_R   0.497975 0.260036 0.500111 0.877269
O3    O     O_R   0.377150 0.500020 0.614720 -0.602784
O4    O     O_R   0.377140 0.499990 0.385380 -0.616838
C2    C     C_R   0.338332 0.500133 0.500169 0.894960
Zn1   Zn    Zn3+2 0.500010 0.500020 0.653130 0.989530
Zn2   Zn    Zn3+2 0.499990 0.499980 0.346870 0.973808
O5    O     O_R   0.500000 0.683240 0.614650 -0.610588
O6    O     O_R   0.499990 0.683210 0.385310 -0.621611
O7    O     O_R   0.622860 0.500010 0.614620 -0.603880
O8    O     O_R   0.622850 0.499980 0.385280 -0.621535
C3    C     C_R   0.498043 0.739920 0.500130 0.924077
C4    C     C_R   0.661695 0.500128 0.499910 0.938586
C5    C     C_3   0.048466 0.523171 0.655719 0.351267
C6    C     C_3   0.050928 0.387796 0.442390 -0.494531
C7    C     C_3   0.953497 0.388305 0.429608 0.039267
H1    H     H_    0.929702 0.421691 0.703326 0.211917
H2    H     H_    0.079603 0.370132 0.341097 0.210197
H3    H     H_    0.071921 0.307477 0.505262 0.245025
H4    H     H_    0.936399 0.393429 0.320213 0.165201
C8    C     C_1   0.750509 0.501500 0.500103 -0.107772
C9    C     C_3   0.082821 0.513506 0.505076 -0.020199
C10   C     C_3   0.949379 0.509222 0.651498 -0.426585
C11   C     C_3   0.917281 0.505323 0.502984 0.086473
C12   C     C_3   0.948132 0.624662 0.428625 -0.472660
C13   C     C_3   0.047443 0.626364 0.417217 0.360086
C14   C     C_1   0.825776 0.503007 0.501152 0.010421
C15   C     C_1   0.174415 0.509078 0.502551 0.084011
C16   C     C_1   0.249623 0.504323 0.500802 -0.066035
H5    H     H_    0.922619 0.706631 0.484979 0.258412
H6    H     H_    0.915687 0.584579 0.707616 0.233380
H7    H     H_    0.918970 0.629473 0.326091 0.196804
C17   C     C_R   0.498161 0.064065 0.623105 0.065320
C18   C     C_R   0.486736 0.128567 0.501991 -0.053373
C19   C     C_R   0.461127 0.064619 0.384759 -0.186451
H8    H     H_    0.445875 0.113694 0.292017 0.158697
C20   C     C_R   0.461186 0.935062 0.384700 -0.157669
H9    H     H_    0.445815 0.885643 0.291919 0.173961
C21   C     C_R   0.487183 0.871429 0.501783 -0.055537
C22   C     C_R   0.499177 0.936412 0.622594 0.029190
C23   C     C_3   0.569609 0.930872 0.724875 0.137559
C24   C     C_3   0.567892 0.073304 0.725796 -0.503377
H10   H     H_    0.549770 0.887703 0.822520 0.120212
H11   H     H_    0.544830 0.112886 0.823472 0.180114
H12   H     H_    0.626058 0.118755 0.684935 0.241626
C25   C     C_R   0.428482 0.467820 0.071228 0.237893
N1    N     N_R   0.499430 0.499140 0.142800 -0.117470
C26   C     C_R   0.567909 0.543101 0.071892 -0.117416
H13   H     H_    0.623284 0.576049 0.125912 0.171526
C27   C     C_R   0.567922 0.543058 0.927954 -0.116599
H14   H     H_    0.623338 0.575812 0.873854 0.196475
N2    N     N_R   0.499430 0.499180 0.857150 -0.122216
C28   C     C_R   0.428455 0.468008 0.928715 0.241921
C29   C     C_3   0.383025 0.345907 0.922265 -0.475187
C30   C     C_3   0.383351 0.345327 0.076324 -0.497235
H15   H     H_    0.318338 0.355845 0.878411 0.239067
H16   H     H_    0.422394 0.270180 0.876657 0.211026
H17   H     H_    0.318819 0.354232 0.121322 0.228189
H18   H     H_    0.423300 0.269580 0.119841 0.206232
N3    N     N_R   0.075325 0.641978 0.719873 0.243753
O9    O     O_R   0.020867 0.726933 0.758328 -0.310753
O10   O     O_R   0.155422 0.661128 0.745100 -0.322200
N4    N     N_R   0.648832 0.878920 0.670053 0.235328
O11   O     O_R   0.688371 0.791030 0.735995 -0.388340
O12   O     O_R   0.680173 0.918695 0.555703 -0.365826
I1    I     I_    0.098397 0.374766 0.785086 -0.260442
I2    I     I_    0.901470 0.212422 0.499955 -0.205884
N5    N     N_R   0.083564 0.748112 0.460266 0.254592
O13   O     O_R   0.035297 0.844172 0.487453 -0.297421
O14   O     O_R   0.165000 0.767160 0.450534 -0.342044
I3    I     I_    0.081536 0.607456 0.203730 -0.214106

loop_
_geom_bond_atom_site_label_1
_geom_bond_atom_site_label_2
_geom_bond_distance
_ccdc_geom_bond_type
O1    C1    1.281816 A    
O4    Zn2   1.970003 S    
Zn1   O7    1.970004 S    
C29   C30   1.519303 S    
C10   H6    1.109469 S    
C21   C22   1.391086 A    
C15   C16   1.184770 T    
C9    C13   1.585788 S    
C13   I3    2.180902 S    
C22   C23   1.500829 S    
C12   H7    1.112201 S    
C25   N1    1.363783 A    
C13   N5    1.481880 S    
C30   H17   1.111668 S    
C1    C18   1.415581 S    
Zn2   O8    1.970926 S    
C5    I1    2.181763 S    
N4    O11   1.300526 A    
C4    C8    1.397958 S    
C26   C27   1.419463 A    
C19   C20   1.383499 A    
O2    C1    1.284894 A    
C5    N3    1.479583 S    
C7    C11   1.550096 S    
C12   H5    1.110200 S    
C8    C14   1.184843 T    
Zn2   N1    2.012495 S    
C11   C14   1.440607 S    
C20   C21   1.401707 A    
C24   H11   1.111456 S    
C12   C13   1.567111 S    
C20   H9    1.083425 S    
C17   C22   1.363236 A    
C23   H10   1.112916 S    
O1    Zn1   1.992452 S    
C6    H2    1.111272 S    
H1    C10   1.110545 S    
O4    C2    1.285581 A    
C9    C15   1.442460 S    
C5    C9    1.583404 S    
C6    H3    1.109142 S    
C2    C16   1.396815 S    
O8    C4    1.285864 A    
C17   C18   1.391377 A    
C6    C9    1.561235 S    
C25   C28   1.405420 A    
N5    O13   1.302416 A    
C29   H15   1.111587 S    
N3    O9    1.302302 A    
C24   H12   1.112546 S    
O2    Zn2   1.993620 S    
O3    C2    1.284983 A    
N5    O14   1.301666 A    
C23   C24   1.521191 S    
Zn1   N2    2.012010 S    
C27   H14   1.080958 S    
C3    C21   1.414398 S    
C6    C7    1.538800 S    
C23   N4    1.465923 S    
C10   C11   1.550411 S    
C19   H8    1.081791 S    
C26   H13   1.081285 S    
N1    C26   1.368366 A    
C29   H16   1.111753 S    
O7    C4    1.285109 A    
Zn1   O5    1.993620 S    
O5    C3    1.282549 A    
C28   C29   1.489809 S    
C5    C10   1.567562 S    
C7    I2    2.165470 S    
O3    Zn1   1.970926 S    
C11   C12   1.550000 S    
N2    C28   1.362784 A    
O6    C3    1.283525 A    
Zn2   O6    1.992452 S    
C7    H4    1.113609 S    
C17   C24   1.497608 S    
C30   H18   1.110535 S    
N3    O10   1.301839 A    
C25   C30   1.490811 S    
C27   N2    1.368351 A    
C18   C19   1.401877 A    
N4    O12   1.302476 A    
