data_mof_unit_66265.cif
_audit_creation_date              2013-03-05T16:08:53-0500
_audit_creation_method            fapswitch 2.2
_symmetry_space_group_name_H-M    P1
_symmetry_Int_Tables_number       1
_space_group_crystal_system       triclinic
_cell_length_a                    45.05948
_cell_length_b                    31.857839
_cell_length_c                    31.859066
_cell_angle_alpha                 89.999374
_cell_angle_beta                  134.983905
_cell_angle_gamma                 89.999533
_cell_volume                      32347.6320206

loop_
_atom_site_label
_atom_site_type_symbol
_atom_site_description
_atom_site_fract_x
_atom_site_fract_y
_atom_site_fract_z
_atom_type_partial_charge
O1    O     O_R   0.561630 0.000000 0.596420 -0.617700
O2    O     O_R   0.061630 0.500000 0.596420 -0.617623
O3    O     O_R   0.561580 0.000000 0.526800 -0.612874
O4    O     O_R   0.061580 0.500000 0.526800 -0.612944
C1    C     C_R   0.581394 0.000000 0.581380 0.910722
C2    C     C_R   0.081394 0.499990 0.581380 0.910819
O5    O     O_R   0.500020 0.061610 0.534810 -0.619032
O6    O     O_R   0.500020 0.938390 0.534810 -0.619645
O7    O     O_R   0.000020 0.561610 0.534810 -0.619420
O8    O     O_R   0.000020 0.438390 0.534810 -0.619092
O9    O     O_R   0.499970 0.061600 0.465200 -0.609006
O10   O     O_R   0.499970 0.938400 0.465200 -0.608343
O11   O     O_R   0.999970 0.561600 0.465200 -0.608414
O12   O     O_R   0.999970 0.438400 0.465200 -0.609247
C3    C     C_R   0.499985 0.081369 0.499993 0.907378
C4    C     C_R   0.499985 0.918631 0.499993 0.906594
C5    C     C_R   0.999984 0.581369 0.499993 0.907159
C6    C     C_R   0.999987 0.418631 0.499995 0.906939
Zn1   Zn    Zn3+2 0.500030 0.000000 0.546480 0.976540
Zn2   Zn    Zn3+2 0.000030 0.500000 0.546480 0.976686
Zn3   Zn    Zn3+2 0.499960 0.000000 0.453520 1.003995
Zn4   Zn    Zn3+2 0.999960 0.500000 0.453520 1.003687
O13   O     O_R   0.438410 0.000000 0.473200 -0.621286
O14   O     O_R   0.938410 0.500000 0.473200 -0.621295
O15   O     O_R   0.438360 0.000000 0.403580 -0.604347
O16   O     O_R   0.938360 0.500000 0.403580 -0.604378
C7    C     C_R   0.418672 0.999997 0.418700 0.901137
C8    C     C_R   0.918671 0.499998 0.418700 0.901149
C9    C     C_3   0.534188 0.264072 0.555001 -0.248922
C10   C     C_3   0.535416 0.735925 0.554045 -0.248927
C11   C     C_3   0.035445 0.764073 0.554020 -0.248894
C12   C     C_3   0.033409 0.235923 0.555477 -0.248890
C13   C     C_3   0.533382 0.236342 0.514676 0.459626
C14   C     C_3   0.532149 0.763654 0.511385 0.459795
C15   C     C_3   0.032120 0.736344 0.511306 0.459649
C16   C     C_3   0.034055 0.263657 0.516602 0.459796
H1    H     H_    0.562606 0.275742 0.599844 0.152686
H2    H     H_    0.564802 0.724254 0.598051 0.152679
H3    H     H_    0.064853 0.775742 0.598004 0.152789
H4    H     H_    0.061203 0.224251 0.600729 0.152531
H5    H     H_    0.501213 0.276007 0.428628 0.160478
H6    H     H_    0.496680 0.723989 0.424153 0.159856
H7    H     H_    0.996576 0.776012 0.424051 0.160663
H8    H     H_    0.003885 0.223997 0.431406 0.159515
C17   C     C_1   0.499777 0.125822 0.499794 -0.164281
C18   C     C_1   0.499780 0.874178 0.499801 -0.164851
C19   C     C_1   0.999780 0.625822 0.499800 -0.164298
C20   C     C_1   0.999781 0.374178 0.499798 -0.164863
C21   C     C_1   0.499987 0.374163 0.500062 -0.177724
C22   C     C_1   0.499985 0.625837 0.500058 -0.178312
C23   C     C_1   0.999987 0.874163 0.500059 -0.177723
C24   C     C_1   0.999985 0.125837 0.500064 -0.178308
C25   C     C_3   0.499038 0.236431 0.538670 0.180871
C26   C     C_3   0.501510 0.763571 0.541112 0.181245
C27   C     C_3   0.001569 0.736428 0.541166 0.181052
C28   C     C_3   0.997593 0.263567 0.537176 0.180982
C29   C     C_3   0.499256 0.208751 0.499558 0.145306
C30   C     C_3   0.499276 0.791249 0.499610 0.145526
C31   C     C_3   0.999277 0.708751 0.499610 0.145307
C32   C     C_3   0.999255 0.291249 0.499544 0.145528
C33   C     C_3   0.464798 0.264403 0.484545 -0.139529
C34   C     C_3   0.466094 0.735602 0.487989 -0.140090
C35   C     C_3   0.966127 0.764400 0.488070 -0.139943
C36   C     C_3   0.964105 0.235599 0.482557 -0.139492
C37   C     C_3   0.499891 0.291268 0.500070 0.092341
C38   C     C_3   0.499897 0.708732 0.500075 0.092744
C39   C     C_3   0.999900 0.791268 0.500074 0.092385
C40   C     C_3   0.999891 0.208732 0.500077 0.092708
C41   C     C_3   0.465182 0.236294 0.445029 -0.254483
C42   C     C_3   0.463991 0.763709 0.446038 -0.255066
C43   C     C_3   0.963966 0.736293 0.446063 -0.254665
C44   C     C_3   0.965955 0.263710 0.444549 -0.254845
C45   C     C_3   0.500096 0.264109 0.460242 -0.220012
C46   C     C_3   0.497607 0.735889 0.457815 -0.220091
C47   C     C_3   0.997550 0.764111 0.457760 -0.219772
C48   C     C_3   0.001567 0.235893 0.461756 -0.220544
C49   C     C_1   0.499545 0.163312 0.499635 0.010781
C50   C     C_1   0.499553 0.836688 0.499658 0.010222
C51   C     C_1   0.999553 0.663312 0.499657 0.010771
C52   C     C_1   0.999550 0.336688 0.499636 0.010216
C53   C     C_1   0.499958 0.336669 0.500072 -0.027263
C54   C     C_1   0.499958 0.663331 0.500070 -0.027855
C55   C     C_1   0.999961 0.836669 0.500071 -0.027266
C56   C     C_1   0.999958 0.163331 0.500078 -0.027848
H9    H     H_    0.436978 0.224337 0.400246 0.169558
H10   H     H_    0.434809 0.775668 0.402069 0.169063
H11   H     H_    0.934762 0.724337 0.402115 0.169538
H12   H     H_    0.938380 0.275670 0.399370 0.169131
H13   H     H_    0.436516 0.276724 0.472458 0.150467
H14   H     H_    0.438876 0.723284 0.478700 0.149968
H15   H     H_    0.938936 0.776719 0.478847 0.150184
H16   H     H_    0.935247 0.223280 0.468843 0.150394
C57   C     C_3   0.763863 0.965075 0.782955 -0.201631
C58   C     C_3   0.763861 0.034092 0.784407 -0.201536
C59   C     C_3   0.263882 0.471639 0.791821 -0.201893
C60   C     C_3   0.263844 0.538402 0.774228 -0.201148
C61   C     C_3   0.735948 0.965831 0.715160 -0.164811
C62   C     C_3   0.735945 0.035018 0.716615 -0.164559
C63   C     C_3   0.235966 0.461395 0.725358 -0.164545
C64   C     C_3   0.235927 0.528323 0.707720 -0.164889
H17   H     H_    0.723904 0.938011 0.685935 0.146283
H18   H     H_    0.723900 0.063538 0.688576 0.146467
H19   H     H_    0.223939 0.429919 0.704451 0.146531
H20   H     H_    0.223865 0.551346 0.672449 0.146047
H21   H     H_    0.775973 0.936494 0.810891 0.149505
H22   H     H_    0.775969 0.061981 0.813531 0.149507
H23   H     H_    0.276008 0.448511 0.827012 0.149109
H24   H     H_    0.275936 0.569900 0.795020 0.149854
C65   C     C_1   0.625896 0.000002 0.625831 -0.170624
C66   C     C_1   0.125896 0.499950 0.625833 -0.170536
C67   C     C_1   0.874096 0.000001 0.874181 -0.179306
C68   C     C_1   0.374096 0.500011 0.874170 -0.179306
C69   C     C_3   0.735926 0.999165 0.775612 -0.152746
C70   C     C_3   0.235926 0.510059 0.774312 -0.152531
C71   C     C_3   0.708863 0.000005 0.708678 0.157257
C72   C     C_3   0.208863 0.499900 0.708684 0.157320
C73   C     C_3   0.791107 0.000002 0.791114 0.183344
C74   C     C_3   0.291107 0.499997 0.791100 0.183282
C75   C     C_3   0.763709 0.000831 0.724369 0.240388
C76   C     C_3   0.263709 0.489971 0.725645 0.240016
C77   C     C_1   0.663412 0.000003 0.663292 -0.052706
C78   C     C_1   0.163412 0.499918 0.663297 -0.052629
C79   C     C_1   0.836584 0.000001 0.836675 -0.056223
C80   C     C_1   0.336584 0.500020 0.836659 -0.056279
H25   H     H_    0.723678 0.998477 0.795977 0.146783
H26   H     H_    0.223680 0.518344 0.793616 0.146783
C81   C     C_3   0.236017 0.031895 0.258382 0.395858
C82   C     C_3   0.236019 0.964478 0.252193 0.395560
C83   C     C_3   0.736017 0.532345 0.257738 0.395815
C84   C     C_3   0.736019 0.464817 0.252901 0.395607
C85   C     C_3   0.263965 0.035469 0.247433 0.396490
C86   C     C_3   0.263968 0.968050 0.241244 0.396209
C87   C     C_3   0.763965 0.535139 0.246725 0.396468
C88   C     C_3   0.763968 0.467609 0.241888 0.396233
H27   H     H_    0.225271 0.006725 0.151584 0.188680
H28   H     H_    0.725271 0.505255 0.151464 0.188665
C89   C     C_1   0.374312 0.999968 0.374434 -0.166107
C90   C     C_1   0.874312 0.499974 0.374435 -0.166134
C91   C     C_1   0.125671 0.000004 0.125406 -0.165937
C92   C     C_1   0.625671 0.500003 0.125405 -0.165932
C93   C     C_3   0.263655 0.996243 0.304084 -0.440393
C94   C     C_3   0.763655 0.497062 0.304150 -0.440393
C95   C     C_3   0.291563 0.999903 0.292152 0.003023
C96   C     C_3   0.791563 0.499922 0.292154 0.003029
C97   C     C_3   0.208420 0.000043 0.207473 0.002504
C98   C     C_3   0.708420 0.500033 0.207471 0.002505
C99   C     C_3   0.236326 0.003704 0.195537 -0.438460
C100  C     C_3   0.736326 0.502893 0.195470 -0.438468
C101  C     C_1   0.336882 0.999936 0.337194 0.108201
C102  C     C_1   0.836882 0.499949 0.337195 0.108190
C103  C     C_1   0.163101 0.000019 0.162511 0.108718
C104  C     C_1   0.663101 0.500014 0.162510 0.108716
H29   H     H_    0.274707 0.993221 0.348035 0.189988
H30   H     H_    0.774707 0.494700 0.348155 0.189996
O17   O     O_R   0.534760 0.500000 0.596460 -0.617651
O18   O     O_R   0.034760 0.000000 0.596460 -0.617649
O19   O     O_R   0.465190 0.500000 0.526830 -0.617081
O20   O     O_R   0.965190 0.000000 0.526830 -0.617074
C105  C     C_R   0.499956 0.500000 0.581389 0.904762
C106  C     C_R   0.999956 0.000000 0.581389 0.904761
O21   O     O_R   0.534770 0.438380 0.534860 -0.617269
O22   O     O_R   0.534770 0.561620 0.534860 -0.617578
O23   O     O_R   0.034770 0.938380 0.534860 -0.617253
O24   O     O_R   0.034770 0.061620 0.534860 -0.617592
O25   O     O_R   0.465210 0.438380 0.465220 -0.613762
O26   O     O_R   0.465210 0.561620 0.465220 -0.613616
O27   O     O_R   0.965210 0.938380 0.465220 -0.613745
O28   O     O_R   0.965210 0.061620 0.465220 -0.613646
C107  C     C_R   0.499990 0.418620 0.500036 0.908220
C108  C     C_R   0.499990 0.581380 0.500035 0.907649
C109  C     C_R   0.999990 0.918620 0.500036 0.908194
C110  C     C_R   0.999990 0.081380 0.500036 0.907684
Zn5   Zn    Zn3+2 0.546440 0.500000 0.546540 0.974773
Zn6   Zn    Zn3+2 0.046440 0.000000 0.546540 0.974791
Zn7   Zn    Zn3+2 0.453540 0.500000 0.453560 0.989552
Zn8   Zn    Zn3+2 0.953540 0.000000 0.453560 0.989549
O29   O     O_R   0.534790 0.500000 0.473270 -0.620314
O30   O     O_R   0.034790 0.000000 0.473270 -0.620312
O31   O     O_R   0.465230 0.500000 0.403640 -0.604119
O32   O     O_R   0.965230 0.000000 0.403640 -0.604122
C111  C     C_R   0.500038 0.500001 0.418729 0.907301
C112  C     C_R   0.000038 0.000001 0.418729 0.907306
O33   O     O_R   0.000030 0.965220 0.061700 -0.614476
O34   O     O_R   0.000030 0.034780 0.061700 -0.614345
O35   O     O_R   0.500030 0.465220 0.061700 -0.614486
O36   O     O_R   0.500030 0.534780 0.061700 -0.614297
C113  C     C_R   0.000028 1.000000 0.081457 0.909119
C114  C     C_R   0.500028 0.500000 0.081458 0.909116
O37   O     O_R   0.938380 0.965210 0.938430 -0.617289
O38   O     O_R   0.938380 0.034790 0.938430 -0.617262
O39   O     O_R   0.438380 0.465210 0.938430 -0.617089
O40   O     O_R   0.438380 0.534790 0.938430 -0.617432
C115  C     C_R   0.918594 0.000000 0.918653 0.904893
C116  C     C_R   0.418594 0.500002 0.918650 0.904871
Zn9   Zn    Zn3+2 0.999990 0.953540 0.000050 0.984741
Zn10  Zn    Zn3+2 0.999990 0.046460 0.000050 0.983494
Zn11  Zn    Zn3+2 0.499990 0.453540 0.000050 0.984748
Zn12  Zn    Zn3+2 0.499990 0.546460 0.000050 0.983553
O41   O     O_R   0.999950 0.965200 0.938400 -0.616515
O42   O     O_R   0.999950 0.034800 0.938400 -0.616867
O43   O     O_R   0.499950 0.465200 0.938400 -0.616499
O44   O     O_R   0.499950 0.534800 0.938400 -0.616893
O45   O     O_R   0.061600 0.965210 0.061670 -0.609132
O46   O     O_R   0.061600 0.034790 0.061670 -0.610684
O47   O     O_R   0.561600 0.465210 0.061670 -0.609299
O48   O     O_R   0.561600 0.534790 0.061670 -0.610502
C117  C     C_R   0.999923 0.000000 0.918608 0.904264
C118  C     C_R   0.499924 0.500000 0.918608 0.904228
C119  C     C_R   0.081312 0.000000 0.081356 0.902038
C120  C     C_R   0.581312 0.500000 0.081356 0.902023
C121  C     C_3   0.019626 0.034623 0.783850 -0.159672
C122  C     C_3   0.019749 0.965449 0.783974 -0.159486
C123  C     C_3   0.519955 0.534431 0.784178 -0.159686
C124  C     C_3   0.519426 0.465259 0.783651 -0.159474
C125  C     C_3   0.480322 0.534183 0.716744 0.205083
C126  C     C_3   0.479802 0.466114 0.716225 0.204838
C127  C     C_3   0.979997 0.034002 0.716420 0.204955
C128  C     C_3   0.980119 0.965930 0.716542 0.204901
H31   H     H_    0.035664 0.063089 0.811992 0.147982
H32   H     H_    0.035889 0.937039 0.812219 0.148150
H33   H     H_    0.536261 0.562744 0.812588 0.147965
H34   H     H_    0.535297 0.436698 0.811628 0.148145
H35   H     H_    0.926898 0.999872 0.703067 0.143630
H36   H     H_    0.426903 0.500556 0.703072 0.143502
C129  C     C_1   0.499921 0.499998 0.625818 -0.179241
C130  C     C_1   0.999921 0.000001 0.625817 -0.179228
C131  C     C_1   0.999820 0.000001 0.874033 -0.179123
C132  C     C_1   0.499822 0.500000 0.874035 -0.179148
C133  C     C_3   0.539604 0.499692 0.775840 -0.243360
C134  C     C_3   0.039602 0.000071 0.775838 -0.243334
C135  C     C_3   0.499813 0.499996 0.708672 0.168797
C136  C     C_3   0.999810 0.000001 0.708669 0.168792
C137  C     C_3   0.999636 0.000001 0.790933 0.119871
C138  C     C_3   0.499640 0.499999 0.790937 0.119896
C139  C     C_3   0.959634 0.999930 0.723876 -0.177300
C140  C     C_3   0.459638 0.500305 0.723881 -0.177326
C141  C     C_1   0.499900 0.499997 0.663291 -0.044272
C142  C     C_1   0.999898 0.000001 0.663289 -0.044260
C143  C     C_1   0.999728 0.000001 0.836440 -0.047052
C144  C     C_1   0.499731 0.500000 0.836443 -0.047093
H37   H     H_    0.572282 0.499441 0.796456 0.157461
H38   H     H_    0.072281 0.000129 0.796456 0.157471
C145  C     C_3   0.023392 0.967280 0.259132 -0.203243
C146  C     C_3   0.017204 0.036373 0.252939 -0.204019
C147  C     C_3   0.523374 0.467269 0.259115 -0.203262
C148  C     C_3   0.517223 0.536364 0.252958 -0.203978
C149  C     C_3   0.484015 0.464790 0.247632 0.442799
C150  C     C_3   0.478044 0.531852 0.241656 0.442624
C151  C     C_3   0.984033 0.964781 0.247650 0.442809
C152  C     C_3   0.978027 0.031840 0.241638 0.442601
H39   H     H_    0.041619 0.940155 0.265277 0.159531
H40   H     H_    0.030321 0.066305 0.253968 0.159299
H41   H     H_    0.541587 0.440133 0.265245 0.159537
H42   H     H_    0.530356 0.566289 0.254004 0.159331
H43   H     H_    0.927345 0.993496 0.151893 0.160675
H44   H     H_    0.427342 0.493535 0.151890 0.160651
C153  C     C_1   0.500143 0.500022 0.374390 -0.160205
C154  C     C_1   0.000143 0.000022 0.374390 -0.160204
C155  C     C_1   0.000016 0.999999 0.125891 -0.179433
C156  C     C_1   0.500016 0.499999 0.125891 -0.179429
C157  C     C_3   0.540263 0.503597 0.303962 -0.279148
C158  C     C_3   0.040260 0.003618 0.303959 -0.279137
C159  C     C_3   0.500690 0.500075 0.292038 0.127064
C160  C     C_3   0.000690 0.000075 0.292038 0.127068
C161  C     C_3   0.000031 0.000008 0.208784 0.067714
C162  C     C_3   0.500032 0.500008 0.208785 0.067704
C163  C     C_3   0.960098 0.996432 0.196122 -0.316576
C164  C     C_3   0.460097 0.496454 0.196121 -0.316580
C165  C     C_1   0.500355 0.500045 0.337116 0.058305
C166  C     C_1   0.000355 0.000045 0.337116 0.058301
C167  C     C_1   0.000010 0.000002 0.163372 -0.010968
C168  C     C_1   0.500011 0.500002 0.163373 -0.010963
H45   H     H_    0.572868 0.506503 0.348464 0.173099
H46   H     H_    0.072864 0.006541 0.348460 0.173097
O49   O     O_3   0.568997 0.220490 0.530180 -0.755108
H47   H     H_    0.585221 0.245491 0.537485 0.330317
O50   O     O_3   0.566441 0.779501 0.523381 -0.754871
H48   H     H_    0.582077 0.754498 0.529106 0.330136
O51   O     O_3   0.066380 0.720496 0.523220 -0.754603
H49   H     H_    0.082001 0.745498 0.528907 0.330441
O52   O     O_3   0.070385 0.279506 0.534143 -0.755547
H50   H     H_    0.086917 0.254505 0.542344 0.329999
O53   O     O_3   0.279625 0.073119 0.246910 -0.739023
H51   H     H_    0.254582 0.089387 0.213176 0.346889
O54   O     O_3   0.279631 0.933978 0.234137 -0.738224
H52   H     H_    0.254590 0.919566 0.197587 0.346795
O55   O     O_3   0.779626 0.572457 0.245451 -0.738915
H53   H     H_    0.754583 0.588548 0.211393 0.346882
O56   O     O_3   0.779631 0.433088 0.235468 -0.738400
H54   H     H_    0.754589 0.418448 0.199208 0.346793
O57   O     O_3   0.220357 0.065967 0.265496 -0.736821
H55   H     H_    0.245400 0.080377 0.302047 0.346293
O58   O     O_3   0.220363 0.926827 0.252723 -0.736392
H56   H     H_    0.245407 0.910562 0.286458 0.346157
O59   O     O_3   0.720358 0.566866 0.264165 -0.736756
H57   H     H_    0.745401 0.581503 0.300426 0.346278
O60   O     O_3   0.720362 0.427499 0.254182 -0.736434
H58   H     H_    0.745406 0.411411 0.288241 0.346174
C169  C     C_3   0.458260 0.573279 0.678560 -0.920675
H59   H     H_    0.447352 0.592486 0.694584 0.247190
H60   H     H_    0.480315 0.592046 0.681261 0.246938
H61   H     H_    0.430871 0.564070 0.631739 0.248143
C170  C     C_3   0.457145 0.427360 0.677449 -0.920054
H62   H     H_    0.445944 0.408324 0.693181 0.247307
H63   H     H_    0.429899 0.436989 0.630770 0.248161
H64   H     H_    0.478910 0.408256 0.679861 0.246907
C171  C     C_3   0.957568 0.072888 0.677869 -0.920308
H65   H     H_    0.946478 0.091990 0.693712 0.247225
H66   H     H_    0.979445 0.091863 0.680392 0.246919
H67   H     H_    0.930266 0.063420 0.631135 0.248180
C172  C     C_3   0.957829 0.926965 0.678131 -0.920293
H68   H     H_    0.946808 0.907824 0.694043 0.247261
H69   H     H_    0.930494 0.936336 0.631363 0.248152
H70   H     H_    0.979773 0.908068 0.680722 0.246922
O61   O     O_3   0.467034 0.427530 0.246398 -0.750007
H71   H     H_    0.459043 0.410898 0.213361 0.333431
O62   O     O_3   0.454748 0.565528 0.234101 -0.749544
H72   H     H_    0.443945 0.580480 0.198248 0.333165
O63   O     O_3   0.967072 0.927511 0.246436 -0.750011
H73   H     H_    0.959090 0.910875 0.213408 0.333459
O64   O     O_3   0.954713 0.065503 0.234066 -0.749559
H74   H     H_    0.943902 0.080450 0.198206 0.333111
C173  C     C_3   0.498153 0.220392 0.582700 -0.901095
H75   H     H_    0.497984 0.247366 0.604569 0.246292
H76   H     H_    0.469517 0.201222 0.559099 0.246486
H77   H     H_    0.526313 0.200797 0.616843 0.249730
C174  C     C_3   0.503429 0.779612 0.587913 -0.902168
H78   H     H_    0.504633 0.752639 0.611123 0.246354
H79   H     H_    0.531909 0.799204 0.620605 0.249738
H80   H     H_    0.475164 0.798786 0.566459 0.246117
C175  C     C_3   0.003553 0.720387 0.588030 -0.901616
H81   H     H_    0.004790 0.747359 0.611270 0.246324
H82   H     H_    0.975298 0.701215 0.566627 0.246389
H83   H     H_    0.032039 0.700793 0.620685 0.249645
C176  C     C_3   0.995060 0.279604 0.579498 -0.901506
H84   H     H_    0.994079 0.252630 0.600532 0.246343
H85   H     H_    0.022984 0.299194 0.614435 0.249856
H86   H     H_    0.966262 0.298779 0.554680 0.246205
C177  C     C_3   0.779906 0.001777 0.695700 -0.927906
H87   H     H_    0.753022 0.002243 0.646692 0.248376
H88   H     H_    0.799300 0.030300 0.710243 0.247293
H89   H     H_    0.799302 0.973485 0.709048 0.247122
C178  C     C_3   0.279901 0.478576 0.698433 -0.927045
H90   H     H_    0.299778 0.450045 0.720346 0.248231
H91   H     H_    0.253021 0.472393 0.650299 0.248380
H92   H     H_    0.298811 0.504913 0.704608 0.246180

loop_
_geom_bond_atom_site_label_1
_geom_bond_atom_site_label_2
_geom_bond_distance
_ccdc_geom_bond_type
C63   H19   1.110215 S    
C158  C160  1.542334 S    
C27   C31   1.532217 S    
C84   C98   1.534663 S    
C129  C141  1.194530 T    
O57   H55   0.991130 S    
O25   C107  1.274748 A    
C85   C95   1.534648 S    
C170  H63   1.109769 S    
C91   C119  1.413796 S    
C11   C39   1.542021 S    
C126  C170  1.519740 S    
C169  H60   1.109774 S    
C152  C163  1.540005 S    
C68   C80   1.195538 T    
C73   C75   1.528059 S    
C58   C73   1.536714 S    
C59   C63   1.551368 S    
C82   C97   1.534660 S    
Zn12  O48   1.998439 S    
C32   C44   1.540814 S    
C9    C13   1.538295 S    
C64   H20   1.110232 S    
C34   C42   1.555001 S    
C24   C56   1.194469 T    
C124  H34   1.110188 S    
C44   H12   1.110080 S    
O9    C3    1.274490 A    
O10   C4    1.274497 A    
O8    Zn2   1.997613 S    
C42   C46   1.554680 S    
C137  C139  1.539080 S    
C145  C158  1.556526 S    
O40   Zn12  1.998456 S    
C61   C71   1.536587 S    
C92   C104  1.192952 T    
O5    C3    1.274424 A    
H44   C164  1.110067 S    
O6    C4    1.274417 A    
C60   C70   1.550001 S    
C84   C88   1.530247 S    
C138  C140  1.539080 S    
C10   C38   1.542021 S    
O32   C112  1.274792 A    
C148  C150  1.538864 S    
C123  C125  1.542886 S    
H7    C47   1.110107 S    
C158  H46   1.110063 S    
C149  O61   1.397703 S    
C92   C120  1.413796 S    
C173  H75   1.109670 S    
C128  C172  1.519739 S    
C63   C72   1.536606 S    
C176  H85   1.109760 S    
C34   C38   1.540084 S    
C30   C42   1.540817 S    
O27   C109  1.274749 A    
C83   C94   1.548304 S    
C122  H32   1.110190 S    
C62   H18   1.110211 S    
C147  H41   1.110105 S    
C9    C25   1.545854 S    
Zn1   O13   1.998774 S    
C38   C54   1.446400 S    
C170  H62   1.109664 S    
C125  C169  1.519740 S    
C74   C80   1.449402 S    
C134  C136  1.539323 S    
C152  C160  1.525394 S    
O30   C112  1.274538 A    
C148  C157  1.556526 S    
C81   C97   1.534664 S    
C83   C87   1.530234 S    
C13   C45   1.536913 S    
C35   C43   1.555003 S    
O5    Zn1   1.997602 S    
C94   C96   1.554108 S    
C23   C55   1.194469 T    
C123  C133  1.553012 S    
C26   C174  1.519717 S    
C145  C161  1.542993 S    
Zn7   O31   1.997813 S    
C29   C49   1.447649 S    
C137  C143  1.446870 S    
O39   C116  1.275200 A    
C65   C77   1.195670 T    
O8    C6    1.274425 A    
O43   C118  1.275013 A    
H36   C140  1.110293 S    
C74   C76   1.528073 S    
C176  H84   1.109670 S    
C33   C37   1.540080 S    
C95   C101  1.444386 S    
C111  C153  1.415957 S    
O64   H74   0.991173 S    
C35   H15   1.110193 S    
C14   C30   1.523822 S    
O35   Zn11  1.997800 S    
C124  C133  1.553013 S    
C149  C159  1.525398 S    
C69   C71   1.535768 S    
C39   C55   1.446400 S    
C71   C77   1.448552 S    
C121  C134  1.553007 S    
C88   O56   1.397691 S    
C147  C157  1.556525 S    
C127  C139  1.544270 S    
C85   O53   1.397696 S    
C10   C26   1.545849 S    
C113  C155  1.416011 S    
C36   C40   1.540075 S    
C16   O52   1.397719 S    
C132  C144  1.194757 T    
C70   H26   1.110043 S    
C124  C126  1.542889 S    
C83   O59   1.397694 S    
C38   C46   1.541204 S    
C146  C161  1.542996 S    
C81   C93   1.548305 S    
H8    C48   1.110103 S    
C96   C102  1.444385 S    
C25   C33   1.544841 S    
C27   C35   1.544836 S    
Zn12  O44   1.997681 S    
C28   C36   1.544841 S    
C85   C99   1.548416 S    
Zn5   O29   1.998029 S    
O21   C107  1.274750 A    
O50   H48   0.991158 S    
C57   C73   1.536713 S    
C58   C69   1.549978 S    
Zn9   O41   1.997673 S    
C146  C152  1.538866 S    
C112  C154  1.415961 S    
O6    Zn1   1.997613 S    
C145  H39   1.110100 S    
C10   C14   1.538297 S    
O17   C105  1.274897 A    
O18   C106  1.274902 A    
C146  C158  1.556528 S    
C174  H79   1.109759 S    
O9    Zn3   1.997353 S    
C121  C137  1.538269 S    
C173  H76   1.109757 S    
O40   C116  1.275122 A    
C61   C75   1.541204 S    
O58   H56   0.991131 S    
C134  H38   1.110063 S    
O4    Zn4   1.998772 S    
O48   C120  1.273995 A    
C86   O54   1.397691 S    
C128  C136  1.530665 S    
O56   H54   0.991129 S    
C138  C144  1.446870 S    
C94   H30   1.109986 S    
O24   Zn6   1.997992 S    
C161  C163  1.545043 S    
C68   C116  1.418194 S    
H28   C100  1.109981 S    
C162  C164  1.545046 S    
C9    C37   1.542023 S    
O26   C108  1.274752 A    
H27   C99   1.109983 S    
C178  H91   1.109714 S    
O24   C110  1.274745 A    
C39   C47   1.541205 S    
C57   C61   1.551391 S    
C41   H9    1.110074 S    
O20   Zn8   1.998029 S    
O28   Zn8   1.998009 S    
Zn3   O15   1.998012 S    
C32   C52   1.447646 S    
C87   C96   1.534653 S    
C160  C166  1.446857 S    
C86   C99   1.548429 S    
C148  H42   1.110100 S    
C125  C140  1.544265 S    
C5    C19   1.416204 S    
C6    C20   1.416205 S    
C151  O63   1.397703 S    
C70   C72   1.535794 S    
C40   C48   1.541206 S    
C121  H31   1.110189 S    
O34   C113  1.274353 A    
O11   C5    1.274498 A    
C171  H67   1.109768 S    
O12   Zn4   1.997348 S    
C172  H69   1.109767 S    
C118  C132  1.416803 S    
C93   H29   1.109985 S    
C62   C71   1.536588 S    
H43   C163  1.110069 S    
O47   C120  1.274017 A    
O29   C111  1.274538 A    
C60   C64   1.551388 S    
C91   C103  1.192952 T    
C106  C130  1.416556 S    
C60   H24   1.110096 S    
C84   C94   1.548315 S    
C175  H83   1.109762 S    
C88   C96   1.534649 S    
O37   C115  1.275159 A    
Zn8   O32   1.997813 S    
C177  H89   1.109771 S    
C153  C165  1.194265 T    
O53   H51   0.991128 S    
O45   C119  1.274023 A    
C17   C49   1.194353 T    
C148  C162  1.542997 S    
C145  C151  1.538864 S    
Zn11  O47   1.998456 S    
O49   H47   0.991175 S    
C64   C72   1.536542 S    
C178  H90   1.109817 S    
C155  C167  1.194291 T    
O22   Zn5   1.997992 S    
O18   Zn6   1.997444 S    
O26   Zn7   1.998009 S    
C7    C89   1.413776 S    
C72   C78   1.448558 S    
O1    C1    1.275131 A    
C178  H92   1.109843 S    
C93   C95   1.554111 S    
C127  C136  1.530662 S    
C58   C62   1.551391 S    
C59   C70   1.550001 S    
C126  C135  1.530663 S    
C15   C31   1.523821 S    
C21   C53   1.194469 T    
O38   C115  1.275164 A    
C123  H33   1.110187 S    
O46   C119  1.273990 A    
O33   Zn9   1.997800 S    
O51   H49   0.991158 S    
C41   C45   1.554679 S    
O23   C109  1.274752 A    
C82   C93   1.548316 S    
Zn6   O30   1.998029 S    
C44   C48   1.554676 S    
C86   C95   1.534648 S    
O61   H71   0.991168 S    
O19   C105  1.275007 A    
O20   C106  1.275006 A    
C24   C110  1.416308 S    
C124  C138  1.538268 S    
C97   C99   1.554129 S    
C170  H64   1.109769 S    
C98   C100  1.554130 S    
C82   O58   1.397693 S    
C121  C127  1.542886 S    
H6    C46   1.110103 S    
O1    Zn1   1.998010 S    
O2    Zn2   1.998010 S    
C171  H65   1.109663 S    
C40   C56   1.446403 S    
O14   C8    1.273778 A    
C8    C90   1.413776 S    
O4    C2    1.275091 A    
C31   C51   1.447649 S    
O59   H57   0.991131 S    
C18   C50   1.194353 T    
C25   C29   1.532220 S    
C13   O49   1.397716 S    
O34   Zn10  1.997792 S    
C67   C79   1.195541 T    
C28   C32   1.532224 S    
C156  C168  1.194294 T    
C175  H81   1.109659 S    
O54   H52   0.991127 S    
O33   C113  1.274351 A    
C133  H37   1.110056 S    
O37   Zn9   1.998439 S    
O7    Zn2   1.997602 S    
C75   C177  1.519948 S    
C177  H87   1.109666 S    
O22   C108  1.274750 A    
C131  C143  1.194757 T    
C114  C156  1.416008 S    
C22   C108  1.416307 S    
C57   C69   1.549977 S    
C83   C98   1.534662 S    
C28   C176  1.519710 S    
C59   H23   1.110098 S    
C67   C115  1.418191 S    
C43   H11   1.110061 S    
C117  C131  1.416803 S    
C14   O50   1.397721 S    
O42   C117  1.275012 A    
C147  C149  1.538861 S    
C126  C140  1.544266 S    
C11   C15   1.538294 S    
O15   C7    1.274073 A    
C36   H16   1.110187 S    
C152  O64   1.397700 S    
C4    C18   1.416201 S    
C123  C138  1.538266 S    
C12   C16   1.538296 S    
C22   C54   1.194469 T    
O3    C1    1.275086 A    
C128  C139  1.544267 S    
C176  H86   1.109759 S    
C26   C34   1.544835 S    
C81   C85   1.530235 S    
C161  C167  1.446118 S    
C174  H78   1.109662 S    
C133  C135  1.539326 S    
C162  C168  1.446115 S    
C66   C78   1.195664 T    
C76   C178  1.519868 S    
C21   C107  1.416307 S    
C151  C163  1.540007 S    
C1    C65   1.418325 S    
O11   Zn4   1.997353 S    
C151  C160  1.525402 S    
C154  C166  1.194265 T    
C30   C50   1.447647 S    
O63   H73   0.991168 S    
O28   C110  1.274753 A    
C69   H25   1.110113 S    
C105  C129  1.416556 S    
Zn4   O16   1.998012 S    
C9    H1    1.110181 S    
O36   Zn12  1.997792 S    
C11   C27   1.545847 S    
C12   C28   1.545865 S    
C172  H68   1.109667 S    
C130  C142  1.194530 T    
O60   H58   0.991132 S    
O12   C6    1.274489 A    
C147  C162  1.542995 S    
C19   C51   1.194350 T    
Zn10  O42   1.997681 S    
C122  C137  1.538267 S    
C37   C45   1.541206 S    
C62   C75   1.541204 S    
C90   C102  1.192942 T    
C15   C47   1.536917 S    
C15   O51   1.397719 S    
C125  C135  1.530663 S    
C60   C74   1.536686 S    
C157  H45   1.110065 S    
O21   Zn5   1.998011 S    
C16   C48   1.536912 S    
C57   H21   1.110086 S    
C63   C76   1.541227 S    
C37   C53   1.446400 S    
O55   H53   0.991128 S    
C87   O55   1.397695 S    
Zn11  O43   1.997673 S    
C64   C76   1.541210 S    
O13   C7    1.273778 A    
O38   Zn10  1.998456 S    
C12   C40   1.542020 S    
C150  C159  1.525392 S    
O17   Zn5   1.997444 S    
C12   H4    1.110186 S    
O44   C118  1.275017 A    
C150  O62   1.397703 S    
C136  C142  1.448577 S    
C2    C66   1.418329 S    
C89   C101  1.192942 T    
O2    C2    1.275125 A    
C82   C86   1.530254 S    
C169  H61   1.109769 S    
C33   H13   1.110191 S    
C59   C74   1.536716 S    
C25   C173  1.519715 S    
C35   C39   1.540080 S    
C84   O60   1.397694 S    
Zn2   O14   1.998774 S    
C157  C159  1.542333 S    
C169  H59   1.109660 S    
O35   C114  1.274353 A    
C81   O57   1.397693 S    
O52   H50   0.991178 S    
H5    C45   1.110105 S    
O10   Zn3   1.997348 S    
C171  H66   1.109770 S    
C122  C134  1.553011 S    
Zn10  O46   1.998439 S    
C159  C165  1.446860 S    
O41   C117  1.275014 A    
C87   C100  1.548418 S    
C175  H82   1.109750 S    
C97   C103  1.444403 S    
H35   C139  1.110296 S    
O19   Zn7   1.998029 S    
C98   C104  1.444403 S    
C149  C164  1.540006 S    
O7    C5    1.274416 A    
C177  H88   1.109770 S    
C14   C46   1.536915 S    
O3    Zn3   1.998772 S    
C3    C17   1.416205 S    
C42   H10   1.110064 S    
C127  C171  1.519736 S    
C26   C30   1.532220 S    
C33   C41   1.554999 S    
C58   H22   1.110084 S    
C13   C29   1.523823 S    
C146  H40   1.110099 S    
O39   Zn11  1.998439 S    
C16   C32   1.523821 S    
C174  H80   1.109752 S    
C150  C164  1.540006 S    
O25   Zn7   1.997996 S    
C88   C100  1.548429 S    
O16   C8    1.274073 A    
C135  C141  1.448577 S    
C173  H77   1.109759 S    
C27   C175  1.519721 S    
C20   C52   1.194353 T    
C23   C109  1.416307 S    
C73   C79   1.449402 S    
C43   C47   1.554679 S    
C122  C128  1.542884 S    
C34   H14   1.110191 S    
C11   H3    1.110168 S    
C36   C44   1.554994 S    
O62   H72   0.991172 S    
C172  H70   1.109768 S    
C10   H2    1.110169 S    
C29   C41   1.540816 S    
O23   Zn6   1.998011 S    
O36   C114  1.274355 A    
C61   H17   1.110208 S    
Zn9   O45   1.998456 S    
C31   C43   1.540817 S    
O27   Zn8   1.997996 S    
O31   C111  1.274792 A    
