data_mof_unit_48044.cif
_audit_creation_date              2012-10-26T19:59:40-0400
_audit_creation_method            fapswitch 2.2
_symmetry_space_group_name_H-M    P1
_symmetry_Int_Tables_number       1
_space_group_crystal_system       triclinic
_cell_length_a                    10.94158
_cell_length_b                    8.783065
_cell_length_c                    7.437169
_cell_angle_alpha                 103.391859
_cell_angle_beta                  94.792925
_cell_angle_gamma                 93.589592
_cell_volume                      690.370378707

loop_
_atom_site_label
_atom_site_type_symbol
_atom_type_description
_atom_site_fract_x
_atom_site_fract_y
_atom_site_fract_z
_atom_type_partial_charge
C1    C     C_R   0.497429 0.199791 0.453973 0.567443
C2    C     C_R   0.506221 0.800667 0.547875 0.576595
C3    C     C_R   0.738206 0.508065 0.501290 0.560624
C4    C     C_R   0.151209 0.642500 0.853366 0.116968
C5    C     C_R   0.098818 0.652522 0.019223 -0.122749
C6    C     C_R   0.972901 0.658687 0.017648 -0.127522
C7    C     C_R   0.903380 0.649466 0.849694 0.116511
C8    C     C_R   0.949742 0.581895 0.679319 0.026211
C9    C     C_R   0.078972 0.579357 0.681126 0.018360
C10   C     C_R   0.130224 0.518526 0.512096 0.001761
C11   C     C_R   0.052641 0.460088 0.347666 -0.159724
C12   C     C_R   0.926356 0.462658 0.345834 -0.158640
C13   C     C_R   0.873155 0.522591 0.508785 0.005469
C14   C     C_2   0.496123 0.032924 0.432835 -0.126269
C15   C     C_2   0.513780 0.969117 0.579848 0.072634
C16   C     C_R   0.262704 0.505699 0.503427 0.555380
Cu1   Cu    Cu3+1 0.513920 0.517380 0.684380 1.051927
Cu2   Cu    Cu3+1 0.486080 0.482620 0.315620 1.015762
H1    H     H_    0.155027 0.693612 0.150760 0.155984
H2    H     H_    0.935398 0.705020 0.147572 0.148770
H3    H     H_    0.869781 0.413395 0.216117 0.163517
H4    H     H_    0.478193 0.959976 0.292231 0.148041
H5    H     H_    0.397789 0.383686 0.948565 0.254883
H6    H     H_    0.089636 0.408400 0.218906 0.156831
H7    H     H_    0.600618 0.618590 0.052032 0.253215
I1    I     I_    0.278454 0.837866 0.882408 -0.315554
I2    I     I_    0.797103 0.841196 0.868291 -0.322429
I3    I     I_    0.555490 0.094186 0.868960 -0.224086
N1    N     N_2   0.465100 0.456430 0.038520 -0.240046
N2    N     N_2   0.534900 0.543570 0.961480 -0.234483
O1    O     O_R   0.509050 0.286130 0.619770 -0.481205
O2    O     O_R   0.485540 0.256780 0.308360 -0.471483
O3    O     O_R   0.331410 0.514680 0.655740 -0.497772
O4    O     O_R   0.307900 0.485330 0.344330 -0.516366
O5    O     O_R   0.514460 0.743220 0.691640 -0.443571
O6    O     O_R   0.490950 0.713870 0.380230 -0.528916
O7    O     O_R   0.692100 0.514670 0.655670 -0.485434
O8    O     O_R   0.668590 0.485320 0.344260 -0.510638

loop_
_geom_bond_atom_site_label_1
_geom_bond_atom_site_label_2
_ccdc_geom_bond_type
C2    O5    A    
C4    I1    S    
C11   C12   A    
C6    C7    A    
C5    H1    S    
C16   O3    A    
C6    H2    S    
C9    C10   A    
C3    C13   S    
C2    C15   S    
C14   H4    S    
Cu1   Cu2   S    
Cu2   O8    S    
C7    C8    A    
Cu2   N1    S    
C10   C16   S    
Cu1   N2    S    
Cu2   O4    S    
C15   I3    S    
N1    N2    D    
Cu1   O3    S    
H5    N1    S    
C5    C6    A    
Cu1   O1    S    
Cu2   O2    S    
C10   C11   A    
C8    C13   A    
C11   H6    S    
C1    O1    A    
C7    I2    S    
C12   C13   A    
C3    O7    A    
C2    O6    A    
H7    N2    S    
C14   C15   D    
C8    C9    A    
Cu1   O7    S    
C1    C14   S    
Cu1   O5    S    
C16   O4    A    
C4    C9    A    
Cu2   O6    S    
C12   H3    S    
C1    O2    A    
C3    O8    A    
C4    C5    A    
