data_mof_unit_62624.cif
_audit_creation_date              2012-12-10T21:14:44-0500
_audit_creation_method            fapswitch 2.2
_symmetry_space_group_name_H-M    P1
_symmetry_Int_Tables_number       1
_space_group_crystal_system       triclinic
_cell_length_a                    17.568212
_cell_length_b                    16.786303
_cell_length_c                    11.563761
_cell_angle_alpha                 89.999989
_cell_angle_beta                  90.281445
_cell_angle_gamma                 90.0
_cell_volume                      3410.17360875

loop_
_atom_site_label
_atom_site_type_symbol
_atom_type_description
_atom_site_fract_x
_atom_site_fract_y
_atom_site_fract_z
_atom_type_partial_charge
C1    C     C_R   0.353190 0.500000 0.498806 0.868863
C2    C     C_R   0.113744 0.500000 0.466939 0.153159
C3    C     C_1   0.966120 0.500000 0.462644 -0.049612
C4    C     C_1   0.033663 0.500000 0.462150 -0.049473
C5    C     C_R   0.499932 0.500000 0.281489 0.911775
C6    C     C_R   0.500067 0.500000 0.718511 0.913606
C7    C     C_R   0.450121 0.831930 0.427484 -0.210655
C8    C     C_R   0.549862 0.168054 0.572481 -0.211374
C9    C     C_R   0.549862 0.831946 0.572481 -0.211374
C10   C     C_R   0.450121 0.168070 0.427484 -0.210655
C11   C     C_R   0.451258 0.747747 0.429077 0.610567
C12   C     C_R   0.646811 0.500000 0.499259 0.872930
C13   C     C_R   0.548739 0.252237 0.570906 0.611312
C14   C     C_R   0.548739 0.747763 0.570906 0.611312
C15   C     C_R   0.451258 0.252252 0.429077 0.610568
C16   C     C_1   0.499983 0.963543 0.499972 0.042465
C17   C     C_1   0.499983 0.036457 0.499972 0.042465
C18   C     C_1   0.499940 0.500000 0.161232 -0.139549
C19   C     C_1   0.500061 0.500000 0.838771 -0.140437
C20   C     C_1   0.499974 0.500000 0.059230 0.029414
C21   C     C_1   0.500028 0.500000 0.940773 0.029446
C22   C     C_R   0.499988 0.875482 0.499979 -0.113608
C23   C     C_R   0.768964 0.572500 0.486063 -0.167863
C24   C     C_R   0.499988 0.124518 0.499979 -0.113607
C25   C     C_R   0.847459 0.572378 0.474437 -0.157277
C26   C     C_R   0.152439 0.427622 0.472751 -0.156666
C27   C     C_R   0.152439 0.572378 0.472752 -0.156666
C28   C     C_R   0.847458 0.427622 0.474438 -0.157278
C29   C     C_1   0.397508 0.872230 0.351048 0.306690
C30   C     C_1   0.602468 0.127738 0.648910 0.307360
C31   C     C_1   0.602469 0.872262 0.648910 0.307360
C32   C     C_1   0.397508 0.127770 0.351048 0.306690
C33   C     C_R   0.231005 0.427500 0.484438 -0.163116
C34   C     C_R   0.231005 0.572500 0.484438 -0.163117
C35   C     C_R   0.768964 0.427499 0.486065 -0.167863
C36   C     C_R   0.729328 0.500000 0.491764 -0.048070
C37   C     C_R   0.270656 0.500000 0.490493 -0.050302
C38   C     C_R   0.886102 0.500000 0.468434 0.154047
F1    F     F_    0.403355 0.706169 0.359217 -0.642352
F2    F     F_    0.596657 0.293801 0.640760 -0.640462
F3    F     F_    0.596657 0.706199 0.640760 -0.640462
F4    F     F_    0.403355 0.293831 0.359217 -0.642352
H1    H     H_    0.877995 0.628428 0.470873 0.145178
H2    H     H_    0.121877 0.371572 0.469248 0.145590
H3    H     H_    0.121877 0.628428 0.469250 0.145590
H4    H     H_    0.877995 0.371572 0.470874 0.145178
H5    H     H_    0.739467 0.629090 0.490162 0.186102
H6    H     H_    0.260526 0.370909 0.488528 0.189088
H7    H     H_    0.260526 0.629091 0.488528 0.189088
H8    H     H_    0.739467 0.370910 0.490165 0.186103
N1    N     N_R   0.500000 0.707230 0.500000 -0.194340
N2    N     N_R   0.500000 0.292770 0.500000 -0.194341
N3    N     N_1   0.355280 0.904339 0.289705 -0.170494
N4    N     N_1   0.644691 0.095617 0.710248 -0.169968
N5    N     N_1   0.644691 0.904383 0.710248 -0.169968
N6    N     N_1   0.355279 0.095661 0.289705 -0.170494
O1    O     O_R   0.389110 0.566570 0.499990 -0.588945
O2    O     O_R   0.610890 0.433430 0.500010 -0.588562
O3    O     O_R   0.610890 0.566570 0.500010 -0.588562
O4    O     O_R   0.389110 0.433430 0.499990 -0.588945
O5    O     O_R   0.500000 0.566540 0.334450 -0.577180
O6    O     O_R   0.500000 0.433460 0.665550 -0.576532
O7    O     O_R   0.500000 0.566540 0.665550 -0.576532
O8    O     O_R   0.500000 0.433460 0.334450 -0.577180
Zn1   Zn    Zn3+2 0.500000 0.588860 0.500000 1.057145
Zn2   Zn    Zn3+2 0.500000 0.411140 0.500000 1.057145

loop_
_geom_bond_atom_site_label_1
_geom_bond_atom_site_label_2
_ccdc_geom_bond_type
C6    O7    A    
C2    C4    S    
C9    C14   A    
O7    Zn1   S    
C8    C13   A    
C7    C29   S    
C1    C37   S    
C25   C38   A    
C12   C36   S    
C34   C37   A    
C26   C33   A    
C18   C20   T    
C14   N1    A    
O5    Zn1   S    
C28   C38   A    
C28   H4    S    
C8    C24   A    
C12   O2    A    
C25   H1    S    
C35   H8    S    
O4    Zn2   S    
C8    C30   S    
C2    C26   A    
O8    Zn2   S    
C15   N2    A    
O3    Zn1   S    
C7    C11   A    
C6    C19   S    
C30   N4    T    
C6    O6    A    
C2    C27   A    
C29   N3    T    
C14   F3    S    
C15   F4    S    
C26   H2    S    
C19   C21   T    
C32   N6    T    
C1    O1    A    
C10   C15   A    
C23   C25   A    
C27   C34   A    
C11   F1    S    
C9    C22   A    
C17   C24   S    
C11   N1    A    
C27   H3    S    
C9    C31   S    
C13   N2    A    
C5    O5    A    
C3    C4    T    
C7    C22   A    
C10   C32   S    
N2    Zn2   S    
C20   C21   S    
C5    O8    A    
C10   C24   A    
C23   C36   A    
N1    Zn1   S    
C1    O4    A    
C28   C35   A    
C33   H6    S    
O6    Zn2   S    
C34   H7    S    
C16   C22   S    
C5    C18   S    
C31   N5    T    
C12   O3    A    
O2    Zn2   S    
C33   C37   A    
C35   C36   A    
C3    C38   S    
O1    Zn1   S    
C16   C17   T    
C13   F2    S    
C23   H5    S    
