data_mof_unit_8892.cif
_audit_creation_date              2012-12-10T20:31:54-0500
_audit_creation_method            fapswitch 2.2
_symmetry_space_group_name_H-M    P1
_symmetry_Int_Tables_number       1
_space_group_crystal_system       triclinic
_cell_length_a                    9.944193
_cell_length_b                    10.63808
_cell_length_c                    15.341231
_cell_angle_alpha                 91.650255
_cell_angle_beta                  68.778282
_cell_angle_gamma                 90.564096
_cell_volume                      1512.22230843

loop_
_atom_site_label
_atom_site_type_symbol
_atom_type_description
_atom_site_fract_x
_atom_site_fract_y
_atom_site_fract_z
_atom_type_partial_charge
C1    C     C_R   0.499087 0.739214 0.502557 0.965497
C2    C     C_R   0.432411 0.404938 0.903000 0.056651
C3    C     C_R   0.297761 0.348765 0.950521 0.054071
C4    C     C_R   0.542429 0.403289 0.940500 -0.122767
C5    C     C_R   0.504411 0.381878 0.036390 -0.114672
C6    C     C_R   0.371719 0.317922 0.083437 0.383724
C7    C     C_R   0.268727 0.302953 0.040528 0.052894
C8    C     C_R   0.689703 0.422990 0.884819 0.303160
C9    C     C_R   0.786029 0.464099 0.927497 0.384445
C10   C     C_R   0.741072 0.467056 0.025204 -0.000349
C11   C     C_R   0.600046 0.426859 0.080324 0.005987
C12   C     C_R   0.409945 0.491945 0.675668 0.858766
C13   C     C_R   0.835623 0.510801 0.068658 -0.094147
C14   C     C_R   0.791334 0.520958 0.165575 0.077205
C15   C     C_R   0.553686 0.446191 0.177391 -0.223024
C16   C     C_R   0.447658 0.932379 0.446941 -0.217252
C17   C     C_R   0.494468 0.871088 0.508938 -0.101693
C18   C     C_R   0.517146 0.937508 0.582868 0.080713
C19   C     C_R   0.517555 0.069058 0.582662 0.013634
C20   C     C_R   0.490790 0.129008 0.509493 -0.109727
C21   C     C_R   0.442340 0.060382 0.448311 0.006346
C22   C     C_3   0.485667 0.063204 0.343723 0.734612
C23   C     C_R   0.498415 0.260656 0.501739 0.923715
C24   C     C_3   0.494170 0.919372 0.342527 0.159964
C25   C     C_R   0.923557 0.609242 0.512691 0.031793
C26   C     C_R   0.943280 0.396493 0.470625 0.106124
C27   C     C_R   0.087702 0.397257 0.468992 0.403139
C28   C     C_R   0.065071 0.609606 0.512486 0.053292
C29   C     C_3   0.027602 0.706463 0.590887 0.432905
C30   C     C_3   0.873267 0.705937 0.590174 -0.160541
C31   C     C_R   0.590503 0.499916 0.323674 0.911989
C32   C     C_R   0.357709 0.452736 0.773531 -0.096609
C33   C     C_R   0.647458 0.490082 0.220951 -0.083107
C34   C     C_R   0.198498 0.334967 0.904641 -0.182543
C35   C     C_R   0.232456 0.378734 0.813350 0.143068
C36   C     C_R   0.452088 0.468867 0.821214 -0.264132
H1    H     H_    0.944925 0.538580 0.027496 0.205668
H2    H     H_    0.413251 0.869533 0.319729 0.126909
H3    H     H_    0.441886 0.431508 0.220054 0.208916
H4    H     H_    0.840909 0.794664 0.566645 0.159930
H5    H     H_    0.098467 0.284465 0.937257 0.166786
H6    H     H_    0.545786 0.527896 0.791835 0.206451
N1    N     N_R   0.856900 0.500860 0.500610 -0.110482
N2    N     N_R   0.142540 0.500820 0.500610 -0.134873
O1    O     O_R   0.385310 0.683210 0.499990 -0.623135
O2    O     O_R   0.614650 0.683240 0.500000 -0.598526
O3    O     O_R   0.319830 0.499970 0.632240 -0.545195
O4    O     O_R   0.549170 0.500000 0.632250 -0.599737
O5    O     O_R   0.385350 0.316760 0.500000 -0.604058
O6    O     O_R   0.614690 0.316790 0.500010 -0.601743
O7    O     O_R   0.450830 0.500000 0.367750 -0.642141
O8    O     O_R   0.680170 0.500030 0.367760 -0.615076
Zn1   Zn    Zn3+2 0.346870 0.499980 0.499990 1.005644
Zn2   Zn    Zn3+2 0.653130 0.500020 0.500010 0.976469
N3    N     N_3   0.134698 0.240548 0.088497 -0.454655
H7    H     H_    0.157311 0.149446 0.103081 0.230868
H8    H     H_    0.082504 0.288844 0.152035 0.218112
N4    N     N_3   0.539217 0.871705 0.656860 -0.444304
H9    H     H_    0.454763 0.895425 0.719220 0.198600
H10   H     H_    0.634807 0.904303 0.663167 0.201411
N5    N     N_3   0.545927 0.138674 0.655688 -0.471676
H11   H     H_    0.642064 0.188647 0.626483 0.215833
H12   H     H_    0.461799 0.202485 0.686560 0.167266
O9    O     O_3   0.376286 0.109040 0.315270 -0.759889
H13   H     H_    0.284900 0.064836 0.350134 0.331600
O10   O     O_3   0.618014 0.124143 0.300171 -0.766761
H14   H     H_    0.641322 0.112538 0.231859 0.355370
O11   O     O_3   0.634493 0.870056 0.298522 -0.757679
H15   H     H_    0.698806 0.908311 0.328677 0.362226
N6    N     N_3   0.891372 0.288133 0.435458 -0.369905
H16   H     H_    0.958267 0.271858 0.365719 0.206568
H17   H     H_    0.899062 0.210756 0.473919 0.202164
O12   O     O_3   0.172561 0.294558 0.430397 -0.746389
H18   H     H_    0.268138 0.327934 0.391995 0.396583
O13   O     O_3   0.041822 0.660231 0.671967 -0.738969
H19   H     H_    0.003797 0.726613 0.721462 0.334311
N7    N     N_3   0.098479 0.828679 0.564241 -0.482839
H20   H     H_    0.138187 0.836820 0.491476 0.159154
H21   H     H_    0.185888 0.835766 0.586475 0.228232
N8    N     N_3   0.763059 0.658203 0.674552 -0.397286
H22   H     H_    0.750309 0.723337 0.729287 0.176706
H23   H     H_    0.798232 0.574063 0.692311 0.274992
N9    N     N_3   0.893568 0.567886 0.204590 -0.457632
H24   H     H_    0.916505 0.497276 0.243113 0.205764
H25   H     H_    0.849493 0.646034 0.248165 0.227830
O14   O     O_3   0.923206 0.505183 0.875569 -0.774718
H26   H     H_    0.932539 0.512785 0.809537 0.410874
N10   N     N_3   0.145935 0.341514 0.759521 -0.370583
H27   H     H_    0.208313 0.280932 0.705428 0.170985
H28   H     H_    0.057190 0.288616 0.799872 0.207437
O15   O     O_3   0.345891 0.256317 0.165672 -0.753679
H29   H     H_    0.440241 0.227004 0.165556 0.371366
O16   O     O_3   0.745083 0.391363 0.790495 -0.811531
H30   H     H_    0.681168 0.327942 0.776848 0.349305

loop_
_geom_bond_atom_site_label_1
_geom_bond_atom_site_label_2
_ccdc_geom_bond_type
C8    C9    A    
N3    H7    S    
O16   H30   S    
O12   H18   S    
C36   H6    S    
C19   C20   A    
C7    N3    S    
C31   O8    A    
C4    C8    A    
C25   N1    A    
C14   C33   A    
N7    H20   S    
C25   C28   A    
O4    Zn2   S    
C26   C27   A    
O6    Zn2   S    
C32   C36   A    
C28   C29   S    
C5    C11   A    
C3    C7    A    
C5    C6    A    
C34   C35   A    
C1    O2    A    
C23   O5    A    
N4    H10   S    
C6    O15   S    
C18   C19   A    
N5    H12   S    
C22   O10   S    
C11   C15   A    
C27   N2    A    
C18   N4    S    
C16   C17   A    
C24   H2    S    
C31   C33   S    
N6    H16   S    
C13   C14   A    
C9    C10   A    
C13   H1    S    
C12   O4    A    
O3    Zn1   S    
C30   N8    S    
O10   H14   S    
O1    Zn1   S    
C16   C24   S    
C21   C22   S    
C12   C32   S    
C34   H5    S    
C14   N9    S    
C12   O3    A    
N2    Zn1   S    
O8    Zn2   S    
C26   N1    A    
N7    H21   S    
C32   C35   A    
N8    H23   S    
O15   H29   S    
O14   H26   S    
O11   H15   S    
C23   O6    A    
C3    C34   A    
N4    H9    S    
C28   N2    A    
O7    Zn1   S    
C2    C4    A    
O13   H19   S    
C29   C30   S    
C9    O14   S    
C35   N10   S    
N1    Zn2   S    
N9    H24   S    
C20   C23   S    
O2    Zn2   S    
C17   C18   A    
C30   H4    S    
N10   H27   S    
C15   H3    S    
N9    H25   S    
N10   H28   S    
N3    H8    S    
C26   N6    S    
C22   C24   S    
C2    C36   A    
C25   C30   S    
C8    O16   S    
C31   O7    A    
N8    H22   S    
C10   C13   A    
C16   C21   A    
C6    C7    A    
C29   O13   S    
C1    C17   S    
O9    H13   S    
C2    C3    A    
C1    O1    A    
C19   N5    S    
O5    Zn1   S    
N5    H11   S    
C10   C11   A    
C24   O11   S    
C22   O9    S    
C4    C5    A    
C29   N7    S    
C20   C21   A    
N6    H17   S    
C27   O12   S    
C15   C33   A    
