data_mof_unit_37653.cif
_audit_creation_date              2013-03-05T16:33:13-0500
_audit_creation_method            fapswitch 2.2
_symmetry_space_group_name_H-M    P1
_symmetry_Int_Tables_number       1
_space_group_crystal_system       triclinic
_cell_length_a                    27.770689
_cell_length_b                    10.768248
_cell_length_c                    9.551863
_cell_angle_alpha                 89.7545
_cell_angle_beta                  89.750375
_cell_angle_gamma                 90.207781
_cell_volume                      2856.33272079

loop_
_atom_site_label
_atom_site_type_symbol
_atom_site_description
_atom_site_fract_x
_atom_site_fract_y
_atom_site_fract_z
_atom_type_partial_charge
O1    O     O_R   0.500000 0.319640 0.618810 -0.556217
O2    O     O_R   0.500010 0.319680 0.381230 -0.596522
C1    C     C_R   0.499571 0.262510 0.500141 0.794168
O3    O     O_R   0.430260 0.500000 0.618780 -0.547978
O4    O     O_R   0.430270 0.500040 0.381190 -0.571233
C2    C     C_R   0.407653 0.497104 0.500285 0.810080
Cu1   Cu    Cu3+1 0.500000 0.499980 0.640670 0.983560
Cu2   Cu    Cu3+1 0.500000 0.500020 0.359330 0.945915
O5    O     O_R   0.499990 0.680320 0.618770 -0.564763
O6    O     O_R   0.500000 0.680360 0.381190 -0.585203
O7    O     O_R   0.569730 0.499960 0.618810 -0.573059
O8    O     O_R   0.569740 0.500000 0.381220 -0.583900
C3    C     C_R   0.500196 0.737411 0.499907 0.834262
C4    C     C_R   0.592553 0.500828 0.499774 0.799861
C5    C     C_R   0.177182 0.390413 0.535310 0.531466
O9    O     O_2   0.201030 0.285936 0.570628 -0.551404
N1    N     N_R   0.202307 0.496364 0.503015 -0.456654
C6    C     C_R   0.179018 0.604017 0.468700 0.556105
C7    C     C_R   0.279760 0.567331 0.597088 -0.123434
C8    C     C_R   0.329791 0.565980 0.596029 -0.270204
C9    C     C_R   0.329449 0.411991 0.408484 0.229213
C10   C     C_R   0.278714 0.417154 0.408930 -0.125649
C11   C     C_R   0.254029 0.493940 0.502863 0.300002
C12   C     C_R   0.101944 0.500360 0.499864 -0.048682
C13   C     C_R   0.126662 0.389961 0.532496 -0.003671
C14   C     C_R   0.100576 0.281689 0.561702 -0.152042
C15   C     C_R   0.128441 0.608147 0.467537 -0.072967
C16   C     C_R   0.354899 0.490888 0.501179 -0.098506
H1    H     H_    0.257593 0.361066 0.338321 0.153117
H2    H     H_    0.118656 0.196055 0.589232 0.184867
C17   C     C_R   0.645579 0.503183 0.499328 -0.035258
C18   C     C_R   0.974101 0.389412 0.505750 0.044519
C19   C     C_R   0.975206 0.617891 0.490473 0.050166
C20   C     C_R   0.949368 0.504012 0.497547 0.063739
C21   C     C_R   0.947028 0.278028 0.500524 -0.212142
C22   C     C_R   0.897031 0.279739 0.495036 -0.141706
C23   C     C_R   0.872198 0.392370 0.496330 -0.020967
C24   C     C_R   0.898243 0.504821 0.498605 -0.046412
C25   C     C_R   0.873116 0.618059 0.503179 -0.018062
C26   C     C_R   0.822558 0.616821 0.503563 0.536548
N2    N     N_R   0.798071 0.506554 0.498845 -0.471284
C27   C     C_R   0.821685 0.395423 0.495416 0.533876
C28   C     C_R   0.721218 0.515162 0.625363 -0.113053
C29   C     C_R   0.671016 0.513010 0.625826 -0.205028
C30   C     C_R   0.671305 0.496059 0.372494 -0.222327
C31   C     C_R   0.721522 0.497726 0.372463 -0.107854
C32   C     C_R   0.746532 0.507163 0.498817 0.368801
O10   O     O_2   0.796314 0.288346 0.491917 -0.531429
C33   C     C_R   0.024887 0.389850 0.519307 0.063479
C34   C     C_R   0.050870 0.502360 0.498054 0.024183
C35   C     C_R   0.026262 0.616150 0.473681 -0.020368
C36   C     C_R   0.050663 0.281301 0.554674 -0.213396
H3    H     H_    0.652196 0.518986 0.725081 0.156409
H4    H     H_    0.740509 0.522287 0.723292 0.133802
H5    H     H_    0.877892 0.191979 0.491012 0.187478
H6    H     H_    0.963631 0.187753 0.496639 0.135170
H7    H     H_    0.033032 0.195138 0.581940 0.138707
O11   O     O_2   0.204733 0.706452 0.434554 -0.552395
C37   C     C_R   0.104198 0.716257 0.429003 -0.189593
H8    H     H_    0.349061 0.625447 0.668004 0.171194
H9    H     H_    0.260903 0.626160 0.670672 0.154249
H10   H     H_    0.124563 0.796319 0.393394 0.196490
C38   C     C_R   0.948996 0.729146 0.507035 -0.174990
C39   C     C_R   0.898935 0.729388 0.511023 -0.167082
O12   O     O_2   0.798038 0.724713 0.508115 -0.531879
C40   C     C_R   0.053800 0.722011 0.430283 0.234394
H11   H     H_    0.966392 0.817134 0.524352 0.189015
H12   H     H_    0.652701 0.488612 0.273451 0.156090
H13   H     H_    0.880564 0.817452 0.521714 0.188221
H14   H     H_    0.741058 0.491413 0.274409 0.134444
C41   C     C_R   0.473966 0.063266 0.599776 0.009328
C42   C     C_R   0.500910 0.129253 0.500981 -0.067108
C43   C     C_R   0.530935 0.065588 0.407244 -0.200136
H15   H     H_    0.553354 0.115807 0.332969 0.155712
C44   C     C_R   0.531289 0.936113 0.407363 -0.210621
H16   H     H_    0.553891 0.887449 0.333130 0.154177
C45   C     C_R   0.501681 0.870568 0.501391 -0.132438
C46   C     C_R   0.474512 0.934938 0.600453 0.050970
C47   C     C_3   0.421283 0.927204 0.631286 0.499505
C48   C     C_3   0.420792 0.069325 0.626469 -0.505965
H17   H     H_    0.401572 0.109772 0.535294 0.172261
H18   H     H_    0.411557 0.114442 0.726594 0.197478
C49   C     C_R   0.533404 0.567711 0.072727 0.192238
N3    N     N_R   0.500300 0.500930 0.147930 -0.191421
C50   C     C_R   0.470482 0.423475 0.076116 -0.120634
H19   H     H_    0.446329 0.362881 0.133870 0.160871
C51   C     C_R   0.469848 0.424141 0.927014 0.327922
N4    N     N_R   0.500310 0.500890 0.852020 -0.211770
C52   C     C_R   0.533590 0.567081 0.925359 0.147371
C53   C     C_3   0.541001 0.704172 0.918536 0.040635
C54   C     C_3   0.541072 0.704895 0.077998 -0.543002
H20   H     H_    0.510162 0.753523 0.870474 0.190301
H21   H     H_    0.576322 0.729432 0.125423 0.195410
H22   H     H_    0.509683 0.755150 0.122428 0.200914
N5    N     N_2   0.355287 0.327603 0.319789 -0.426888
H23   H     H_    0.386842 0.293678 0.361351 0.243495
C55   C     C_3   0.329299 0.236038 0.238861 -0.723880
H24   H     H_    0.355268 0.178960 0.178381 0.221214
H25   H     H_    0.305150 0.282452 0.162662 0.240288
H26   H     H_    0.308384 0.173525 0.309420 0.240887
N6    N     N_2   0.031424 0.826443 0.366013 -0.437819
H27   H     H_    0.032529 0.823563 0.258165 0.265348
C56   C     C_3   0.043798 0.947303 0.421854 -0.736049
H28   H     H_    0.017658 0.016950 0.382908 0.233461
H29   H     H_    0.080351 0.976248 0.386993 0.235224
H30   H     H_    0.042069 0.946049 0.538127 0.232926
N7    N     N_2   0.394096 0.868723 0.518062 -0.451806
H31   H     H_    0.409134 0.879778 0.419760 0.243418
C57   C     C_3   0.342458 0.888512 0.515208 -0.660962
H32   H     H_    0.326355 0.829859 0.432157 0.251621
H33   H     H_    0.334191 0.987043 0.491064 0.225907
H34   H     H_    0.325152 0.861967 0.615640 0.228296
N8    N     N_2   0.411478 0.869893 0.768123 -0.402110
H35   H     H_    0.376870 0.838473 0.784359 0.257324
C58   C     C_3   0.432480 0.922082 0.893941 -0.753978
H36   H     H_    0.432516 0.850262 0.977676 0.230914
H37   H     H_    0.410664 0.001671 0.931200 0.223083
H38   H     H_    0.470208 0.952724 0.876201 0.231558
N9    N     N_2   0.438007 0.343350 0.855845 -0.379832
H39   H     H_    0.445274 0.251662 0.878346 0.221931
C59   C     C_3   0.387455 0.371415 0.874785 -0.678130
H40   H     H_    0.375690 0.348144 0.983001 0.216634
H41   H     H_    0.365811 0.315729 0.800251 0.229466
H42   H     H_    0.380529 0.471385 0.854397 0.247512
N10   N     N_2   0.587266 0.736076 0.856593 -0.395385
H43   H     H_    0.616489 0.690183 0.898390 0.251763
C60   C     C_3   0.595331 0.867513 0.835498 -0.654667
H44   H     H_    0.630042 0.882039 0.779557 0.236565
H45   H     H_    0.596782 0.915880 0.937961 0.220501
H46   H     H_    0.566125 0.907884 0.770667 0.233901

loop_
_geom_bond_atom_site_label_1
_geom_bond_atom_site_label_2
_geom_bond_distance
_ccdc_geom_bond_type
C51   N4    1.377080 A    
N6    H27   1.031075 S    
C10   H1    1.080768 S    
N5    H23   1.031073 S    
C43   C44   1.394290 A    
N2    C27   1.367109 A    
C7    C8    1.389504 A    
C12   C15   1.404536 A    
C4    C17   1.472660 S    
C28   C29   1.394248 A    
C55   H24   1.110972 S    
Cu1   Cu2   2.687318 S    
C45   C46   1.395798 A    
Cu1   O7    1.946771 S    
C25   C39   1.397097 A    
N1    C11   1.436676 S    
C22   C23   1.397440 A    
C57   H33   1.109857 S    
C37   C40   1.401190 A    
C24   C25   1.407867 A    
O7    C4    1.299314 A    
C5    C13   1.403335 A    
C58   H36   1.110195 S    
C5    N1    1.368574 A    
C43   H15   1.083429 S    
C23   C27   1.403366 A    
O5    C3    1.288784 A    
C59   H42   1.110775 S    
O1    Cu1   1.954028 S    
C29   H3    1.082861 S    
C6    O11   1.349908 S    
C2    C16   1.466275 S    
Cu1   N4    2.018909 S    
C58   H37   1.110256 S    
N7    H31   1.032229 S    
C8    H8    1.083320 S    
C19   C38   1.413152 A    
C58   H38   1.109431 S    
N9    C59   1.447836 S    
N6    C56   1.449370 S    
C20   C24   1.419813 A    
C9    C10   1.410246 A    
N7    C57   1.450888 S    
C40   N6    1.424815 S    
O3    Cu1   1.948891 S    
C41   C48   1.499155 S    
C55   H25   1.110334 S    
N1    C6    1.368789 A    
C3    C45   1.434448 S    
C50   C51   1.424377 A    
C12   C34   1.418787 A    
C49   C52   1.407667 A    
C38   H11   1.075730 S    
C31   H14   1.082842 S    
C17   C29   1.406466 A    
C18   C21   1.414425 A    
C12   C13   1.409337 A    
C48   H18   1.104178 S    
C57   H34   1.107072 S    
C25   C26   1.404040 A    
C46   C47   1.507939 S    
C42   C43   1.403511 A    
C9    N5    1.436790 S    
C34   C35   1.423948 A    
C13   C14   1.396884 A    
C50   H19   1.081892 S    
C38   C39   1.390585 A    
O1    C1    1.292089 A    
C35   C40   1.429340 A    
C18   C20   1.416534 A    
C7    C11   1.397440 A    
C44   H16   1.083087 S    
C60   H45   1.111447 S    
C51   N9    1.416185 S    
C23   C24   1.408515 A    
C14   C36   1.388022 A    
C54   H21   1.111897 S    
C28   H4    1.082850 S    
C53   H20   1.109611 S    
C49   N3    1.365029 A    
Cu2   O8    1.948885 S    
C33   C36   1.413359 A    
C30   H12   1.083043 S    
C19   C20   1.419737 A    
N2    C32   1.431327 S    
C47   N7    1.464821 S    
C56   H29   1.110096 S    
C27   O10   1.349689 S    
C39   H13   1.083451 S    
N3    C50   1.362627 A    
C44   C45   1.401717 A    
C59   H40   1.110062 S    
O3    C2    1.297135 A    
C26   N2    1.367187 A    
C9    C16   1.418731 A    
O8    C4    1.300043 A    
C14   H2    1.083518 S    
C26   O12   1.349536 S    
C47   N8    1.467012 S    
N10   H43   1.032598 S    
C60   H44   1.110342 S    
C55   H26   1.111122 S    
C49   C54   1.492831 S    
N8    H35   1.028631 S    
Cu1   O5    1.952289 S    
C31   C32   1.398992 A    
C37   H10   1.082170 S    
C21   H6    1.078129 S    
Cu2   N3    2.019227 S    
O2    Cu2   1.952291 S    
C6    C15   1.405497 A    
C48   H17   1.111544 S    
O6    C3    1.292025 A    
O4    Cu2   1.946774 S    
N9    H39   1.030398 S    
N5    C55   1.448043 S    
C19   C35   1.426406 A    
C8    C16   1.402049 A    
O2    C1    1.289593 A    
C60   H46   1.111289 S    
C41   C42   1.392674 A    
C22   H5    1.083462 S    
C15   C37   1.395776 A    
C57   H32   1.110640 S    
C54   H22   1.111290 S    
C53   C54   1.523221 S    
O4    C2    1.297269 A    
C7    H9    1.082858 S    
C53   N10   1.451655 S    
C1    C42   1.435548 S    
C56   H30   1.111470 S    
C18   C33   1.416866 A    
C59   H41   1.110180 S    
C36   H7    1.077932 S    
C47   C48   1.531004 S    
C30   C31   1.394618 A    
N4    C52   1.363111 A    
Cu2   O6    1.954027 S    
C33   C34   1.421247 A    
C17   C30   1.406310 A    
C56   H28   1.109851 S    
N10   C60   1.445279 S    
C10   C11   1.401338 A    
C21   C22   1.389854 A    
C52   C53   1.490876 S    
C28   C32   1.398790 A    
C41   C46   1.381989 A    
C5    O9    1.349891 S    
N8    C58   1.452527 S    
