data_mof_unit_34183.cif
_audit_creation_date              2012-12-10T16:49:29-0500
_audit_creation_method            fapswitch 2.2
_symmetry_space_group_name_H-M    P1
_symmetry_Int_Tables_number       1
_space_group_crystal_system       triclinic
_cell_length_a                    19.195609
_cell_length_b                    8.751868
_cell_length_c                    7.590361
_cell_angle_alpha                 103.506308
_cell_angle_beta                  95.485086
_cell_angle_gamma                 95.472832
_cell_volume                      1225.05895172

loop_
_atom_site_label
_atom_site_type_symbol
_atom_type_description
_atom_site_fract_x
_atom_site_fract_y
_atom_site_fract_z
_atom_type_partial_charge
C1    C     C_R   0.496316 0.200283 0.453847 0.838125
C2    C     C_R   0.503689 0.799718 0.546151 0.838041
C3    C     C_2   0.484186 0.032126 0.434896 -0.007962
C4    C     C_2   0.515819 0.967874 0.565092 -0.007732
C5    C     C_R   0.368140 0.504139 0.500848 0.792199
C6    C     C_R   0.631865 0.495878 0.499165 0.792251
C7    C     C_R   0.267867 0.637518 0.631087 0.054778
C8    C     C_R   0.732344 0.363082 0.369066 0.049242
C9    C     C_R   0.194882 0.628666 0.649851 0.445950
C10   C     C_R   0.805396 0.372196 0.351031 0.443933
C11   C     C_R   0.147737 0.509402 0.523578 -0.099862
C12   C     C_R   0.852373 0.491480 0.477572 -0.100433
C13   C     C_R   0.173709 0.393534 0.394793 -0.169264
C14   C     C_R   0.826237 0.607110 0.606227 -0.166678
C15   C     C_R   0.245530 0.394663 0.387368 -0.162809
C16   C     C_R   0.754382 0.605672 0.613214 -0.156508
C17   C     C_R   0.292766 0.514508 0.504804 -0.064910
C18   C     C_R   0.707270 0.485801 0.495377 -0.067106
C19   C     C_R   0.929106 0.495438 0.486178 0.500737
C20   C     C_R   0.071007 0.505570 0.515335 0.483932
Cu1   Cu    Cu3+1 0.507710 0.517380 0.684380 1.122894
Cu2   Cu    Cu3+1 0.492290 0.482620 0.315620 1.123032
H1    H     H_    0.138018 0.301544 0.298644 0.191816
H2    H     H_    0.861824 0.699122 0.702621 0.202735
H3    H     H_    0.264385 0.300928 0.290059 0.199010
H4    H     H_    0.735398 0.699204 0.710502 0.203617
N1    N     N_R   0.029790 0.367355 0.500716 -0.197965
N2    N     N_R   0.970321 0.633669 0.500834 -0.182014
N3    N     N_R   0.960011 0.362635 0.487744 -0.144832
N4    N     N_R   0.040103 0.638392 0.513795 -0.124831
N5    N     N_2   0.480680 0.456420 0.038530 0.079588
N6    N     N_2   0.519320 0.543580 0.961470 0.078667
O1    O     O_R   0.505010 0.286130 0.619770 -0.551268
O2    O     O_R   0.494990 0.713870 0.380230 -0.551401
O3    O     O_R   0.491990 0.256780 0.308370 -0.576437
O4    O     O_R   0.508010 0.743220 0.691630 -0.576553
O5    O     O_R   0.406650 0.514660 0.655750 -0.522812
O6    O     O_R   0.593350 0.485340 0.344250 -0.522538
O7    O     O_R   0.393640 0.485310 0.344340 -0.533640
O8    O     O_R   0.606360 0.514690 0.655660 -0.534316
C21   C     C_3   0.318289 0.781032 0.735501 -0.644564
H5    H     H_    0.363420 0.802011 0.659763 0.168689
H6    H     H_    0.292119 0.890410 0.753164 0.261368
H7    H     H_    0.338781 0.765161 0.870878 0.272570
C22   C     C_3   0.682076 0.219593 0.263872 -0.645122
H8    H     H_    0.636507 0.198852 0.338265 0.169405
H9    H     H_    0.662208 0.235205 0.127904 0.274070
H10   H     H_    0.708194 0.110188 0.247425 0.258660
S1    S     S_3+6 0.163607 0.759092 0.835822 0.022779
O9    O     O_2   0.098379 0.681271 0.889353 -0.260850
O10   O     O_2   0.218703 0.805037 0.999652 -0.283631
O11   O     O_3   0.144697 0.922933 0.770787 -0.511858
H11   H     H_    0.129050 0.991451 0.879495 0.385281
S2    S     S_3+6 0.837169 0.242529 0.165483 0.024589
O12   O     O_2   0.854928 0.096599 0.223586 -0.265636
O13   O     O_2   0.782282 0.195429 0.001246 -0.279460
O14   O     O_3   0.909690 0.331447 0.105411 -0.511317
H12   H     H_    0.926915 0.247590 0.014066 0.390613
C23   C     C_3   0.427860 0.940844 0.281892 -0.739460
H13   H     H_    0.396923 0.021386 0.222338 0.254878
H14   H     H_    0.452529 0.868413 0.169731 0.264276
H15   H     H_    0.389376 0.864663 0.334281 0.224587
C24   C     C_3   0.572155 0.059156 0.718069 -0.740110
H16   H     H_    0.603096 0.978613 0.777607 0.255198
H17   H     H_    0.610633 0.135329 0.665647 0.223983
H18   H     H_    0.547495 0.131594 0.830246 0.264454
S3    S     S_3+6 0.396816 0.362145 0.943159 0.134038
O15   O     O_2   0.372575 0.254406 0.058604 -0.296550
O16   O     O_2   0.346619 0.484334 0.947967 -0.286459
O17   O     O_3   0.390906 0.245598 0.731703 -0.532642
H19   H     H_    0.340214 0.205195 0.698132 0.351293
S4    S     S_3+6 0.603174 0.637904 0.056847 0.136647
O18   O     O_2   0.653391 0.515761 0.052007 -0.283858
O19   O     O_2   0.627387 0.745672 0.941412 -0.293531
O20   O     O_3   0.609082 0.754420 0.268316 -0.532929
H20   H     H_    0.659762 0.794962 0.301822 0.351922

loop_
_geom_bond_atom_site_label_1
_geom_bond_atom_site_label_2
_ccdc_geom_bond_type
C22   H8    S    
C2    C4    S    
O20   H20   S    
C24   H17   S    
S2    O13   D    
O17   H19   S    
Cu2   O3    S    
C20   N1    A    
C5    O5    A    
N1    N3    A    
C9    C11   A    
C21   H5    S    
N5    N6    D    
S3    O17   S    
C2    O2    A    
S1    O10   D    
N2    N4    A    
C24   H18   S    
Cu1   O5    S    
C23   H13   S    
N6    S4    S    
Cu1   O4    S    
C20   N4    A    
Cu1   Cu2   S    
C5    C17   S    
N5    S3    S    
C19   N2    A    
C21   H6    S    
C4    C24   S    
C1    O3    A    
O14   H12   S    
C7    C17   A    
Cu1   O8    S    
C10   C12   A    
S4    O20   S    
C10   S2    S    
Cu2   O7    S    
C12   C19   S    
C8    C10   A    
Cu1   N6    S    
C12   C14   A    
C6    O8    A    
C13   C15   A    
C16   H4    S    
Cu2   O2    S    
C21   H7    S    
C14   C16   A    
C6    C18   S    
C23   H14   S    
C15   H3    S    
Cu2   N5    S    
C1    O1    A    
C14   H2    S    
S3    O15   D    
Cu2   O6    S    
C7    C9    A    
C11   C13   A    
C9    S1    S    
O11   H11   S    
C13   H1    S    
S4    O19   D    
S1    O9    D    
C7    C21   S    
C22   H9    S    
C2    O4    A    
C15   C17   A    
C5    O7    A    
S2    O12   D    
Cu1   O1    S    
C23   H15   S    
C22   H10   S    
C1    C3    S    
C6    O6    A    
C8    C22   S    
C11   C20   S    
C16   C18   A    
C8    C18   A    
C3    C4    D    
C24   H16   S    
S1    O11   S    
C3    C23   S    
S4    O18   D    
S3    O16   D    
S2    O14   S    
C19   N3    A    
