data_mof_unit_10932.cif
_audit_creation_date              2012-12-11T17:04:36-0500
_audit_creation_method            fapswitch 2.2
_symmetry_space_group_name_H-M    P1
_symmetry_Int_Tables_number       1
_space_group_crystal_system       monoclinic
_cell_length_a                    17.405872
_cell_length_b                    24.362409
_cell_length_c                    14.94638
_cell_angle_alpha                 90.0
_cell_angle_beta                  125.4245
_cell_angle_gamma                 90.0
_cell_volume                      5164.70717353

loop_
_atom_site_label
_atom_site_type_symbol
_atom_type_description
_atom_site_fract_x
_atom_site_fract_y
_atom_site_fract_z
_atom_type_partial_charge
C1    C     C_R   0.810167 0.626654 0.906108 -0.149825
C2    C     C_R   0.045740 0.501855 0.720244 -0.188995
C3    C     C_R   0.757528 0.045793 0.304024 -0.099336
C4    C     C_R   0.852538 0.348621 0.911637 0.769588
C5    C     C_R   0.139860 0.346891 0.088373 0.824285
C6    C     C_R   0.360140 0.846891 0.911627 0.824285
C7    C     C_R   0.647462 0.848621 0.088363 0.769588
C8    C     C_R   0.903783 0.629874 0.089966 0.552325
C9    C     C_R   0.073158 0.647364 0.910681 0.489032
C10   C     C_R   0.426842 0.147364 0.089319 0.489032
C11   C     C_R   0.596217 0.129874 0.910034 0.552325
C12   C     C_R   0.813320 0.642566 0.997234 -0.123302
C13   C     C_R   0.454260 0.001855 0.279755 -0.188996
C14   C     C_R   0.152738 0.670922 0.002049 -0.096027
C15   C     C_R   0.347262 0.170922 0.997950 -0.096027
C16   C     C_R   0.686680 0.142566 0.002766 -0.123302
C17   C     C_R   0.433106 0.001755 0.631544 -0.166531
C18   C     C_R   0.696610 0.499590 0.635668 -0.064089
C19   C     C_R   0.325869 0.501150 0.281849 0.007789
C20   C     C_R   0.174131 0.001150 0.718152 0.007789
C21   C     C_R   0.803390 0.999590 0.364332 -0.064089
C22   C     C_3   0.536472 0.449490 0.485717 0.423292
C23   C     C_3   0.503891 0.468187 0.371311 0.422652
C24   C     C_3   0.996109 0.968187 0.628689 0.422652
C25   C     C_R   0.166843 0.645823 0.093176 -0.179497
C26   C     C_3   0.963528 0.949490 0.514283 0.423292
C27   C     C_3   0.459500 0.483345 0.479860 -0.512310
C28   C     C_3   0.571598 0.518172 0.419239 -0.470581
C29   C     C_3   0.928402 0.018172 0.580761 -0.470580
C30   C     C_3   0.040500 0.983345 0.520140 -0.512310
C31   C     C_3   0.426521 0.502108 0.363824 -0.195645
C32   C     C_3   0.603512 0.498801 0.534353 -0.211419
C33   C     C_3   0.896488 0.998801 0.465647 -0.211419
C34   C     C_3   0.073479 0.002108 0.636176 -0.195645
C35   C     C_3   0.492757 0.551922 0.412312 0.699979
C36   C     C_R   0.333157 0.145823 0.906824 -0.179497
C37   C     C_3   0.525989 0.533026 0.526938 0.727300
C38   C     C_3   0.974011 0.033027 0.473062 0.727301
C39   C     C_3   0.007243 0.051922 0.587688 0.699980
C40   C     C_R   0.878702 0.242733 0.108256 0.139210
C41   C     C_R   0.125846 0.248369 0.894164 0.137840
C42   C     C_R   0.374154 0.748369 0.105836 0.137840
C43   C     C_R   0.621298 0.742734 0.891744 0.139210
C44   C     C_R   0.864034 0.259912 0.010452 0.075604
C45   C     C_R   0.135165 0.260029 0.991280 0.062941
C46   C     C_R   0.364836 0.760029 0.008720 0.062941
C47   C     C_R   0.689833 0.126654 0.093892 -0.149825
C48   C     C_R   0.635966 0.759912 0.989548 0.075604
C49   C     C_R   0.812205 0.226372 0.916873 -0.124014
C50   C     C_R   0.206798 0.234314 0.088761 -0.117285
C51   C     C_R   0.293203 0.734314 0.911239 -0.117285
C52   C     C_R   0.687795 0.726372 0.083127 -0.124014
C53   C     C_R   0.943703 0.349720 0.093947 -0.157102
C54   C     C_R   0.050200 0.348025 0.906936 -0.121177
C55   C     C_R   0.449800 0.848025 0.093064 -0.121177
C56   C     C_R   0.556297 0.849720 0.906053 -0.157102
C57   C     C_R   0.222827 0.705734 0.908290 -0.218567
C58   C     C_R   0.883744 0.317206 0.003989 -0.198571
C59   C     C_R   0.736778 0.681302 0.082544 -0.217517
C60   C     C_R   0.763222 0.181302 0.917457 -0.217517
C61   C     C_R   0.277174 0.205734 0.091710 -0.218567
C62   C     C_R   0.224273 0.701947 0.003158 0.048492
C63   C     C_R   0.736552 0.671299 0.989974 0.063961
C64   C     C_R   0.763448 0.171299 0.010026 0.063961
C65   C     C_R   0.275727 0.201947 0.996842 0.048492
C66   C     C_R   0.303855 0.720208 0.103125 0.105245
C67   C     C_R   0.671647 0.698633 0.891957 0.112044
C68   C     C_R   0.828353 0.198633 0.108043 0.112044
C69   C     C_R   0.106757 0.315064 0.996635 -0.225978
C70   C     C_R   0.196145 0.220208 0.896875 0.105246
C71   C     C_3   0.374303 0.684974 0.197975 -0.374734
C72   C     C_3   0.585031 0.673647 0.793514 -0.391091
C73   C     C_3   0.914969 0.173647 0.206486 -0.391092
C74   C     C_3   0.125697 0.184974 0.802025 -0.374735
C75   C     C_3   0.969562 0.221477 0.206532 -0.463315
C76   C     C_3   0.049655 0.214905 0.800877 -0.403996
C77   C     C_3   0.450345 0.714905 0.199123 -0.403996
C78   C     C_3   0.530439 0.721477 0.793468 -0.463316
C79   C     C_R   0.081456 0.555085 0.608082 -0.249737
C80   C     C_R   0.393243 0.815064 0.003364 -0.225978
C81   C     C_R   0.088588 0.555064 0.521023 -0.307950
C82   C     C_R   0.411412 0.055064 0.478977 -0.307950
C83   C     C_R   0.418544 0.055085 0.391918 -0.249737
C84   C     C_R   0.087806 0.505755 0.660288 0.150759
C85   C     C_R   0.100042 0.505557 0.482576 0.181471
C86   C     C_R   0.399958 0.005557 0.517424 0.181471
C87   C     C_R   0.412194 0.005755 0.339711 0.150759
C88   C     C_R   0.123796 0.459297 0.640506 -0.113078
C89   C     C_R   0.129649 0.459105 0.550981 -0.129265
C90   C     C_R   0.370351 0.959105 0.449019 -0.129265
C91   C     C_R   0.616256 0.817206 0.996011 -0.198570
C92   C     C_R   0.376204 0.959297 0.359494 -0.113078
C93   C     C_3   0.017417 0.600795 0.462991 0.978583
C94   C     C_3   0.008814 0.600565 0.558217 0.961009
C95   C     C_3   0.491186 0.100565 0.441783 0.961009
C96   C     C_3   0.482582 0.100795 0.537008 0.978583
C97   C     C_R   0.053431 0.546477 0.304946 -0.029406
C98   C     C_R   0.019790 0.546710 0.752759 -0.147693
C99   C     C_R   0.480209 0.046710 0.247241 -0.147692
C100  C     C_R   0.446569 0.046477 0.695054 -0.029406
C101  C     C_R   0.746560 0.454432 0.696355 0.617631
C102  C     C_R   0.066894 0.501754 0.368456 -0.166531
C103  C     C_R   0.269194 0.455105 0.252970 0.542138
C104  C     C_R   0.230806 0.955106 0.747030 0.542138
C105  C     C_R   0.753440 0.954432 0.303645 0.617630
C106  C     C_R   0.048940 0.455694 0.304855 0.730343
C107  C     C_R   0.014517 0.455597 0.744745 0.739454
C108  C     C_R   0.485483 0.955597 0.255254 0.739454
C109  C     C_R   0.451060 0.955694 0.695145 0.730343
C110  C     C_R   0.742472 0.545793 0.695976 -0.099336
C111  C     C_R   0.270028 0.546757 0.255337 -0.194199
C112  C     C_R   0.229972 0.046757 0.744663 -0.194199
F1    F     F_    0.470601 0.605561 0.377158 -0.707053
F2    F     F_    0.018223 0.403011 0.718379 -0.729512
F3    F     F_    0.481777 0.903011 0.281621 -0.729512
F4    F     F_    0.428267 0.903209 0.659265 -0.716012
F5    F     F_    0.806821 0.329782 0.807594 -0.663509
F6    F     F_    0.170402 0.326719 0.188346 -0.672949
F7    F     F_    0.329597 0.826719 0.811654 -0.672949
F8    F     F_    0.693179 0.829782 0.192406 -0.663509
F9    F     F_    0.538115 0.567202 0.608130 -0.692617
F10   F     F_    0.961885 0.067202 0.391871 -0.692617
F11   F     F_    0.029399 0.105561 0.622843 -0.707053
F12   F     F_    0.935110 0.585288 0.364203 -0.678315
F13   F     F_    0.040987 0.648401 0.619699 -0.679120
F14   F     F_    0.459013 0.148401 0.380301 -0.679120
F15   F     F_    0.564890 0.085289 0.635796 -0.678315
F16   F     F_    0.071732 0.403209 0.340735 -0.716012
H1    H     H_    0.751984 0.631176 0.820969 0.152590
H2    H     H_    0.779980 0.657254 0.156671 0.211802
H3    H     H_    0.720020 0.157254 0.843329 0.211801
H4    H     H_    0.332240 0.186964 0.168378 0.208240
H5    H     H_    0.368674 0.640902 0.175347 0.226441
H6    H     H_    0.565772 0.633728 0.811715 0.224539
H7    H     H_    0.934227 0.133728 0.188285 0.224539
H8    H     H_    0.131326 0.140902 0.824653 0.226441
H9    H     H_    0.375621 0.693338 0.271973 0.231773
H10   H     H_    0.587679 0.673171 0.720969 0.232791
H11   H     H_    0.912321 0.173171 0.279031 0.232791
H12   H     H_    0.213678 0.658910 0.177402 0.137905
H13   H     H_    0.124380 0.193338 0.728026 0.231772
H14   H     H_    0.020823 0.209754 0.188111 0.213930
H15   H     H_    0.011598 0.188674 0.824271 0.203305
H16   H     H_    0.488402 0.688674 0.175729 0.203305
H17   H     H_    0.479177 0.709754 0.811888 0.213930
H18   H     H_    0.998557 0.248668 0.279115 0.224731
H19   H     H_    0.003518 0.239964 0.725623 0.222529
H20   H     H_    0.496482 0.739964 0.274377 0.222529
H21   H     H_    0.501443 0.748669 0.720885 0.224732
H22   H     H_    0.137746 0.421614 0.685787 0.183969
H23   H     H_    0.286322 0.158910 0.822598 0.137905
H24   H     H_    0.147789 0.421175 0.530065 0.198677
H25   H     H_    0.352211 0.921175 0.469935 0.198677
H26   H     H_    0.362254 0.921614 0.314213 0.183969
H27   H     H_    0.989621 0.336244 0.178246 0.225225
H28   H     H_    0.002522 0.334102 0.823093 0.223657
H29   H     H_    0.497478 0.834102 0.176907 0.223657
H30   H     H_    0.510379 0.836244 0.821754 0.225225
H31   H     H_    0.078976 0.587476 0.334549 0.204381
H32   H     H_    0.034903 0.588602 0.747856 0.238863
H33   H     H_    0.465097 0.088602 0.252144 0.238863
H34   H     H_    0.748016 0.131176 0.179031 0.152590
H35   H     H_    0.421024 0.087476 0.665451 0.204381
H36   H     H_    0.727065 0.587775 0.667138 0.166911
H37   H     H_    0.293517 0.588558 0.277491 0.182375
H38   H     H_    0.206483 0.088558 0.722510 0.182375
H39   H     H_    0.772935 0.087775 0.332862 0.166911
H40   H     H_    0.413614 0.469277 0.504575 0.217680
H41   H     H_    0.618480 0.532029 0.395884 0.214662
H42   H     H_    0.881520 0.032029 0.604116 0.214662
H43   H     H_    0.086386 0.969277 0.495425 0.217680
H44   H     H_    0.497397 0.375204 0.481994 0.350997
H45   H     H_    0.804373 0.236328 0.841625 0.217090
H46   H     H_    0.552325 0.417161 0.318075 0.339872
H47   H     H_    0.947674 0.917161 0.681925 0.339872
H48   H     H_    0.002603 0.875204 0.518006 0.350998
H49   H     H_    0.120185 0.654485 0.520243 0.312230
H50   H     H_    0.903867 0.548052 0.496202 0.308021
H51   H     H_    0.596133 0.048052 0.503798 0.308021
H52   H     H_    0.379815 0.154485 0.479757 0.312230
H53   H     H_    0.718280 0.408814 0.575373 0.339557
H54   H     H_    0.363207 0.398445 0.306735 0.340782
H55   H     H_    0.136793 0.898445 0.693265 0.340782
H56   H     H_    0.213551 0.239895 0.164695 0.211871
H57   H     H_    0.781720 0.908814 0.424626 0.339557
H58   H     H_    0.918032 0.683421 0.192862 0.338257
H59   H     H_    0.032431 0.710369 0.815255 0.338908
H60   H     H_    0.467570 0.210369 0.184745 0.338908
H61   H     H_    0.581968 0.183421 0.807138 0.338257
H62   H     H_    0.286449 0.739895 0.835304 0.211871
H63   H     H_    0.695627 0.736328 0.158375 0.217090
H64   H     H_    0.167760 0.686964 0.831622 0.208240
N1    N     N_R   0.892620 0.603790 0.941770 -0.068586
N2    N     N_R   0.973690 0.529110 0.793240 -0.083180
N3    N     N_R   0.526310 0.029110 0.206760 -0.083180
N4    N     N_R   0.473690 0.029110 0.793240 -0.098685
N5    N     N_R   0.818570 0.472310 0.793020 -0.108388
N6    N     N_R   0.181430 0.472310 0.206980 -0.089577
N7    N     N_R   0.318570 0.972310 0.793020 -0.089577
N8    N     N_R   0.681430 0.972310 0.206980 -0.108388
N9    N     N_R   0.026930 0.472300 0.207330 -0.116738
N10   N     N_R   0.973070 0.472300 0.792670 -0.115333
N11   N     N_R   0.526930 0.972300 0.207330 -0.115333
N12   N     N_R   0.107380 0.603790 0.058230 -0.069733
N13   N     N_R   0.473070 0.972300 0.792670 -0.116738
N14   N     N_R   0.817960 0.529130 0.792460 -0.090122
N15   N     N_R   0.182040 0.529130 0.207540 -0.091459
N16   N     N_R   0.317960 0.029130 0.792460 -0.091459
N17   N     N_R   0.682040 0.029130 0.207540 -0.090122
N18   N     N_R   0.894850 0.397640 0.943830 -0.126122
N19   N     N_R   0.105150 0.397640 0.056170 -0.128668
N20   N     N_R   0.394850 0.897640 0.943830 -0.128668
N21   N     N_R   0.605150 0.897640 0.056170 -0.126122
N22   N     N_R   0.950040 0.603780 0.055950 -0.082324
N23   N     N_R   0.392620 0.103790 0.941770 -0.069733
N24   N     N_R   0.049960 0.603780 0.944050 -0.075005
N25   N     N_R   0.450040 0.103780 0.055950 -0.075005
N26   N     N_R   0.549960 0.103780 0.944050 -0.082324
N27   N     N_R   0.607380 0.103790 0.058230 -0.068586
N28   N     N_R   0.952270 0.397640 0.058010 -0.094248
N29   N     N_R   0.047730 0.397640 0.941990 -0.105723
N30   N     N_R   0.452270 0.897640 0.058010 -0.105723
N31   N     N_R   0.547730 0.897640 0.941990 -0.094248
N32   N     N_R   0.026310 0.529110 0.206760 -0.098685
Ni1   Ni    Ni4+2 0.934160 0.565860 0.869070 0.259000
Ni2   Ni    Ni4+2 0.065840 0.565860 0.130930 0.223804
Ni3   Ni    Ni4+2 0.434160 0.065860 0.869070 0.223804
Ni4   Ni    Ni4+2 0.565840 0.065860 0.130930 0.259000
Ni5   Ni    Ni4+2 0.067260 0.435560 0.132230 0.302605
Ni6   Ni    Ni4+2 0.932740 0.435560 0.867770 0.286985
Ni7   Ni    Ni4+2 0.567260 0.935560 0.132230 0.286985
Ni8   Ni    Ni4+2 0.432740 0.935560 0.867770 0.302605
O1    O     O_3   0.558034 0.395342 0.523684 -0.674577
O2    O     O_3   0.296609 0.401339 0.279897 -0.694773
O3    O     O_3   0.203391 0.901339 0.720103 -0.694773
O4    O     O_3   0.750897 0.904493 0.344718 -0.634749
O5    O     O_3   0.947157 0.648006 0.195862 -0.712604
O6    O     O_3   0.011484 0.671967 0.810208 -0.718693
O7    O     O_3   0.488516 0.171967 0.189792 -0.718693
O8    O     O_3   0.552843 0.148006 0.804138 -0.712604
O9    O     O_3   0.490085 0.434191 0.287807 -0.724691
O10   O     O_3   0.009915 0.934191 0.712193 -0.724691
O11   O     O_3   0.941966 0.895342 0.476316 -0.674577
O12   O     O_3   0.054887 0.649876 0.453327 -0.691192
O13   O     O_3   0.918440 0.585585 0.528022 -0.703432
O14   O     O_3   0.581560 0.085585 0.471977 -0.703431
O15   O     O_3   0.445112 0.149876 0.546673 -0.691192
O16   O     O_3   0.749103 0.404493 0.655282 -0.634750

loop_
_geom_bond_atom_site_label_1
_geom_bond_atom_site_label_2
_ccdc_geom_bond_type
C44   C49   A    
C3    N17   A    
H47   O10   S    
C83   C87   A    
C59   H2    S    
C93   C94   S    
C106  F16   S    
C73   C75   S    
N26   Ni3   S    
C111  N15   A    
C2    C84   S    
C95   C96   S    
C93   F12   S    
C9    C14   A    
C25   N12   A    
C19   C31   S    
H59   O6    S    
C15   C65   S    
C49   H45   S    
N6    Ni5   S    
N18   N28   A    
C57   C62   A    
C71   H9    S    
N20   N30   A    
H44   O1    S    
C43   C78   S    
H50   O13   S    
C98   N2    A    
C49   C60   A    
C22   C32   S    
N3    Ni4   S    
C97   H31   S    
C108  F3    S    
C52   C59   A    
C60   H3    S    
C24   C26   S    
C108  N11   A    
C8    N22   A    
C10   C15   A    
N23   N25   A    
C95   O14   S    
C54   H28   S    
C38   C39   S    
N20   Ni8   S    
C101  N5    A    
N3    N11   A    
C107  N10   A    
C65   C70   A    
N19   N29   A    
C99   N3    A    
C2    C107  A    
C4    N18   A    
C30   C38   S    
C67   C72   S    
C42   C46   A    
C100  N4    A    
N4    N13   A    
C24   C29   S    
C78   H17   S    
C56   H30   S    
C26   C33   S    
C109  F4    S    
C20   C112  A    
C47   H34   S    
C19   C103  A    
C85   C89   A    
C105  N8    A    
C73   H7    S    
C28   C35   S    
C44   C58   S    
C56   C91   A    
C48   C91   S    
C74   H8    S    
N29   Ni6   S    
C70   C74   S    
H58   O5    S    
C5    C69   A    
C24   O10   S    
C111  H37   S    
N8    Ni7   S    
C29   H42   S    
C23   O9    S    
C43   C48   A    
C96   O15   S    
C97   C102  A    
N21   Ni7   S    
C27   H40   S    
N10   Ni6   S    
C20   C34   S    
C104  O3    S    
C53   N28   A    
N9    Ni5   S    
N4    Ni3   S    
C112  H38   S    
C10   O7    S    
C29   C33   S    
C99   H33   S    
C87   C92   A    
C72   C78   S    
C61   H4    S    
C29   C39   S    
N5    N14   A    
C103  N6    A    
C1    C12   A    
C13   C108  A    
C16   C47   A    
C36   N23   A    
C94   O13   S    
C89   H24   S    
C9    N24   A    
C41   C76   S    
C90   C92   A    
C5    N19   A    
C63   C67   A    
H53   O16   S    
C82   C96   S    
C75   H18   S    
C30   C34   S    
C39   F11   S    
C45   C69   S    
C17   C86   S    
C84   C88   A    
C28   C32   S    
C25   H12   S    
C76   H19   S    
C57   H64   S    
C86   C90   A    
C79   C81   A    
C12   C63   S    
C62   C66   A    
C26   O11   S    
C54   N29   A    
C73   H11   S    
C11   O8    S    
C8    O5    S    
C47   N27   A    
C46   C51   A    
C24   C34   S    
C34   C39   S    
C96   F15   S    
N32   Ni2   S    
C18   C101  A    
C23   C31   S    
C13   C99   A    
C1    N1    A    
N7    Ni8   S    
N1    N22   A    
C107  F2    S    
C75   H14   S    
C22   O1    S    
C81   C93   S    
C11   C16   A    
C28   H41   S    
N15   Ni2   S    
C72   H6    S    
C66   C71   S    
C77   H20   S    
C40   C44   A    
C8    C12   A    
C83   C95   S    
C13   C87   S    
N14   Ni1   S    
C76   H15   S    
N18   Ni6   S    
C110  N14   A    
C38   F10   S    
C32   C37   S    
C90   H25   S    
C109  N13   A    
C11   N26   A    
C112  N16   A    
C7    N21   A    
C51   H62   S    
C74   C76   S    
C79   C94   S    
C55   N30   A    
C37   F9    S    
N28   Ni5   S    
N17   Ni4   S    
C74   H13   S    
C98   H32   S    
N30   Ni7   S    
C53   H27   S    
C103  O2    S    
N11   Ni7   S    
C22   C27   S    
H48   O11   S    
C27   C31   S    
C6    C80   A    
N27   Ni4   S    
C105  O4    S    
C31   C35   S    
C4    F5    S    
C3    C21   A    
C23   C28   S    
N12   Ni2   S    
C64   C68   A    
C6    F7    S    
C71   C77   S    
H51   O14   S    
N31   Ni8   S    
N2    Ni1   S    
C94   F13   S    
C59   C63   A    
C110  H36   S    
N19   Ni5   S    
C35   C37   S    
N6    N15   A    
C3    H39   S    
C88   H22   S    
C7    F8    S    
C22   C23   S    
C50   H56   S    
C18   C110  A    
N13   Ni8   S    
C93   O12   S    
C17   C109  A    
C71   H5    S    
C56   N31   A    
C53   C58   A    
C40   C75   S    
C36   H23   S    
C26   C30   S    
C20   C104  A    
N24   Ni1   S    
C19   C111  A    
C16   C64   S    
H49   O12   S    
N12   N24   A    
C1    H1    S    
N8    N17   A    
C97   N32   A    
C5    F6    S    
C60   C64   A    
C21   C33   S    
C68   C73   S    
C77   H16   S    
N1    Ni1   S    
N16   Ni3   S    
H60   O7    S    
C82   C86   A    
C7    C91   A    
C46   C80   S    
C55   C80   A    
N21   N31   A    
C95   F14   S    
N26   N27   A    
C79   C84   A    
C54   C69   A    
C45   C50   A    
C27   C37   S    
N5    Ni6   S    
C72   H10   S    
N7    N16   A    
C104  N7    A    
H61   O8    S    
C18   C32   S    
C35   F1    S    
C100  H35   S    
N23   Ni3   S    
C14   C25   A    
N22   Ni2   S    
C17   C100  A    
C81   C85   A    
C30   H43   S    
H54   O2    S    
N25   Ni4   S    
H52   O15   S    
C61   C65   A    
C51   C57   A    
C55   H29   S    
H57   O4    S    
C6    N20   A    
C88   C89   A    
C2    C98   A    
N2    N10   A    
C43   C67   A    
C82   C83   A    
C40   C68   A    
C102  C106  A    
C4    C58   A    
C9    O6    S    
C42   C66   A    
C50   C61   A    
C41   C45   A    
C42   C77   S    
C15   C36   A    
C33   C38   S    
C92   H26   S    
H46   O9    S    
N9    N32   A    
C48   C52   A    
C101  O16   S    
C10   N25   A    
C52   H63   S    
C21   C105  A    
C85   C102  S    
C78   H21   S    
H55   O3    S    
C41   C70   A    
C106  N9    A    
C14   C62   S    
