data_mof_unit_38563.cif
_audit_creation_date              2012-12-10T18:34:24-0500
_audit_creation_method            fapswitch 2.2
_symmetry_space_group_name_H-M    P1
_symmetry_Int_Tables_number       1
_space_group_crystal_system       triclinic
_cell_length_a                    15.056854
_cell_length_b                    15.448028
_cell_length_c                    15.7078
_cell_angle_alpha                 90.636013
_cell_angle_beta                  104.673501
_cell_angle_gamma                 81.566229
_cell_volume                      3494.93406717

loop_
_atom_site_label
_atom_site_type_symbol
_atom_type_description
_atom_site_fract_x
_atom_site_fract_y
_atom_site_fract_z
_atom_type_partial_charge
C1    C     C_R   0.441491 0.661971 0.482511 0.866196
C2    C     C_R   0.564462 0.097229 0.477985 0.088729
C3    C     C_R   0.373976 0.922287 0.376761 0.112599
C4    C     C_R   0.654301 0.064066 0.530381 0.106871
C5    C     C_R   0.524862 0.949882 0.466702 0.095377
C6    C     C_R   0.502447 0.038810 0.439008 0.087376
C7    C     C_R   0.419225 0.065714 0.373542 -0.242181
C8    C     C_R   0.616432 0.917871 0.514729 -0.246653
C9    C     C_R   0.357563 0.007157 0.340990 -0.222946
C10   C     C_R   0.680772 0.974159 0.544603 -0.218805
C11   C     C_R   0.853566 0.604703 0.658580 0.325680
C12   C     C_R   0.558572 0.337869 0.511919 0.870534
C13   C     C_R   0.159299 0.359766 0.368378 0.265786
C14   C     C_R   0.760797 0.592063 0.627803 0.445009
C15   C     C_R   0.247093 0.386852 0.387905 0.455302
C16   C     C_R   0.501568 0.499749 0.662069 0.864688
C17   C     C_R   0.498879 0.499125 0.338067 0.899877
C18   C     C_R   0.791264 0.526937 0.498301 0.448579
C19   C     C_R   0.206085 0.485918 0.494121 0.432018
C20   C     C_R   0.888641 0.521697 0.534912 -0.191441
C21   C     C_R   0.117342 0.458202 0.479346 -0.200851
C22   C     C_R   0.918592 0.563247 0.615841 -0.068341
C23   C     C_R   0.310872 0.863702 0.345749 -0.333007
C24   C     C_R   0.092776 0.399065 0.410853 -0.062369
C25   C     C_R   0.956848 0.477859 0.494398 0.149507
C26   C     C_R   0.051610 0.488483 0.528086 0.124337
C27   C     C_R   0.078581 0.523513 0.612105 -0.215171
C28   C     C_R   0.935253 0.418447 0.426215 -0.188057
C29   C     C_R   0.013229 0.560037 0.655018 -0.151956
C30   C     C_R   0.002437 0.378557 0.386546 -0.171524
C31   C     C_3   0.485065 0.573699 0.025604 -0.335845
C32   C     C_3   0.526035 0.406308 0.977054 -0.314074
C33   C     C_3   0.571948 0.537656 0.992637 -0.326896
C34   C     C_R   0.715749 0.121283 0.569997 -0.307339
C35   C     C_3   0.439236 0.442413 0.010210 -0.305163
C36   C     C_1   0.506203 0.496575 0.752191 -0.148738
C37   C     C_1   0.497303 0.494991 0.248683 -0.179376
C38   C     C_3   0.424391 0.525486 0.952149 0.587126
C39   C     C_3   0.586824 0.454435 0.050876 0.577494
C40   C     C_3   0.509497 0.490215 0.919376 0.068534
C41   C     C_3   0.501446 0.489908 0.083309 0.077977
C42   C     C_1   0.509053 0.493262 0.828215 0.008905
C43   C     C_1   0.498118 0.491705 0.173493 -0.030609
C44   C     C_R   0.407036 0.753173 0.451933 -0.164230
C45   C     C_R   0.328252 0.776728 0.380643 0.551841
C46   C     C_R   0.595605 0.244672 0.516126 -0.172132
C47   C     C_3   0.186448 0.633784 0.508540 0.106316
C48   C     C_3   0.216528 0.707706 0.568706 -0.791927
C49   C     C_3   0.750287 0.587983 0.361164 0.076257
C50   C     C_3   0.737606 0.565925 0.264727 -0.752336
C51   C     C_3   0.290886 0.375034 0.258540 -0.231104
C52   C     C_3   0.662729 0.696165 0.678479 -0.211939
C53   C     C_3   0.873146 0.739587 0.716917 0.123625
C54   C     C_3   0.967794 0.767277 0.724406 -0.905274
C55   C     C_3   0.162581 0.213542 0.349249 0.125821
C56   C     C_R   0.686450 0.211602 0.564719 0.539937
C57   C     C_3   0.123195 0.145646 0.285558 -0.862288
C58   C     C_3   0.739332 0.394776 0.064063 0.090236
C59   C     C_3   0.826550 0.346944 0.126726 -0.802351
C60   C     C_3   0.277236 0.598407 0.942032 0.098307
C61   C     C_3   0.180389 0.616903 0.880827 -0.825511
C62   C     C_3   0.742736 0.274478 0.694438 -0.292432
C63   C     C_3   0.186458 0.742233 0.294914 -0.402244
C64   C     C_R   0.466130 0.813780 0.484586 -0.356825
C65   C     C_R   0.536769 0.187725 0.471902 -0.338264
C66   C     C_R   0.455863 0.894912 0.442861 0.101385
H1    H     H_    0.626376 0.575361 0.983576 0.157960
H2    H     H_    0.522244 0.795544 0.542086 0.160911
H3    H     H_    0.251390 0.885400 0.291616 0.140322
H4    H     H_    0.785266 0.095969 0.608197 0.154568
H5    H     H_    0.402396 0.130468 0.343346 0.163829
H6    H     H_    0.640643 0.848922 0.526884 0.133462
H7    H     H_    0.037462 0.585690 0.719688 0.199064
H8    H     H_    0.982559 0.332315 0.335380 0.189528
H9    H     H_    0.109633 0.639228 0.494578 0.120133
H10   H     H_    0.204889 0.642318 0.445597 0.199658
H11   H     H_    0.293161 0.704234 0.585037 0.256961
H12   H     H_    0.384328 0.405217 0.019071 0.151830
H13   H     H_    0.184016 0.771775 0.535349 0.196374
H14   H     H_    0.194469 0.702607 0.630587 0.247353
H15   H     H_    0.814719 0.618895 0.381623 0.112828
H16   H     H_    0.690017 0.636241 0.367922 0.155419
H17   H     H_    0.674933 0.534099 0.241358 0.291966
H18   H     H_    0.729613 0.626613 0.224576 0.190583
H19   H     H_    0.799107 0.520851 0.256232 0.251185
H20   H     H_    0.354249 0.362434 0.233804 0.172023
H21   H     H_    0.263864 0.446296 0.247891 0.147278
H22   H     H_    0.240215 0.335729 0.218552 0.193664
H23   H     H_    0.150421 0.519850 0.647864 0.217037
H24   H     H_    0.587889 0.699633 0.675472 0.173630
H25   H     H_    0.668705 0.733043 0.620402 0.083461
H26   H     H_    0.694546 0.728644 0.739526 0.154296
H27   H     H_    0.842780 0.775670 0.766858 0.158713
H28   H     H_    0.826534 0.761822 0.651140 0.090655
H29   H     H_    0.997172 0.740185 0.669999 0.249424
H30   H     H_    0.960350 0.839786 0.719867 0.216968
H31   H     H_    0.015843 0.744440 0.788680 0.265745
H32   H     H_    0.133771 0.211148 0.407859 0.136858
H33   H     H_    0.239462 0.196061 0.370251 0.166461
H34   H     H_    0.868315 0.396936 0.406054 0.215801
H35   H     H_    0.152473 0.144063 0.227287 0.253740
H36   H     H_    0.141064 0.079955 0.318657 0.206759
H37   H     H_    0.046424 0.162138 0.263429 0.258223
H38   H     H_    0.757151 0.455010 0.038292 0.143304
H39   H     H_    0.716524 0.350867 0.008602 0.133478
H40   H     H_    0.811136 0.286233 0.153578 0.256012
H41   H     H_    0.881354 0.329164 0.091120 0.209716
H42   H     H_    0.852704 0.389493 0.182047 0.250946
H43   H     H_    0.297487 0.661291 0.969837 0.141975
H44   H     H_    0.274481 0.553883 0.996389 0.130582
H45   H     H_    0.467246 0.641280 0.047139 0.152630
H46   H     H_    0.157634 0.554433 0.854839 0.255818
H47   H     H_    0.130971 0.649222 0.917351 0.209764
H48   H     H_    0.180333 0.660443 0.824994 0.255415
H49   H     H_    0.671345 0.301261 0.699089 0.140860
H50   H     H_    0.789513 0.320978 0.726930 0.201022
H51   H     H_    0.766790 0.210513 0.730938 0.145510
H52   H     H_    0.146946 0.686161 0.282645 0.185031
H53   H     H_    0.150724 0.790371 0.333172 0.160411
H54   H     H_    0.185120 0.769869 0.229534 0.182786
H55   H     H_    0.544156 0.338717 0.955704 0.152328
H56   H     H_    0.296257 0.028765 0.288600 0.152106
H57   H     H_    0.750142 0.947473 0.582143 0.137923
H58   H     H_    0.467232 0.215136 0.436742 0.208622
N1    N     N_R   0.731710 0.552730 0.549140 -0.198208
N2    N     N_R   0.268290 0.447270 0.450860 -0.186521
O1    O     O_R   0.383110 0.605620 0.475230 -0.555078
O2    O     O_3   0.755199 0.510815 0.410861 -0.581616
O3    O     O_3   0.314985 0.348764 0.348357 -0.586776
O4    O     O_3   0.702775 0.607406 0.683406 -0.547575
O5    O     O_3   0.881792 0.648589 0.735953 -0.589341
O6    O     O_3   0.137865 0.296691 0.306416 -0.612271
O7    O     O_3   0.670251 0.416376 0.110016 -0.611873
O8    O     O_3   0.339539 0.560802 0.893594 -0.602597
O9    O     O_3   0.747383 0.266961 0.606069 -0.585289
O10   O     O_3   0.278411 0.710777 0.341983 -0.608834
O11   O     O_R   0.616890 0.394380 0.524770 -0.552511
O12   O     O_R   0.531900 0.639510 0.506760 -0.627970
O13   O     O_R   0.468100 0.360490 0.493240 -0.589891
O14   O     O_R   0.425620 0.483070 0.607460 -0.567296
O15   O     O_R   0.574380 0.516930 0.392540 -0.566730
O16   O     O_R   0.574400 0.516960 0.638990 -0.558487
O17   O     O_R   0.425600 0.483040 0.361010 -0.584501
O18   O     O_3   0.231541 0.552783 0.550000 -0.580377
Zn1   Zn    Zn3+2 0.400660 0.477370 0.478940 1.027865
Zn2   Zn    Zn3+2 0.599340 0.522630 0.521060 1.022942

loop_
_geom_bond_atom_site_label_1
_geom_bond_atom_site_label_2
_ccdc_geom_bond_type
C49   H16   S    
C21   C26   A    
C34   C56   A    
C19   O18   S    
C23   C45   A    
C22   C29   A    
C27   C29   A    
C23   H3    S    
C36   C42   T    
C2    C65   A    
C51   O3    S    
C50   H18   S    
C39   C41   S    
C16   O14   A    
C53   C54   S    
C44   C64   A    
C25   C28   A    
C57   H36   S    
C26   C27   A    
C33   C39   S    
C14   N1    A    
C64   H2    S    
C48   H13   S    
C19   C21   A    
C47   H10   S    
N1    Zn2   S    
C18   N1    A    
C7    H5    S    
C5    C6    A    
C30   H8    S    
C11   C14   A    
C65   H58   S    
C29   H7    S    
C20   C25   A    
O17   Zn1   S    
C17   O15   A    
C32   C39   S    
C49   H15   S    
C3    C23   A    
O16   Zn2   S    
C62   H51   S    
C60   H43   S    
C50   H19   S    
C18   O2    S    
C52   H24   S    
C15   N2    A    
C31   C33   S    
C54   H31   S    
C53   O5    S    
C34   H4    S    
C54   H30   S    
C38   O8    S    
C28   H34   S    
C40   C42   S    
C41   C43   S    
O14   Zn1   S    
C2    C6    A    
C51   H20   S    
N2    Zn1   S    
C50   H17   S    
C58   O7    S    
C57   H37   S    
C4    C34   A    
C8    H6    S    
C33   C40   S    
C53   H27   S    
C59   H40   S    
C32   C35   S    
O11   Zn2   S    
C35   C38   S    
C39   O7    S    
C46   C65   A    
C12   C46   S    
C10   H57   S    
C51   H21   S    
C63   H52   S    
C25   C26   A    
C47   O18   S    
C59   H41   S    
C13   C24   A    
C60   C61   S    
C64   C66   A    
C62   O9    S    
C37   C43   T    
C16   O16   A    
C62   H50   S    
C3    C9    A    
C63   H53   S    
C1    C44   S    
C47   C48   S    
C15   O3    S    
C48   H11   S    
C9    H56   S    
C12   O13   A    
C17   C37   S    
C54   H29   S    
O15   Zn2   S    
O1    Zn1   S    
C20   C22   A    
C55   O6    S    
C13   C15   A    
C61   H47   S    
C52   H26   S    
C3    C66   A    
C58   H38   S    
C46   C56   A    
C60   O8    S    
C56   O9    S    
C44   C45   A    
C33   H1    S    
C14   O4    S    
C7    C9    A    
C49   O2    S    
O13   Zn1   S    
C45   O10   S    
C31   C41   S    
C53   H28   S    
C32   H55   S    
C1    O1    A    
C5    C66   A    
C11   O5    S    
C51   H22   S    
C5    C8    A    
C6    C7    A    
C19   N2    A    
C57   H35   S    
C35   H12   S    
C59   H42   S    
C31   C38   S    
C17   O17   A    
C58   H39   S    
C52   O4    S    
C63   O10   S    
C48   H14   S    
C55   C57   S    
C58   C59   S    
C47   H9    S    
C62   H49   S    
C16   C36   S    
C38   C40   S    
C63   H54   S    
O12   Zn2   S    
C2    C4    A    
C55   H32   S    
C28   C30   A    
C13   O6    S    
C27   H23   S    
C18   C20   A    
C32   C40   S    
C35   C41   S    
C24   C30   A    
C60   H44   S    
C11   C22   A    
C8    C10   A    
C49   C50   S    
C21   C24   A    
C55   H33   S    
C61   H48   S    
C31   H45   S    
C12   O11   A    
C52   H25   S    
C61   H46   S    
C4    C10   A    
C1    O12   A    
