data_mof_unit_57640.cif
_audit_creation_date              2013-03-05T15:50:44-0500
_audit_creation_method            fapswitch 2.2
_symmetry_space_group_name_H-M    P1
_symmetry_Int_Tables_number       1
_space_group_crystal_system       triclinic
_cell_length_a                    11.056567
_cell_length_b                    12.170844
_cell_length_c                    12.933387
_cell_angle_alpha                 95.374462
_cell_angle_beta                  96.166768
_cell_angle_gamma                 86.651602
_cell_volume                      1720.68282484

loop_
_atom_site_label
_atom_site_type_symbol
_atom_site_description
_atom_site_fract_x
_atom_site_fract_y
_atom_site_fract_z
_atom_type_partial_charge
O1    O     O_R   0.506240 0.421700 0.658830 -0.635417
O2    O     O_R   0.491240 0.609310 0.646410 -0.542860
C1    C     C_R   0.499927 0.524327 0.700538 0.895532
O3    O     O_R   0.692710 0.406190 0.506230 -0.651910
O4    O     O_R   0.677700 0.593810 0.493810 -0.526283
C2    C     C_R   0.740855 0.498506 0.491855 0.983012
Zn1   Zn    Zn3+2 0.510020 0.374730 0.508290 1.085382
Zn2   Zn    Zn3+2 0.489980 0.625270 0.491710 1.160872
O5    O     O_R   0.508760 0.390690 0.353590 -0.573123
O6    O     O_R   0.493760 0.578300 0.341170 -0.580118
O7    O     O_R   0.322300 0.406190 0.506190 -0.548231
O8    O     O_R   0.307290 0.593810 0.493770 -0.540280
C3    C     C_R   0.501933 0.476187 0.298908 1.055993
C4    C     C_R   0.258420 0.499355 0.502889 0.973004
C5    C     C_3   0.936734 0.377029 0.528229 0.016819
C6    C     C_3   0.082457 0.371554 0.521895 -0.272767
C7    C     C_3   0.915156 0.509720 0.371301 -0.054090
C8    C     C_3   0.931745 0.599391 0.571359 0.150443
C9    C     C_3   0.877910 0.496951 0.489853 -0.297337
C10   C     C_3   0.121440 0.494219 0.498851 -0.228101
C11   C     C_3   0.059735 0.532110 0.383796 -0.026194
C12   C     C_3   0.075785 0.578419 0.589628 -0.406340
H1    H     H_    0.118622 0.656991 0.587073 0.198434
C13   C     C_R   0.506671 0.460808 0.185515 -0.180075
C14   C     C_R   0.505841 0.544905 0.813633 -0.200907
C15   C     C_R   0.450873 0.649011 0.972776 -0.068999
C16   C     C_R   0.449737 0.640716 0.863667 0.253890
C17   C     C_R   0.571806 0.467361 0.874075 -0.127206
C18   C     C_R   0.542580 0.460771 0.975224 -0.004124
C19   C     C_R   0.489405 0.555380 0.027015 0.042540
C20   C     C_R   0.474856 0.554103 0.131683 -0.137824
C21   C     C_R   0.542545 0.360649 0.129647 0.274458
C22   C     C_R   0.562055 0.361265 0.024232 0.265780
H2    H     H_    0.436904 0.626855 0.172054 0.202139
N1    N     N_R   0.523380 0.207800 0.519350 -0.145088
N2    N     N_R   0.476620 0.792180 0.480650 -0.164433
C23   C     C_R   0.375001 0.950583 0.402948 -0.227573
C24   C     C_R   0.396582 0.836060 0.404429 0.132676
C25   C     C_R   0.542249 0.863226 0.553497 0.418815
C26   C     C_R   0.528123 0.981066 0.549997 -0.107343
C27   C     C_R   0.453165 0.023169 0.466383 -0.090080
C28   C     C_R   0.459020 0.136451 0.448930 0.092042
C29   C     C_R   0.582099 0.171296 0.607728 0.037643
C30   C     C_R   0.586737 0.059352 0.625957 0.254043
H3    H     H_    0.621993 0.230489 0.666954 0.181475
C31   C     C_2   0.882248 0.273792 0.462871 0.422064
H4    H     H_    0.805126 0.279195 0.404644 0.131689
O9    O     O_2   0.917915 0.180399 0.482849 -0.437487
N3    N     N_R   0.843509 0.597265 0.312721 0.257273
O10   O     O_R   0.726802 0.610817 0.316060 -0.312826
O11   O     O_R   0.879137 0.621587 0.225237 -0.293054
C32   C     C_2   0.078085 0.654748 0.368547 0.613915
H5    H     H_    0.063938 0.682098 0.290778 0.175004
O12   O     O_2   0.120255 0.722985 0.435430 -0.578226
N4    N     N_R   0.549533 0.256825 0.174328 0.225090
O13   O     O_R   0.490589 0.175321 0.124012 -0.320015
O14   O     O_R   0.636561 0.235023 0.246477 -0.354050
C33   C     C_2   0.405457 0.753484 0.027371 0.496688
H6    H     H_    0.317076 0.790587 0.001412 0.116673
O15   O     O_2   0.469942 0.801704 0.097752 -0.519620
N5    N     N_R   0.590920 0.258853 0.964879 0.249267
O16   O     O_R   0.681670 0.193849 0.998059 -0.189869
O17   O     O_R   0.524064 0.229017 0.878898 -0.336508
N6    N     N_R   0.401335 0.732996 0.807050 0.225801
O18   O     O_R   0.434294 0.832314 0.838867 -0.253044
O19   O     O_R   0.313434 0.721270 0.732448 -0.406017
C34   C     C_2   0.685055 0.410173 0.838785 0.649727
H7    H     H_    0.697907 0.398075 0.757286 0.123598
O20   O     O_2   0.769468 0.382966 0.901689 -0.427756
C35   C     C_2   0.412613 0.171870 0.346880 0.504497
H8    H     H_    0.430606 0.117910 0.278637 0.104059
O21   O     O_2   0.345914 0.253824 0.337667 -0.511239
N7    N     N_R   0.905315 0.364280 0.636732 0.225200
O22   O     O_R   0.836188 0.286232 0.654082 -0.354326
O23   O     O_R   0.959589 0.416675 0.719043 -0.313942
C36   C     C_2   0.257013 0.989873 0.347917 0.509328
H9    H     H_    0.252678 0.037654 0.281137 0.068012
O24   O     O_2   0.161378 0.962286 0.374586 -0.427442
N8    N     N_R   0.638910 0.031291 0.726875 0.262931
O25   O     O_R   0.742741 0.070223 0.766201 -0.230702
O26   O     O_R   0.570654 0.991249 0.788443 -0.202590
C37   C     C_2   0.339160 0.769350 0.312633 0.510349
H10   H     H_    0.322482 0.804890 0.238340 0.040398
O27   O     O_2   0.301905 0.678951 0.317885 -0.534456
N9    N     N_R   0.639008 0.819591 0.623104 0.231460
O28   O     O_R   0.613915 0.772850 0.703653 -0.255444
O29   O     O_R   0.746086 0.859233 0.626648 -0.323622
C38   C     C_2   0.145221 0.322906 0.622557 0.642486
H11   H     H_    0.101557 0.257463 0.653950 0.171408
O30   O     O_2   0.247550 0.342620 0.662177 -0.577442
C39   C     C_2   0.123407 0.284402 0.436568 0.482988
H12   H     H_    0.126709 0.301762 0.357866 0.140179
O31   O     O_2   0.154356 0.189647 0.455425 -0.501866
C40   C     C_2   0.887005 0.405649 0.298444 0.517806
H13   H     H_    0.950197 0.335778 0.291428 0.053287
O32   O     O_2   0.790847 0.399045 0.242781 -0.497902
N10   N     N_R   0.119060 0.474068 0.293826 0.144385
O33   O     O_R   0.236151 0.454528 0.300167 -0.367644
O34   O     O_R   0.065043 0.476808 0.199406 -0.298523
C41   C     C_2   0.910523 0.713711 0.529197 0.541385
H14   H     H_    0.968233 0.779870 0.562993 0.160683
O35   O     O_2   0.824651 0.739618 0.468135 -0.479634
N11   N     N_R   0.876356 0.616785 0.672323 0.284691
O36   O     O_R   0.902918 0.703751 0.735790 -0.234791
O37   O     O_R   0.783604 0.563673 0.690962 -0.373698
C42   C     C_2   0.137948 0.558454 0.698287 0.652148
H15   H     H_    0.233266 0.532355 0.705908 0.064753
O38   O     O_2   0.091839 0.583502 0.779183 -0.423772

loop_
_geom_bond_atom_site_label_1
_geom_bond_atom_site_label_2
_geom_bond_distance
_ccdc_geom_bond_type
N4    O13   1.302185 A    
C27   C28   1.424057 A    
N10   O33   1.297769 A    
N9    O28   1.295151 A    
C14   C17   1.403226 A    
C5    C9    1.659845 S    
C2    C9    1.517350 S    
C15   C16   1.404038 A    
C23   C24   1.401886 A    
C17   C18   1.391315 A    
C36   O24   1.221195 D    
O1    C1    1.314409 A    
Zn2   N2    2.045447 S    
C19   C20   1.381912 A    
O7    C4    1.302092 A    
C42   H15   1.079691 S    
C33   O15   1.220949 D    
C5    C6    1.619224 S    
C18   C22   1.413801 A    
C28   C35   1.458210 S    
C8    C9    1.650963 S    
N7    O22   1.303244 A    
N5    O17   1.301527 A    
N1    C28   1.369210 A    
O5    C3    1.306089 A    
N3    O11   1.301977 A    
C35   H8    1.078775 S    
N1    C29   1.351811 A    
C21   N4    1.432640 S    
Zn2   O8    2.081162 S    
O1    Zn1   1.981290 S    
C24   C37   1.479704 S    
N7    O23   1.296280 A    
N5    O16   1.302003 A    
C8    C41   1.537792 S    
O3    Zn1   2.081161 S    
N10   O34   1.302956 A    
C32   O12   1.216301 D    
N9    O29   1.299036 A    
C31   O9    1.222738 D    
C34   H7    1.074047 S    
C4    C10   1.514561 S    
C1    C14   1.455759 S    
C17   C34   1.490667 S    
C36   H9    1.080914 S    
O3    C2    1.307888 A    
C7    N3    1.503491 S    
C25   C26   1.438011 A    
N8    O26   1.298418 A    
C33   H6    1.085310 S    
C12   C42   1.530783 S    
N2    C25   1.391293 A    
C7    C11   1.625694 S    
C3    C13   1.467141 S    
C34   O20   1.222229 D    
N6    O19   1.298002 A    
Zn1   O7    2.086195 S    
C29   C30   1.401393 A    
C13   C21   1.416170 A    
C18   C19   1.407568 A    
C39   O31   1.222790 D    
C11   N10   1.496381 S    
C6    C10   1.640006 S    
C41   O35   1.214544 D    
C20   H2    1.072285 S    
N11   O37   1.298996 A    
C10   C11   1.663150 S    
C40   O32   1.220576 D    
C15   C33   1.483552 S    
C22   N5    1.439323 S    
C26   C27   1.407323 A    
C5    N7    1.505273 S    
C23   C36   1.492801 S    
C38   O30   1.218334 D    
C15   C19   1.414580 A    
C37   O27   1.207382 D    
N4    O14   1.300261 A    
C25   N9    1.432931 S    
C39   H12   1.063595 S    
C32   H5    1.081561 S    
Zn1   O5    2.026723 S    
C31   H4    1.078560 S    
C8    C12   1.593828 S    
Zn1   N1    2.045689 S    
C30   N8    1.432385 S    
O2    Zn2   2.026725 S    
C10   C12   1.588998 S    
O6    C3    1.312145 A    
O4    Zn2   2.086194 S    
C14   C16   1.422575 A    
C21   C22   1.403799 A    
N2    C24   1.376997 A    
O2    C1    1.295655 A    
O8    C4    1.318741 A    
C13   C20   1.395199 A    
C29   H3    1.077724 S    
N6    O18   1.299751 A    
O4    C2    1.318088 A    
C42   O38   1.218282 D    
C41   H14   1.086616 S    
C7    C9    1.653017 S    
C8    N11   1.493282 S    
C23   C27   1.414747 A    
C40   H13   1.072057 S    
C16   N6    1.443495 S    
N8    O25   1.301567 A    
C26   C30   1.432822 A    
C38   H11   1.086248 S    
C6    C39   1.542702 S    
Zn2   O6    1.981290 S    
N3    O10   1.296122 A    
N11   O36   1.304643 A    
C6    C38   1.558656 S    
C12   H1    1.096402 S    
C35   O21   1.212606 D    
C7    C40   1.532516 S    
C5    C31   1.560852 S    
C37   H10   1.083897 S    
C11   C32   1.551472 S    
