data_mof_unit_16953.cif
_audit_creation_date              2012-12-11T18:34:49-0500
_audit_creation_method            fapswitch 2.2
_symmetry_space_group_name_H-M    P1
_symmetry_Int_Tables_number       1
_space_group_crystal_system       triclinic
_cell_length_a                    8.376158
_cell_length_b                    14.363307
_cell_length_c                    22.813083
_cell_angle_alpha                 94.732541
_cell_angle_beta                  89.755964
_cell_angle_gamma                 91.647995
_cell_volume                      2734.1331414

loop_
_atom_site_label
_atom_site_type_symbol
_atom_type_description
_atom_site_fract_x
_atom_site_fract_y
_atom_site_fract_z
_atom_type_partial_charge
Ba1   Ba    Ba6+2 0.846250 0.544220 0.470860 1.658889
Ba2   Ba    Ba6+2 0.343570 0.455860 0.529140 1.658176
C1    C     C_3   0.619532 0.860393 0.246653 0.368163
C2    C     C_R   0.948112 0.533227 0.948668 -0.036696
C3    C     C_R   0.907625 0.529260 0.888345 0.584947
C4    C     C_3   0.115383 0.739609 0.309422 0.367551
C5    C     C_R   0.142278 0.443183 0.862951 0.603525
C6    C     C_R   0.186150 0.444525 0.923618 -0.027307
C7    C     C_R   0.086252 0.489483 0.966741 -0.089269
C8    C     C_R   0.852319 0.580579 0.991184 -0.113013
C9    C     C_R   0.889371 0.584732 0.051131 0.158292
C10   C     C_R   0.024841 0.538741 0.070706 -0.002576
C11   C     C_R   0.123858 0.491140 0.028007 -0.121370
C12   C     C_3   0.575864 0.782409 0.288571 0.423679
C13   C     C_R   0.326292 0.402166 0.942290 0.135891
C14   C     C_R   0.362171 0.402001 0.003058 0.126740
C15   C     C_R   0.259569 0.445022 0.046456 -0.033500
C16   C     C_3   0.119006 0.765255 0.246138 -0.364194
C17   C     C_R   0.290011 0.444186 0.107954 0.603804
C18   C     C_R   0.065990 0.540426 0.131394 0.596743
C19   C     C_2   0.818836 0.425640 0.768031 -0.120265
C20   C     C_3   0.783122 0.403014 0.703368 -0.080970
C21   C     C_1   0.002872 0.513359 0.682170 0.009916
C22   C     C_2   0.054359 0.515172 0.737637 -0.128823
C23   C     C_3   0.521747 0.281259 0.341360 0.488100
C24   C     C_2   0.953592 0.474896 0.784577 0.214333
C25   C     C_R   0.393159 0.552571 0.229198 0.067454
C26   C     C_R   0.435623 0.562624 0.289159 -0.001409
C27   C     C_R   0.190490 0.480101 0.314899 0.063730
C28   C     C_3   0.214096 0.759814 0.664018 0.623026
C29   C     C_R   0.148289 0.468372 0.254788 -0.111181
C30   C     C_R   0.247376 0.505199 0.211186 0.197981
C31   C     C_2   0.872447 0.465741 0.663657 -0.264111
C32   C     C_R   0.686103 0.936608 0.535885 -0.055891
C33   C     C_R   0.502886 0.802262 0.503102 0.068080
C34   C     C_3   0.494187 0.211597 0.286493 -0.031494
C35   C     C_R   0.358754 0.770801 0.476352 -0.282060
C36   C     C_R   0.253890 0.833281 0.454534 0.001595
C37   C     C_R   0.296061 0.928251 0.456700 0.071893
C38   C     C_R   0.448130 0.959868 0.478568 0.021015
C39   C     C_R   0.546297 0.898979 0.506890 -0.088521
C40   C     C_3   0.135929 0.848379 0.694456 -0.140808
C41   C     C_R   0.638213 0.090443 0.502070 -0.023426
C42   C     C_R   0.730500 0.031948 0.534916 -0.035334
C43   C     C_R   0.680576 0.187574 0.503929 0.058639
C44   C     C_R   0.812567 0.222869 0.536561 -0.248132
C45   C     C_3   0.062278 0.236861 0.697125 0.322332
C46   C     C_R   0.916156 0.163230 0.561541 0.038466
C47   C     C_R   0.872629 0.068199 0.562662 -0.153124
C48   C     C_R   0.509282 0.049124 0.468076 0.194819
C49   C     C_3   0.965274 0.253024 0.394730 0.375860
C50   C     C_3   0.911365 0.159119 0.363306 -0.294136
C51   C     C_3   0.689017 0.662851 0.641508 0.353018
C52   C     C_3   0.738500 0.696531 0.704769 -0.165729
C53   C     C_3   0.081855 0.205273 0.759133 -0.076142
C54   C     C_3   0.540272 0.211880 0.679591 0.345062
C55   C     C_3   0.512764 0.126023 0.715017 0.124222
C56   C     C_R   0.332099 0.528834 0.331262 -0.300926
H1    H     H_    0.229479 0.901804 0.709189 0.059817
H2    H     H_    0.482855 0.773344 0.370585 0.126338
H3    H     H_    0.649883 0.839805 0.369991 0.205272
H4    H     H_    0.111553 0.824961 0.781437 0.183376
H5    H     H_    0.962524 0.883103 0.754675 0.193511
H6    H     H_    0.060129 0.879933 0.661783 0.093196
H7    H     H_    0.861695 0.295279 0.407292 0.079997
H8    H     H_    0.141353 0.187977 0.437696 0.186770
H9    H     H_    0.102336 0.297327 0.466881 0.228238
H10   H     H_    0.844609 0.170498 0.322829 0.114167
H11   H     H_    0.834926 0.118707 0.392586 0.099261
H12   H     H_    0.466406 0.746340 0.269923 -0.012833
H13   H     H_    0.016642 0.116895 0.350084 0.099050
H14   H     H_    0.794519 0.635124 0.617385 -0.000381
H15   H     H_    0.595881 0.606262 0.641351 0.088896
H16   H     H_    0.851070 0.875811 0.277791 0.218142
H17   H     H_    0.727548 0.957374 0.307494 0.175990
H18   H     H_    0.737167 0.774195 0.710660 0.154468
H19   H     H_    0.862285 0.676195 0.713325 0.083032
H20   H     H_    0.648245 0.698104 0.787962 0.213146
H21   H     H_    0.668933 0.591432 0.754784 0.217820
H22   H     H_    0.437062 0.943071 0.282120 0.165576
H23   H     H_    0.425310 0.149030 0.299200 0.097444
H24   H     H_    0.394291 0.884922 0.216384 0.172722
H25   H     H_    0.313358 0.255949 0.379673 0.194155
H26   H     H_    0.385536 0.367210 0.395028 0.176566
H27   H     H_    0.631178 0.408286 0.360957 0.210559
H28   H     H_    0.729611 0.336314 0.310411 0.187846
H29   H     H_    0.294232 0.270877 0.254376 0.200576
H30   H     H_    0.469001 0.312973 0.228276 0.230843
H31   H     H_    0.610492 0.186707 0.268803 0.098179
H32   H     H_    0.687093 0.868864 0.160324 0.197058
H33   H     H_    0.756350 0.775141 0.190023 0.213501
H34   H     H_    0.206672 0.219381 0.774269 0.158817
H35   H     H_    0.206413 0.722439 0.220062 0.086660
H36   H     H_    0.093464 0.312719 0.698493 0.058613
H37   H     H_    0.935523 0.224860 0.684150 -0.079260
H38   H     H_    0.002616 0.246691 0.789836 0.075111
H39   H     H_    0.118041 0.066382 0.734009 0.196494
H40   H     H_    0.925693 0.092442 0.745485 0.180781
H41   H     H_    0.670754 0.220875 0.672500 -0.113429
H42   H     H_    0.482816 0.198348 0.635787 0.066413
H43   H     H_    0.703877 0.056578 0.676835 0.168039
H44   H     H_    0.526423 0.028133 0.644498 0.152055
H45   H     H_    0.746956 0.615669 0.978056 0.119508
H46   H     H_    0.382590 0.111972 0.718743 0.122892
H47   H     H_    0.040308 0.674735 0.311048 0.100025
H48   H     H_    0.508315 0.190476 0.798834 0.198746
H49   H     H_    0.693419 0.172553 0.772358 0.168384
H50   H     H_    0.604544 0.394288 0.002654 0.167322
H51   H     H_    0.504208 0.289656 0.005120 0.184058
H52   H     H_    0.545792 0.392385 0.903811 0.183704
H53   H     H_    0.442866 0.288590 0.906437 0.165837
H54   H     H_    0.794016 0.706842 0.081271 0.171195
H55   H     H_    0.670861 0.612591 0.084357 0.172525
H56   H     H_    0.366315 0.536319 0.377118 0.074724
H57   H     H_    0.430085 0.632711 0.160951 0.161792
H58   H     H_    0.549670 0.538935 0.161555 0.233793
H59   H     H_    0.174117 0.540458 0.748987 0.130471
H60   H     H_    0.746146 0.392890 0.800538 0.092024
H61   H     H_    0.039647 0.429639 0.241757 0.109518
H62   H     H_    0.238695 0.726093 0.323219 -0.086597
H63   H     H_    0.843751 0.457425 0.617155 0.072181
H64   H     H_    0.325716 0.697193 0.473962 0.081489
H65   H     H_    0.079970 0.988593 0.466182 0.191450
H66   H     H_    0.150770 0.977618 0.395893 0.182621
H67   H     H_    0.951123 0.022460 0.583717 0.061502
H68   H     H_    0.760756 0.893129 0.560018 0.108164
H69   H     H_    0.478713 0.029595 0.379115 0.164572
H70   H     H_    0.360884 0.112099 0.413684 0.194728
H71   H     H_    0.999922 0.751803 0.226061 0.158888
H72   H     H_    0.229437 0.691424 0.739748 0.144632
H73   H     H_    0.387528 0.761094 0.727502 0.164760
H74   H     H_    0.400546 0.841673 0.636173 0.153332
H75   H     H_    0.252419 0.821470 0.587453 0.120235
H76   H     H_    0.844434 0.296532 0.537196 0.056926
H77   H     H_    0.150708 0.840396 0.244536 0.110280
N1    N     N_R   0.003223 0.483748 0.846252 -0.432565
N2    N     N_3   0.618004 0.360430 0.324242 -0.495634
N3    N     N_3   0.408142 0.252400 0.239500 -0.473409
N4    N     N_3   0.656502 0.816471 0.187950 -0.485451
N5    N     N_3   0.041251 0.105909 0.761596 -0.497652
N6    N     N_3   0.582989 0.042825 0.685143 -0.493984
N7    N     N_3   0.578767 0.142275 0.774454 -0.464656
N8    N     N_3   0.506324 0.360181 0.020657 -0.436033
N9    N     N_3   0.433278 0.359187 0.899387 -0.438945
N10   N     N_3   0.788302 0.637229 0.091578 -0.436885
N11   N     N_3   0.497189 0.592809 0.187592 -0.474295
N12   N     N_R   0.199467 0.495682 0.149178 -0.438566
N13   N     N_3   0.181870 0.993693 0.439944 -0.513334
N14   N     N_3   0.473172 0.083454 0.412759 -0.477373
N15   N     N_3   0.305861 0.712684 0.706905 -0.434630
N16   N     N_3   0.320693 0.789788 0.618114 -0.470465
N17   N     N_3   0.542106 0.824034 0.347886 -0.543487
N18   N     N_3   0.037379 0.826880 0.744827 -0.511809
N19   N     N_3   0.051654 0.235328 0.447673 -0.532124
N20   N     N_3   0.757536 0.918420 0.268436 -0.480822
N21   N     N_3   0.631466 0.658262 0.747880 -0.478855
N22   N     N_3   0.484154 0.921700 0.240852 -0.475975
N23   N     N_3   0.369334 0.312854 0.362173 -0.483195
O1    O     O_2   0.901900 0.448470 0.362340 -0.477533
O2    O     O_2   0.247973 0.164650 0.548054 -0.474918
O3    O     O_3   0.164407 0.187197 0.657766 -0.612531
O4    O     O_3   0.142240 0.449440 0.433360 -0.498273
O5    O     O_3   0.549340 0.612930 0.525560 -0.485158
O6    O     O_2   0.396530 0.270940 0.479440 -0.476038
O7    O     O_3   0.601389 0.233572 0.384053 -0.663267
O8    O     O_2   0.466744 0.473996 0.709173 -0.442789
O9    O     O_3   0.473222 0.291231 0.709735 -0.577893
O10   O     O_2   0.787016 0.566723 0.873216 -0.602112
O11   O     O_2   0.226406 0.404650 0.824997 -0.561604
O12   O     O_3   0.630343 0.739056 0.614620 -0.634571
O13   O     O_2   0.396081 0.396568 0.125027 -0.565096
O14   O     O_2   0.983154 0.581903 0.168538 -0.563550
O15   O     O_3   0.645560 0.619080 0.391970 -0.482607
O16   O     O_2   0.763226 0.543855 0.292051 -0.429799
O17   O     O_3   0.063040 0.298964 0.355828 -0.639285
O18   O     O_3   0.701779 0.719083 0.290189 -0.585276
O19   O     O_2   0.793170 0.729090 0.520590 -0.449068
O20   O     O_3   0.052800 0.667320 0.419180 -0.482992
O21   O     O_2   0.916737 0.829439 0.448592 -0.480859
O22   O     O_3   0.051124 0.813308 0.345579 -0.609649
O23   O     O_2   0.287790 0.551560 0.637690 -0.441218
O24   O     O_3   0.047460 0.550640 0.566640 -0.470134
O25   O     O_3   0.544140 0.380990 0.608030 -0.478868
O26   O     O_3   0.091265 0.702090 0.636490 -0.626727
O27   O     O_3   0.640350 0.387150 0.474440 -0.488498
O28   O     O_3   0.136890 0.332750 0.580830 -0.480480
P1    P     P_3+3 0.074990 0.420800 0.372080 0.974130
P2    P     P_3+3 0.618830 0.715330 0.538180 1.015868
P3    P     P_3+3 0.067570 0.787587 0.418847 0.968370
P4    P     P_3+3 0.114710 0.579280 0.627920 1.027334
P5    P     P_3+3 0.114981 0.211445 0.586372 0.951309
P6    P     P_3+3 0.633123 0.611955 0.314885 1.012151
P7    P     P_3+3 0.578228 0.270184 0.460171 0.928214
P8    P     P_3+3 0.566141 0.390703 0.684174 0.999749

loop_
_geom_bond_atom_site_label_1
_geom_bond_atom_site_label_2
_ccdc_geom_bond_type
C34   H31   S    
C42   C47   A    
C3    N1    Am   
C19   C24   D    
C49   N19   S    
H27   N2    S    
H75   N16   S    
O3    P5    S    
Ba2   O4    S    
H32   N4    S    
H22   N22   S    
C5    C6    A    
C30   N12   S    
C43   C44   A    
C54   C55   S    
H66   N13   S    
H57   N11   S    
Ba1   O15   S    
C22   H59   S    
C53   H34   S    
O19   P2    D    
C55   N7    S    
C11   C15   A    
H9    N19   S    
C1    N22   S    
C8    H45   S    
C33   C35   A    
C35   C36   A    
C22   C24   S    
O22   P3    S    
C52   N21   S    
C36   C37   A    
C28   N15   S    
H55   N10   S    
C13   C14   A    
O25   P8    S    
H54   N10   S    
Ba1   Ba2   S    
Ba2   O24   S    
C3    O10   D    
O1    P1    D    
O28   P5    S    
C55   H46   S    
C7    C11   A    
C46   P5    S    
C12   O18   S    
C50   H11   S    
H28   N2    S    
H21   N21   S    
Ba1   O19   S    
C4    H47   S    
C6    C7    A    
C21   C31   D    
Ba1   O20   S    
C37   N13   S    
H72   N15   S    
C21   C22   D    
H44   N6    S    
H39   N5    S    
C50   H10   S    
C52   H19   S    
C43   P7    S    
C19   C20   S    
C31   H63   S    
C12   H12   S    
C32   C39   A    
H43   N6    S    
C28   C40   S    
C26   P6    S    
C4    H62   S    
H48   N7    S    
Ba1   P1    S    
C49   H7    S    
C4    C16   S    
C44   C46   A    
C49   C50   S    
O8    P8    D    
Ba1   O1    S    
C14   N8    S    
C32   C42   A    
H5    N18   S    
Ba2   O6    S    
C37   C38   A    
H8    N19   S    
O20   P3    S    
H26   N23   S    
O6    P7    D    
C14   C15   A    
H2    N17   S    
C23   O7    S    
C51   C52   S    
C17   N12   Am   
C53   N5    S    
C13   N9    S    
H40   N5    S    
O5    P2    S    
Ba2   O23   S    
C40   H1    S    
C23   N2    S    
C41   C42   A    
Ba2   O28   S    
C19   H60   S    
C44   H76   S    
O23   P4    D    
H74   N16   S    
C29   C30   A    
O21   P3    D    
C34   H23   S    
C32   H68   S    
C36   P3    S    
C29   H61   S    
C10   C18   A    
C1    N20   S    
C18   N12   Am   
C16   H77   S    
H51   N8    S    
C10   C11   A    
H49   N7    S    
C49   O17   S    
C41   C43   A    
H30   N3    S    
C1    C12   S    
C51   O12   S    
H33   N4    S    
H53   N9    S    
C38   C39   A    
C18   O14   D    
O12   P2    S    
Ba1   O4    S    
C6    C13   A    
C26   C56   A    
C5    O11   D    
O9    P8    S    
C52   H18   S    
C1    N4    S    
C54   H42   S    
H29   N3    S    
C2    C8    A    
C24   N1    S    
C40   H6    S    
C25   C26   A    
C27   P1    S    
C27   C56   A    
C45   C53   S    
Ba1   P2    S    
H24   N22   S    
C20   C31   S    
C46   C47   A    
C4    O22   S    
C25   C30   A    
C28   O26   S    
C51   H15   S    
Ba2   P4    S    
O2    P5    D    
C17   O13   D    
C53   H38   S    
C16   H71   S    
O7    P7    S    
Ba2   O5    S    
Ba1   O24   S    
C41   C48   A    
Ba1   O27   S    
C47   H67   S    
O15   P6    S    
H4    N18   S    
C55   N6    S    
C9    N10   S    
Ba2   O27   S    
C5    N1    Am   
C27   C29   A    
C50   H13   S    
H69   N14   S    
H58   N11   S    
C48   N14   S    
H20   N21   S    
C28   N16   S    
O4    P1    S    
H25   N23   S    
C25   N11   S    
C38   C48   A    
C54   O9    S    
C15   C17   A    
C45   H36   S    
H16   N20   S    
O26   P4    S    
Ba2   O25   S    
C21   P4    S    
C40   N18   S    
C33   C39   A    
H3    N17   S    
O18   P6    S    
C8    C9    A    
C23   C34   S    
O17   P1    S    
C35   H64   S    
C45   O3    S    
H17   N20   S    
H70   N14   S    
C2    C3    A    
H65   N13   S    
Ba1   O5    S    
C33   P2    S    
C12   N17   S    
C23   N23   S    
C56   H56   S    
C16   H35   S    
C45   H37   S    
C20   P8    S    
H73   N15   S    
O27   P7    S    
O24   P4    S    
C54   H41   S    
C2    C7    A    
C51   H14   S    
C34   N3    S    
H50   N8    S    
H52   N9    S    
C9    C10   A    
O16   P6    D    
