data_mof_unit_32991.cif
_audit_creation_date              2012-10-26T19:27:15-0400
_audit_creation_method            fapswitch 2.2
_symmetry_space_group_name_H-M    P1
_symmetry_Int_Tables_number       1
_space_group_crystal_system       triclinic
_cell_length_a                    13.753106
_cell_length_b                    15.083312
_cell_length_c                    17.222144
_cell_angle_alpha                 88.744635
_cell_angle_beta                  87.50917
_cell_angle_gamma                 89.406581
_cell_volume                      3568.21238452

loop_
_atom_site_label
_atom_site_type_symbol
_atom_type_description
_atom_site_fract_x
_atom_site_fract_y
_atom_site_fract_z
_atom_type_partial_charge
C1    C     C_R   0.499670 0.671436 0.499641 0.557876
C2    C     C_R   0.410215 0.908102 0.499369 0.024923
C3    C     C_R   0.500546 0.046589 0.496249 0.005964
C4    C     C_R   0.499786 0.953623 0.496185 0.005692
C5    C     C_R   0.411608 0.094003 0.500061 -0.026687
C6    C     C_R   0.588680 0.906142 0.493893 -0.032197
C7    C     C_R   0.678727 0.043963 0.488478 0.275408
C8    C     C_R   0.321741 0.956136 0.501175 0.258563
C9    C     C_R   0.677180 0.951390 0.490583 -0.101158
C10   C     C_R   0.323134 0.048751 0.502773 -0.105584
C11   C     C_R   0.208083 0.556355 0.449956 0.364910
C12   C     C_R   0.500348 0.328570 0.500103 0.557482
C13   C     C_R   0.791920 0.443306 0.549756 0.357179
C14   C     C_R   0.204687 0.444041 0.549239 0.004309
C15   C     C_R   0.795333 0.555802 0.450633 0.000096
C16   C     C_R   0.488630 0.501481 0.650205 0.563181
C17   C     C_R   0.511462 0.497755 0.350053 0.556485
C18   C     C_R   0.102033 0.442803 0.550246 -0.025768
C19   C     C_R   0.897997 0.556746 0.449399 -0.024293
C20   C     C_R   0.051785 0.499932 0.499669 0.024491
C21   C     C_R   0.948234 0.499599 0.499981 0.023211
C22   C     C_R   0.104907 0.557217 0.448675 0.009889
C23   C     C_R   0.412327 0.186194 0.501395 -0.129708
C24   C     C_R   0.895117 0.442092 0.550793 0.005633
C25   C     C_R   0.048716 0.385613 0.600659 -0.141710
C26   C     C_R   0.951356 0.613350 0.398497 -0.150213
C27   C     C_R   0.946819 0.385127 0.601022 -0.104917
C28   C     C_R   0.053252 0.613432 0.397855 -0.115654
C29   C     C_R   0.486300 0.508320 0.734966 -0.023713
C30   C     C_R   0.514918 0.487243 0.266043 -0.014221
C31   C     C_R   0.574314 0.507344 0.773327 -0.117672
C32   C     C_R   0.595409 0.516568 0.220336 -0.140651
C33   C     C_R   0.574249 0.516625 0.853093 -0.161275
C34   C     C_R   0.587861 0.813860 0.495125 -0.136080
C35   C     C_R   0.597508 0.505895 0.140294 -0.173165
C36   C     C_R   0.486422 0.526941 0.895979 0.064753
C37   C     C_R   0.520484 0.463774 0.105854 0.061684
C38   C     C_R   0.397717 0.528826 0.858355 0.258366
C39   C     C_R   0.440546 0.432757 0.151536 0.262096
C40   C     C_R   0.397980 0.519305 0.777856 -0.104858
C41   C     C_R   0.437733 0.445244 0.231363 -0.081861
C42   C     C_2   0.489702 0.531460 0.981171 0.330976
C43   C     C_2   0.520586 0.459148 0.020641 0.314116
C44   C     C_3   0.608880 0.325202 0.014870 0.018509
C45   C     C_R   0.500722 0.231733 0.499374 -0.014748
C46   C     C_3   0.711506 0.357525 0.991152 -0.288398
C47   C     C_3   0.789184 0.298349 0.026748 -0.462110
C48   C     C_3   0.485355 0.685826 0.986945 0.022323
C49   C     C_3   0.592494 0.703089 0.002512 -0.298106
C50   C     C_3   0.624988 0.792796 0.968609 -0.466430
C51   C     C_3   0.793495 0.115153 0.410099 0.004189
C52   C     C_3   0.857694 0.045596 0.368754 -0.272540
C53   C     C_3   0.893153 0.079080 0.288273 -0.476858
C54   C     C_3   0.196011 0.910229 0.431611 0.005969
C55   C     C_3   0.099262 0.861149 0.436589 -0.243104
C56   C     C_R   0.499394 0.768316 0.498569 -0.016711
C57   C     C_3   0.055391 0.856253 0.356954 -0.489343
C58   C     C_R   0.589109 0.184695 0.495911 -0.107368
C59   C     C_R   0.411037 0.815441 0.500604 -0.101108
C60   C     C_R   0.590123 0.092108 0.493436 0.018321
Cl1   Cl    Cl    0.274356 0.628818 0.386094 -0.613750
Cl2   Cl    Cl    0.725606 0.370941 0.613635 -0.610193
Cl3   Cl    Cl    0.285618 0.540137 0.910644 -0.503668
Cl4   Cl    Cl    0.341783 0.380804 0.110037 -0.505800
Cu1   Cu    Cu3+1 0.402580 0.500010 0.500000 1.024309
Cu2   Cu    Cu3+1 0.597420 0.499990 0.500000 1.011167
H1    H     H_    0.643638 0.499573 0.741838 0.182729
H2    H     H_    0.329495 0.520701 0.749051 0.159697
H3    H     H_    0.658524 0.531343 0.105040 0.097451
H4    H     H_    0.642868 0.515269 0.881741 0.105427
H5    H     H_    0.343767 0.222397 0.504208 0.130123
H6    H     H_    0.656391 0.777587 0.493297 0.127092
H7    H     H_    0.657052 0.220448 0.494838 0.190904
H8    H     H_    0.342942 0.779792 0.503271 0.197386
H9    H     H_    0.745551 0.914912 0.489271 0.118786
H10   H     H_    0.254731 0.085123 0.506260 0.122444
H11   H     H_    0.600750 0.257633 0.991736 0.175613
H12   H     H_    0.655459 0.549170 0.246276 0.131531
H13   H     H_    0.598566 0.317249 0.079027 0.131885
H14   H     H_    0.721503 0.357251 0.926759 0.186690
H15   H     H_    0.721130 0.426462 0.010472 0.143673
H16   H     H_    0.781699 0.299256 0.091219 0.150723
H17   H     H_    0.862517 0.323082 0.008207 0.174882
H18   H     H_    0.782463 0.229119 0.007073 0.154831
H19   H     H_    0.440566 0.739544 0.013975 0.181044
H20   H     H_    0.472056 0.690353 0.923732 0.137756
H21   H     H_    0.602282 0.701724 0.066257 0.179097
H22   H     H_    0.639436 0.650436 0.976111 0.139910
H23   H     H_    0.243722 0.400213 0.587871 0.131677
H24   H     H_    0.617313 0.794946 0.904645 0.159444
H25   H     H_    0.702580 0.803361 0.980822 0.158625
H26   H     H_    0.580656 0.847044 0.995275 0.156267
H27   H     H_    0.835922 0.177076 0.413985 0.164471
H28   H     H_    0.729604 0.132434 0.374621 0.112186
H29   H     H_    0.921579 0.029757 0.404108 0.177641
H30   H     H_    0.815700 0.983889 0.362272 0.153321
H31   H     H_    0.830266 0.095564 0.252070 0.151293
H32   H     H_    0.937660 0.026847 0.258906 0.150197
H33   H     H_    0.938607 0.138977 0.293223 0.158678
H34   H     H_    0.756312 0.599645 0.412000 0.122303
H35   H     H_    0.247342 0.874422 0.391016 0.158399
H36   H     H_    0.182931 0.978667 0.408301 0.128699
H37   H     H_    0.110950 0.792791 0.460030 0.195388
H38   H     H_    0.047292 0.896218 0.476822 0.178073
H39   H     H_    0.043799 0.923936 0.332328 0.146672
H40   H     H_    0.984160 0.822233 0.362677 0.140269
H41   H     H_    0.104566 0.818621 0.316498 0.173215
H42   H     H_    0.085843 0.341056 0.639988 0.122254
H43   H     H_    0.914278 0.657542 0.358842 0.103042
H44   H     H_    0.909494 0.339595 0.641154 0.181369
H45   H     H_    0.090692 0.657926 0.356962 0.171465
H46   H     H_    0.375621 0.421392 0.266346 0.165877
N1    N     N_R   0.256180 0.500070 0.500030 -0.232325
N2    N     N_R   0.743820 0.499930 0.499970 -0.232518
O1    O     O_R   0.417720 0.629750 0.499980 -0.454358
O2    O     O_3   0.454020 0.604711 0.022066 -0.538013
O3    O     O_3   0.767645 0.086297 0.487001 -0.561603
O4    O     O_3   0.233548 0.912736 0.506523 -0.570176
O5    O     O_R   0.582280 0.370250 0.500020 -0.455641
O6    O     O_R   0.582260 0.629730 0.499990 -0.524364
O7    O     O_R   0.417740 0.370270 0.500010 -0.525180
O8    O     O_R   0.408190 0.500030 0.613590 -0.520165
O9    O     O_R   0.591810 0.499970 0.386410 -0.524156
O10   O     O_R   0.572730 0.500000 0.613600 -0.452633
O11   O     O_R   0.427270 0.500000 0.386400 -0.446576
O12   O     O_3   0.537359 0.380078 0.981041 -0.553242

loop_
_geom_bond_atom_site_label_1
_geom_bond_atom_site_label_2
_ccdc_geom_bond_type
C30   C32   A    
C34   C56   A    
C23   C45   A    
C49   H21   S    
C54   H35   S    
C36   C42   S    
C24   C27   A    
C15   H34   S    
C6    C9    A    
C8    O4    S    
C39   C41   A    
C53   H33   S    
C15   C19   A    
C39   Cl4   S    
C44   O12   S    
C44   H11   S    
C35   C37   A    
C1    C56   S    
C8    C10   A    
C58   C60   A    
C46   H15   S    
C55   H37   S    
C33   C36   A    
C52   H29   S    
C47   H16   S    
C19   C26   A    
C7    O3    S    
C16   O8    A    
C46   C47   S    
C10   H10   S    
C50   H24   S    
C12   O7    A    
C27   H44   S    
C44   C46   S    
C41   H46   S    
C25   H42   S    
C31   C33   A    
C30   C41   A    
Cu1   O7    S    
C18   C20   A    
C13   N2    A    
C48   O2    S    
C3    C60   A    
C57   H40   S    
Cu2   O6    S    
C17   C30   S    
Cu1   O1    S    
C49   H22   S    
C18   C25   A    
C43   O12   S    
C17   O9    A    
C28   H45   S    
C45   C58   A    
C57   H39   S    
C13   Cl2   S    
C51   C52   S    
C32   C35   A    
C23   H5    S    
C4    C6    A    
C2    C59   A    
C48   H20   S    
C53   H31   S    
C16   C29   S    
Cu1   O8    S    
C55   H38   S    
C6    C34   A    
C13   C24   A    
C1    O6    A    
Cu1   O11   S    
C37   C43   S    
C2    C4    A    
C14   H23   S    
C11   Cl1   S    
C12   O5    A    
C5    C23   A    
C15   N2    A    
C47   H18   S    
C59   H8    S    
C46   H14   S    
C33   H4    S    
C51   H27   S    
C50   H26   S    
C48   C49   S    
C57   H41   S    
C20   C22   A    
Cu1   Cu2   S    
C47   H17   S    
Cu2   O5    S    
C55   C57   S    
Cu2   O10   S    
C42   C43   D    
C3    C4    A    
C34   H6    S    
C7    C60   A    
C52   C53   S    
C38   Cl3   S    
C42   O2    S    
C7    C9    A    
C54   C55   S    
Cu2   N2    S    
C19   C21   A    
Cu2   O9    S    
Cu1   N1    S    
C14   C18   A    
C54   H36   S    
C44   H13   S    
C2    C8    A    
C12   C45   S    
C3    C5    A    
C53   H32   S    
C25   C27   A    
C14   N1    A    
C1    O1    A    
C11   C22   A    
C26   C28   A    
C56   C59   A    
C54   O4    S    
C16   O10   A    
C5    C10   A    
C29   C31   A    
C38   C40   A    
C17   O11   A    
C29   C40   A    
C36   C38   A    
C51   O3    S    
C52   H30   S    
C26   H43   S    
C11   N1    A    
C31   H1    S    
C51   H28   S    
C32   H12   S    
C50   H25   S    
C20   C21   A    
C35   H3    S    
C37   C39   A    
C49   C50   S    
C40   H2    S    
C21   C24   A    
C48   H19   S    
C22   C28   A    
C9    H9    S    
C58   H7    S    
