data_mof_unit_66682.cif
_audit_creation_date              2012-12-11T17:48:42-0500
_audit_creation_method            fapswitch 2.2
_symmetry_space_group_name_H-M    P1
_symmetry_Int_Tables_number       1
_space_group_crystal_system       triclinic
_cell_length_a                    8.228347
_cell_length_b                    12.646301
_cell_length_c                    14.989199
_cell_angle_alpha                 96.394895
_cell_angle_beta                  97.755371
_cell_angle_gamma                 98.717969
_cell_volume                      1513.72321995

loop_
_atom_site_label
_atom_site_type_symbol
_atom_type_description
_atom_site_fract_x
_atom_site_fract_y
_atom_site_fract_z
_atom_type_partial_charge
Ba1   Ba    Ba6+2 0.843750 0.550210 0.455600 1.659918
Ba2   Ba    Ba6+2 0.346090 0.449880 0.544410 1.658993
C1    C     C_3   0.725188 0.930967 0.169693 -0.361511
C2    C     C_R   0.897297 0.428786 0.918519 -0.032853
C3    C     C_R   0.035496 0.442470 0.105911 -0.045609
C4    C     C_3   0.056258 0.755199 0.206874 0.391614
C5    C     C_R   0.878726 0.377396 0.070185 0.414549
C6    C     C_R   0.810068 0.375739 0.979079 -0.163752
C7    C     C_R   0.104416 0.459528 0.200718 0.049836
C8    C     C_R   0.263068 0.520024 0.229070 -0.327042
C9    C     C_R   0.082452 0.529083 0.794637 0.020272
C10   C     C_R   0.152183 0.537265 0.888042 -0.033601
C11   C     C_R   0.059989 0.485366 0.949820 0.023727
C12   C     C_3   0.621643 0.839098 0.206831 0.262985
C13   C     C_R   0.311607 0.595024 0.921783 -0.016398
C14   C     C_R   0.381719 0.597285 0.011699 -0.018170
C15   C     C_R   0.291865 0.550631 0.074551 -0.009585
C16   C     C_3   0.022768 0.774853 0.107968 -0.304059
C17   C     C_R   0.128759 0.492945 0.043628 -0.067459
C18   C     C_R   0.359098 0.562947 0.167828 0.009483
C19   C     C_R   0.921763 0.471332 0.765887 -0.265827
C20   C     C_R   0.768619 0.182032 0.541554 -0.268397
C21   C     C_R   0.420396 0.808511 0.464015 -0.298198
C22   C     C_R   0.384677 0.988241 0.437731 -0.104932
C23   C     C_3   0.410335 0.279921 0.266753 0.338362
C24   C     C_R   0.320939 0.879139 0.429898 0.006089
C25   C     C_R   0.579264 0.847467 0.513377 0.074028
C26   C     C_R   0.644693 0.959674 0.524575 -0.053281
C27   C     C_R   0.546763 0.030023 0.483604 -0.073515
C28   C     C_3   0.267819 0.781564 0.652962 0.269237
C29   C     C_R   0.612487 0.140743 0.490629 0.047384
C30   C     C_R   0.868573 0.113903 0.579241 -0.024621
C31   C     C_R   0.805580 0.003725 0.573194 -0.093077
C32   C     C_3   0.286493 0.903336 0.673679 -0.338467
C33   C     C_3   0.940674 0.226638 0.361864 0.298007
C34   C     C_3   0.339878 0.238904 0.167644 -0.361889
C35   C     C_3   0.926404 0.104882 0.352395 -0.365248
C36   C     C_3   0.830639 0.721187 0.729224 0.256683
C37   C     C_3   0.905579 0.777231 0.824802 -0.211387
C38   C     C_2   0.794638 0.746046 0.891858 0.847550
C39   C     C_2   0.445178 0.849504 0.174051 0.775505
C40   C     C_3   0.120239 0.224530 0.797876 0.498886
C41   C     C_3   0.166721 0.198573 0.894070 0.233090
C42   C     C_3   0.608258 0.164882 0.756705 0.292641
C43   C     C_3   0.672270 0.087991 0.818764 -0.355191
C44   C     C_R   0.826262 0.425676 0.826907 0.055782
H1    H     H_    0.648254 0.850066 0.282382 -0.011121
H2    H     H_    0.934154 0.715481 0.690585 0.037141
H3    H     H_    0.763135 0.638582 0.730738 0.025110
H4    H     H_    0.684969 0.009729 0.186849 0.090667
H5    H     H_    0.027609 0.753129 0.846165 0.042848
H6    H     H_    0.927870 0.866347 0.825394 0.132663
H7    H     H_    0.710727 0.914816 0.094401 0.176089
H8    H     H_    0.310142 0.310035 0.299800 -0.005956
H9    H     H_    0.515338 0.347319 0.269717 0.070939
H10   H     H_    0.224537 0.178936 0.163269 0.135564
H11   H     H_    0.310094 0.306965 0.131260 0.041195
H12   H     H_    0.387920 0.933210 0.731414 0.129984
H13   H     H_    0.431838 0.199850 0.134021 0.132247
H14   H     H_    0.857925 0.939779 0.196210 0.162254
H15   H     H_    0.058045 0.709148 0.063061 0.111563
H16   H     H_    0.192678 0.304584 0.792571 -0.006149
H17   H     H_    0.985654 0.228854 0.786579 -0.141902
H18   H     H_    0.303423 0.201132 0.909093 0.079320
H19   H     H_    0.131329 0.260309 0.943299 -0.042132
H20   H     H_    0.713404 0.200946 0.724454 -0.045520
H21   H     H_    0.511720 0.118558 0.701553 0.079962
H22   H     H_    0.770688 0.133651 0.873267 0.150681
H23   H     H_    0.316819 0.941752 0.613899 0.073938
H24   H     H_    0.724724 0.025398 0.779110 0.114331
H25   H     H_    0.957216 0.689976 0.217444 0.087037
H26   H     H_    0.569751 0.048270 0.850960 0.145110
H27   H     H_    0.687494 0.329584 0.955962 0.088245
H28   H     H_    0.504473 0.642327 0.032605 0.126110
H29   H     H_    0.385438 0.639612 0.879740 0.135740
H30   H     H_    0.315693 0.530781 0.300316 0.069131
H31   H     H_    0.867038 0.466340 0.695434 0.061662
H32   H     H_    0.304515 0.038909 0.407577 0.117282
H33   H     H_    0.885558 0.954146 0.605025 0.096203
H34   H     H_    0.168638 0.925824 0.691840 0.143773
H35   H     H_    0.817672 0.267226 0.546523 0.057863
H36   H     H_    0.177980 0.727675 0.219506 -0.034924
H37   H     H_    0.369816 0.723348 0.456872 0.068710
H38   H     H_    0.889839 0.776029 0.086573 0.143347
H39   H     H_    0.092650 0.853707 0.098012 0.188851
H40   H     H_    0.384135 0.759828 0.633570 0.026542
H41   H     H_    0.163854 0.753736 0.595902 0.059663
H42   H     H_    0.720185 0.631494 0.968115 0.303605
H43   H     H_    0.449331 0.973997 0.270757 0.262620
H44   H     H_    0.116571 0.084667 0.966615 0.308717
H45   H     H_    0.830992 0.251736 0.387187 -0.009938
H46   H     H_    0.691771 0.269228 0.086458 0.285024
H47   H     H_    0.052443 0.259598 0.412331 0.088673
H48   H     H_    0.794476 0.066458 0.332467 0.080163
H49   H     H_    0.972416 0.080031 0.418169 0.110125
H50   H     H_    0.004672 0.077232 0.302720 0.147462
O1    O     O_2   0.827880 0.435260 0.277750 -0.408352
O2    O     O_2   0.204548 0.118238 0.566439 -0.492505
O3    O     O_3   0.157827 0.144314 0.734886 -0.581514
O4    O     O_3   0.100280 0.438960 0.391170 -0.520387
O5    O     O_3   0.587780 0.631850 0.546230 -0.474171
O6    O     O_2   0.332590 0.233690 0.456160 -0.478024
O7    O     O_3   0.466785 0.195125 0.308128 -0.636850
O8    O     O_2   0.488294 0.440715 0.824707 -0.481063
O9    O     O_3   0.535797 0.240426 0.807606 -0.606643
O10   O     O_3   0.625580 0.634130 0.333250 -0.478960
O11   O     O_2   0.679763 0.542568 0.177338 -0.475982
O12   O     O_3   0.720648 0.782935 0.689779 -0.642900
O13   O     O_3   0.952263 0.262018 0.277268 -0.581221
O14   O     O_3   0.663897 0.740985 0.169905 -0.617055
O15   O     O_2   0.857130 0.766340 0.543890 -0.490803
O16   O     O_3   0.056550 0.691050 0.379010 -0.502551
O17   O     O_2   0.978168 0.880226 0.428476 -0.485672
O18   O     O_2   0.715909 0.810551 0.925335 -0.604447
O19   O     O_R   0.785446 0.642643 0.916718 -0.791722
O20   O     O_2   0.374906 0.801142 0.101068 -0.606977
O21   O     O_R   0.370562 0.927707 0.218536 -0.740328
O22   O     O_3   0.083596 0.095921 0.902649 -0.720178
O23   O     O_3   0.057345 0.851003 0.264868 -0.586607
O24   O     O_3   0.794759 0.312269 0.122930 -0.692825
O25   O     O_2   0.361830 0.564780 0.722310 -0.446216
O26   O     O_3   0.089430 0.561130 0.608830 -0.508048
O27   O     O_3   0.564130 0.365960 0.666760 -0.464647
O28   O     O_3   0.237809 0.737338 0.731691 -0.632263
O29   O     O_3   0.601940 0.368240 0.453770 -0.480948
O30   O     O_3   0.133170 0.309040 0.621000 -0.487387
P1    P     P_3+3 0.998730 0.403530 0.291970 1.042731
P2    P     P_3+3 0.687380 0.751030 0.571310 0.975146
P3    P     P_3+3 0.104013 0.828273 0.377691 0.962383
P4    P     P_3+3 0.190990 0.596560 0.708040 0.968402
P5    P     P_3+3 0.089008 0.170086 0.624887 0.947193
P6    P     P_3+3 0.577217 0.625406 0.214326 0.925098
P7    P     P_3+3 0.507482 0.232774 0.425967 0.937300
P8    P     P_3+3 0.604765 0.370408 0.783547 0.977939

loop_
_geom_bond_atom_site_label_1
_geom_bond_atom_site_label_2
_ccdc_geom_bond_type
C37   H5    S    
C4    H36   S    
O4    P1    S    
C13   H29   S    
Ba1   P2    S    
O25   P4    D    
C2    C6    A    
C34   H13   S    
C15   C18   A    
C5    C6    A    
C36   H3    S    
C2    C44   A    
Ba2   O27   S    
O10   P6    S    
C7    P1    S    
C20   C30   A    
C14   H28   S    
H44   O22   S    
C26   C27   A    
C33   C35   S    
C22   C24   A    
Ba1   O16   S    
C36   C37   S    
C38   O19   S    
Ba2   O6    S    
C13   C14   A    
O15   P2    D    
O5    P2    S    
C35   H49   S    
Ba1   Ba2   S    
C21   C24   A    
C2    C11   A    
C22   C27   A    
C32   H34   S    
Ba1   O26   S    
C8    H30   S    
O13   P1    S    
C38   O18   D    
C8    C18   A    
C14   C15   A    
O2    P5    D    
C16   H38   S    
O14   P6    S    
C21   C25   A    
O16   P3    S    
C28   H40   S    
C7    C8    A    
C40   H16   S    
C36   H2    S    
C33   O13   S    
C29   P7    S    
Ba1   O10   S    
C1    H14   S    
C33   H47   S    
C37   H6    S    
Ba2   O4    S    
C43   H26   S    
C36   O12   S    
C18   P6    S    
Ba1   O4    S    
C1    H4    S    
C41   H18   S    
Ba2   O26   S    
C4    H25   S    
C4    C16   S    
C16   H39   S    
C20   C29   A    
C11   C17   A    
O27   P8    S    
C20   H35   S    
C23   H9    S    
C23   H8    S    
C34   H11   S    
Ba1   O1    S    
C37   C38   S    
C3    C5    A    
C28   C32   S    
C31   H33   S    
C41   O22   S    
Ba2   O5    S    
C42   O9    S    
C9    C19   A    
C35   H50   S    
C3    C7    A    
C34   H10   S    
O23   P3    S    
C44   P8    S    
C25   P2    S    
O8    P8    D    
C10   C13   A    
C41   H19   S    
C43   H22   S    
O28   P4    S    
O12   P2    S    
C24   P3    S    
C32   H23   S    
C42   H20   S    
C1    C12   S    
C21   H37   S    
C12   C39   S    
Ba2   O30   S    
C22   H32   S    
C28   O28   S    
C26   C31   A    
C40   C41   S    
C39   O20   D    
C9    P4    S    
Ba1   O5    S    
C4    O23   S    
Ba2   P4    S    
C42   C43   S    
C19   C44   A    
Ba2   O25   S    
O29   P7    S    
O1    P1    D    
C12   O14   S    
C43   H24   S    
C5    O24   S    
C23   O7    S    
Ba1   P1    S    
H43   O21   S    
O11   P6    D    
C9    C10   A    
C16   H15   S    
C12   H1    S    
C3    C17   A    
O3    P5    S    
Ba1   O29   S    
C30   C31   A    
H42   O19   S    
O7    P7    S    
O6    P7    D    
C27   C29   A    
C40   O3    S    
Ba1   O15   S    
C1    H7    S    
O30   P5    S    
C6    H27   S    
C15   C17   A    
C35   H48   S    
H46   O24   S    
C23   C34   S    
Ba2   O29   S    
C10   C11   A    
C19   H31   S    
C25   C26   A    
C32   H12   S    
C42   H21   S    
C39   O21   S    
C28   H41   S    
O17   P3    D    
C40   H17   S    
O26   P4    S    
C30   P5    S    
O9    P8    S    
C33   H45   S    
