data_mof_unit_19655.cif
_audit_creation_date              2013-03-05T15:48:37-0500
_audit_creation_method            fapswitch 2.2
_symmetry_space_group_name_H-M    P1
_symmetry_Int_Tables_number       1
_space_group_crystal_system       triclinic
_cell_length_a                    16.685715
_cell_length_b                    16.682353
_cell_length_c                    42.319695
_cell_angle_alpha                 90.16473
_cell_angle_beta                  89.854471
_cell_angle_gamma                 120.016018
_cell_volume                      10200.0669193

loop_
_atom_site_label
_atom_site_type_symbol
_atom_site_description
_atom_site_fract_x
_atom_site_fract_y
_atom_site_fract_z
_atom_type_partial_charge
O1    O     O_R   0.509640 0.171340 0.784000 -0.440945
O2    O     O_R   0.661700 0.490360 0.716000 -0.449082
O3    O     O_R   0.828660 0.338300 0.784000 -0.440331
O4    O     O_R   0.509640 0.171340 0.716000 -0.452207
O5    O     O_R   0.661700 0.490360 0.784000 -0.455204
O6    O     O_R   0.828660 0.338300 0.716000 -0.452323
O7    O     O_R   0.171340 0.509640 0.284000 -0.433480
O8    O     O_R   0.490360 0.661700 0.216000 -0.453874
O9    O     O_R   0.338300 0.828660 0.284000 -0.436181
O10   O     O_R   0.171340 0.509640 0.216000 -0.442458
O11   O     O_R   0.490360 0.661700 0.284000 -0.430325
O12   O     O_R   0.338300 0.828660 0.216000 -0.439306
O13   O     O_R   0.539230 0.345420 0.781810 -0.449596
O14   O     O_R   0.806190 0.460770 0.718190 -0.476401
O15   O     O_R   0.654580 0.193810 0.781810 -0.471819
O16   O     O_R   0.539230 0.345420 0.718190 -0.480368
O17   O     O_R   0.806190 0.460770 0.781810 -0.474488
O18   O     O_R   0.654580 0.193810 0.718190 -0.480533
O19   O     O_R   0.345420 0.539230 0.281810 -0.469502
O20   O     O_R   0.460770 0.806190 0.218190 -0.478915
O21   O     O_R   0.193810 0.654580 0.281810 -0.470292
O22   O     O_R   0.345420 0.539230 0.218190 -0.455005
O23   O     O_R   0.460770 0.806190 0.281810 -0.464454
O24   O     O_R   0.193810 0.654580 0.218190 -0.476244
C1    C     C_R   0.581416 0.427227 0.793928 0.588838
C2    C     C_R   0.844294 0.417361 0.705417 0.572336
C3    C     C_R   0.573132 0.155926 0.794125 0.610679
C4    C     C_R   0.582649 0.426785 0.705388 0.571873
C5    C     C_R   0.845519 0.418609 0.794153 0.573454
C6    C     C_R   0.573281 0.155899 0.705329 0.573857
C7    C     C_R   0.427036 0.582557 0.294467 0.563392
C8    C     C_R   0.418577 0.845546 0.205840 0.570511
C9    C     C_R   0.155217 0.572865 0.294435 0.565348
C10   C     C_R   0.427143 0.581383 0.205999 0.585491
C11   C     C_R   0.417407 0.844561 0.294467 0.564503
C12   C     C_R   0.156023 0.573183 0.205826 0.607197
Cr1   Cr    Cr6+3 0.530290 0.262330 0.750000 1.183706
Cr2   Cr    Cr6+3 0.732040 0.469710 0.750000 1.174936
Cr3   Cr    Cr6+3 0.737670 0.267960 0.750000 1.169027
Cr4   Cr    Cr6+3 0.262330 0.530290 0.250000 1.195460
Cr5   Cr    Cr6+3 0.469710 0.732040 0.250000 1.188190
Cr6   Cr    Cr6+3 0.267960 0.737670 0.250000 1.181802
O25   O     O_3   0.666667 0.333333 0.750000 -0.302278
O26   O     O_3   0.333333 0.666667 0.250000 -0.306296
C13   C     C_R   0.899989 0.457465 0.823856 -0.040222
C14   C     C_R   0.556466 0.104756 0.674624 -0.044473
C15   C     C_R   0.541673 0.445339 0.822702 -0.040715
C16   C     C_R   0.896286 0.451853 0.674940 -0.045635
C17   C     C_R   0.557616 0.106150 0.824201 -0.054864
C18   C     C_R   0.548246 0.443935 0.674858 -0.045615
C19   C     C_R   0.457131 0.906597 0.322686 -0.068936
C20   C     C_R   0.106526 0.557857 0.175661 -0.051756
C21   C     C_R   0.448888 0.542948 0.322757 -0.069564
C22   C     C_R   0.457396 0.900174 0.176141 -0.039902
C23   C     C_R   0.093247 0.550754 0.322707 -0.069318
C24   C     C_R   0.444131 0.542384 0.176726 -0.040004
C25   C     C_R   0.972463 0.558890 0.035994 0.036895
C26   C     C_R   0.582639 0.120293 0.458450 0.042644
C27   C     C_R   0.452701 0.446371 0.031536 0.049369
C28   C     C_R   0.882292 0.462646 0.459223 0.042738
C29   C     C_R   0.561722 0.995394 0.029535 0.044592
C30   C     C_R   0.535395 0.418230 0.458756 0.042662
C31   C     C_R   0.593761 0.147265 0.524460 0.046051
C32   C     C_R   0.996287 0.561752 0.970262 0.047504
C33   C     C_R   0.552227 0.407600 0.524689 0.044743
C34   C     C_R   0.557698 0.970716 0.963810 0.035454
C35   C     C_R   0.854603 0.444905 0.525151 0.045537
C36   C     C_R   0.438130 0.460362 0.966129 0.047972
C37   C     C_R   0.970504 0.561005 0.068996 0.467141
C38   C     C_R   0.577283 0.098583 0.426103 0.472720
C39   C     C_R   0.458669 0.441703 0.064269 0.456839
C40   C     C_R   0.903899 0.479739 0.426915 0.473622
C41   C     C_R   0.563207 0.007686 0.062267 0.459134
C42   C     C_R   0.518825 0.423241 0.426450 0.473386
C43   C     C_R   0.599007 0.153087 0.557637 0.479188
C44   C     C_R   0.007828 0.562669 0.937512 0.461019
C45   C     C_R   0.553275 0.402489 0.557854 0.478332
C46   C     C_R   0.559516 0.968609 0.930797 0.468507
C47   C     C_R   0.848622 0.443842 0.558320 0.479991
C48   C     C_R   0.434354 0.465233 0.933324 0.457073
O27   O     O_2   0.973160 0.626934 0.082711 -0.423811
O28   O     O_2   0.647653 0.131210 0.410063 -0.439416
O29   O     O_2   0.411390 0.368289 0.078023 -0.433555
O30   O     O_2   0.869000 0.515246 0.410974 -0.440038
O31   O     O_2   0.636816 0.043790 0.076493 -0.419801
O32   O     O_2   0.481753 0.352786 0.410419 -0.439523
O33   O     O_2   0.672115 0.208288 0.570130 -0.470732
O34   O     O_2   0.043477 0.636017 0.923141 -0.448113
O35   O     O_2   0.535943 0.329544 0.570293 -0.470453
O36   O     O_2   0.624623 0.969720 0.917039 -0.418384
O37   O     O_2   0.792205 0.459873 0.570967 -0.468697
O38   O     O_2   0.362002 0.415594 0.919297 -0.429706
N1    N     N_R   0.973428 0.492468 0.086080 -0.371740
N2    N     N_R   0.493067 0.037739 0.412658 -0.360304
N3    N     N_R   0.512917 0.521546 0.081227 -0.369028
N4    N     N_R   0.966919 0.459389 0.413385 -0.360525
N5    N     N_R   0.481084 0.974304 0.078659 -0.374159
N6    N     N_R   0.541379 0.507194 0.413025 -0.360250
N7    N     N_R   0.521006 0.098616 0.575901 -0.349337
N8    N     N_R   0.974138 0.480314 0.921242 -0.371425
N9    N     N_R   0.576492 0.480419 0.576166 -0.349237
N10   N     N_R   0.491731 0.973054 0.913751 -0.372759
N11   N     N_R   0.904652 0.422269 0.576418 -0.349540
N12   N     N_R   0.514370 0.520741 0.916648 -0.369752
C49   C     C_R   0.959447 0.412119 0.071595 0.491725
C50   C     C_R   0.411786 0.005135 0.429681 0.506730
C51   C     C_R   0.577354 0.601443 0.065965 0.501026
C52   C     C_R   0.002547 0.413497 0.430310 0.505428
C53   C     C_R   0.399210 0.946587 0.062548 0.489424
C54   C     C_R   0.589031 0.588614 0.430057 0.506038
C55   C     C_R   0.437015 0.074976 0.561839 0.496492
C56   C     C_R   0.946062 0.398479 0.937394 0.489501
C57   C     C_R   0.636003 0.564575 0.562004 0.494684
C58   C     C_R   0.412281 0.961191 0.928306 0.493674
C59   C     C_R   0.930720 0.363896 0.562140 0.495931
C60   C     C_R   0.592274 0.588113 0.932064 0.497755
O39   O     O_2   0.962182 0.352821 0.087639 -0.419921
O40   O     O_2   0.338672 0.950970 0.416975 -0.420990
O41   O     O_2   0.621526 0.672390 0.081273 -0.436796
O42   O     O_2   0.059216 0.397953 0.417616 -0.421556
O43   O     O_2   0.326524 0.912263 0.077272 -0.395468
O44   O     O_2   0.606949 0.661430 0.417398 -0.420650
O45   O     O_2   0.375278 0.073542 0.577703 -0.407838
O46   O     O_2   0.911943 0.325770 0.922664 -0.395912
O47   O     O_2   0.696341 0.626695 0.577699 -0.410199
O48   O     O_2   0.353643 0.965157 0.912270 -0.422567
O49   O     O_2   0.933666 0.304164 0.577740 -0.409531
O50   O     O_2   0.663597 0.633872 0.917096 -0.436246
C61   C     C_R   0.948322 0.401435 0.038237 0.001416
C62   C     C_R   0.413434 0.030391 0.461932 -0.003092
C63   C     C_R   0.588704 0.601952 0.032632 -0.003042
C64   C     C_R   0.977172 0.388623 0.462425 -0.002346
C65   C     C_R   0.399005 0.953982 0.029091 -0.012139
C66   C     C_R   0.612921 0.587413 0.462248 -0.001976
C67   C     C_R   0.425648 0.060711 0.528589 -0.023328
C68   C     C_R   0.952729 0.398331 0.970876 -0.012849
C69   C     C_R   0.632303 0.575718 0.528801 -0.022104
C70   C     C_R   0.401784 0.950625 0.961692 0.004883
C71   C     C_R   0.945658 0.367981 0.528931 -0.022035
C72   C     C_R   0.590647 0.600362 0.965273 -0.004129
C73   C     C_R   0.963138 0.479425 0.020496 -0.042611
C74   C     C_R   0.500564 0.082185 0.476724 -0.052477
C75   C     C_R   0.519605 0.526178 0.015511 -0.039597
C76   C     C_R   0.922631 0.420757 0.477323 -0.052247
C77   C     C_R   0.479517 0.970417 0.012672 -0.041497
C78   C     C_R   0.578770 0.500422 0.477010 -0.051811
C79   C     C_R   0.506411 0.095308 0.509930 -0.059542
C80   C     C_R   0.970209 0.479394 0.987200 -0.040076
C81   C     C_R   0.586630 0.494813 0.510176 -0.059258
C82   C     C_R   0.479147 0.963329 0.979368 -0.045103
C83   C     C_R   0.908982 0.412368 0.510476 -0.059270
C84   C     C_R   0.516253 0.529454 0.982297 -0.039891
C85   C     C_R   0.990590 0.637325 0.018396 -0.069663
C86   C     C_R   0.668517 0.176835 0.473121 -0.105009
C87   C     C_R   0.378281 0.375477 0.014861 -0.086818
C88   C     C_R   0.823341 0.488914 0.474004 -0.105215
C89   C     C_R   0.639287 0.003487 0.013645 -0.068211
C90   C     C_R   0.506994 0.332554 0.473397 -0.105048
C91   C     C_R   0.673928 0.190345 0.505688 -0.106894
C92   C     C_R   0.006202 0.640158 0.986106 -0.073454
C93   C     C_R   0.515548 0.327394 0.505924 -0.106732
C94   C     C_R   0.635694 0.987151 0.981372 -0.065821
C95   C     C_R   0.809503 0.479909 0.506541 -0.106760
C96   C     C_R   0.368643 0.384683 0.982725 -0.086947
C97   C     C_R   0.932059 0.319655 0.021946 0.020085
C98   C     C_R   0.331675 0.002130 0.480221 0.016103
C99   C     C_R   0.661392 0.677206 0.015739 0.022198
C100  C     C_R   0.007678 0.336794 0.480466 0.016391
C101  C     C_R   0.320292 0.940180 0.011610 0.005496
C102  C     C_R   0.665647 0.669434 0.480502 0.016937
C103  C     C_R   0.337742 0.016304 0.513413 0.017018
C104  C     C_R   0.936910 0.319077 0.988461 0.007399
C105  C     C_R   0.674419 0.663603 0.513642 0.017771
C106  C     C_R   0.321041 0.936929 0.978073 0.022216
C107  C     C_R   0.992889 0.327453 0.513606 0.017416
C108  C     C_R   0.662963 0.675790 0.982166 0.020134
C109  C     C_R   0.965675 0.474248 0.144307 0.237271
C110  C     C_R   0.459986 0.029541 0.355475 0.217514
C111  C     C_R   0.555165 0.546814 0.138080 0.232400
C112  C     C_R   0.974163 0.430773 0.356513 0.216564
C113  C     C_R   0.444985 0.994051 0.134222 0.241660
C114  C     C_R   0.568346 0.541166 0.355972 0.218337
C115  C     C_R   0.451798 0.031968 0.630180 0.236519
C116  C     C_R   0.994170 0.445100 0.865635 0.241690
C117  C     C_R   0.579716 0.549163 0.630678 0.236448
C118  C     C_R   0.472776 0.965434 0.855498 0.236812
C119  C     C_R   0.970710 0.420482 0.630800 0.237524
C120  C     C_R   0.541355 0.558189 0.859469 0.232474
C121  C     C_R   0.010960 0.493642 0.173693 0.120998
C122  C     C_R   0.444365 0.984064 0.326126 0.146753
C123  C     C_R   0.534080 0.560054 0.169187 0.129989
C124  C     C_R   0.018640 0.459133 0.327010 0.153642
C125  C     C_R   0.429985 0.963514 0.165826 0.173208
C126  C     C_R   0.539488 0.557032 0.326562 0.152205
C127  C     C_R   0.465763 0.049688 0.662913 0.161185
C128  C     C_R   0.963900 0.430664 0.834009 0.171884
C129  C     C_R   0.583880 0.534816 0.663330 0.159861
C130  C     C_R   0.492122 0.010922 0.826141 0.120973
C131  C     C_R   0.951873 0.416446 0.663444 0.159658
C132  C     C_R   0.556445 0.535007 0.828903 0.127017
C133  C     C_R   0.156535 0.605159 0.148257 0.008911
C134  C     C_R   0.496986 0.883097 0.348168 -0.028371
C135  C     C_R   0.373003 0.499075 0.153811 -0.014878
C136  C     C_R   0.114490 0.616188 0.347534 -0.033354
C137  C     C_R   0.511609 0.878984 0.155426 -0.051880
C138  C     C_R   0.384457 0.501776 0.347990 -0.033372
C139  C     C_R   0.630068 0.113478 0.655247 -0.037330
C140  C     C_R   0.877870 0.510650 0.844755 -0.052604
C141  C     C_R   0.483072 0.370559 0.655505 -0.037245
C142  C     C_R   0.605700 0.155727 0.851568 0.005963
C143  C     C_R   0.887972 0.516722 0.655570 -0.036969
C144  C     C_R   0.500205 0.376286 0.846340 -0.014716
C145  C     C_R   0.111886 0.581696 0.118717 0.046854
C146  C     C_R   0.511919 0.928798 0.377731 0.036669
C147  C     C_R   0.398098 0.502854 0.121866 0.039021
C148  C     C_R   0.070170 0.586609 0.377346 0.034416
C149  C     C_R   0.512065 0.896520 0.122880 0.051757
C150  C     C_R   0.414309 0.486767 0.377645 0.033170
C151  C     C_R   0.613935 0.093508 0.622429 0.039259
C152  C     C_R   0.895179 0.510391 0.877284 0.052484
C153  C     C_R   0.478861 0.387094 0.622775 0.039329
C154  C     C_R   0.582248 0.110996 0.881070 0.046429
C155  C     C_R   0.908655 0.520497 0.622825 0.039037
C156  C     C_R   0.502437 0.404218 0.877857 0.039394
C157  C     C_R   0.016552 0.516423 0.116809 0.148882
C158  C     C_R   0.489659 0.999482 0.381569 0.149897
C159  C     C_R   0.489443 0.525183 0.113955 0.161252
C160  C     C_R   0.002720 0.492877 0.382008 0.148646
C161  C     C_R   0.478958 0.954845 0.112142 0.169549
C162  C     C_R   0.507419 0.510206 0.381817 0.148949
C163  C     C_R   0.528687 0.077491 0.609400 0.149056
C164  C     C_R   0.954281 0.478028 0.887819 0.171209
C165  C     C_R   0.548029 0.472488 0.609757 0.149950
C166  C     C_R   0.516112 0.015928 0.882985 0.147581
C167  C     C_R   0.925465 0.451531 0.609897 0.149370
C168  C     C_R   0.520996 0.495211 0.884438 0.158561
H1    H     H_    0.023109 0.702996 0.973412 0.197664
H2    H     H_    0.741551 0.231483 0.516294 0.160043
H3    H     H_    0.309186 0.329968 0.970609 0.197776
H4    H     H_    0.766394 0.504029 0.517257 0.160044
H5    H     H_    0.695793 0.991490 0.969938 0.207743
H6    H     H_    0.489779 0.259906 0.516518 0.160128
H7    H     H_    0.732259 0.208544 0.459593 0.177401
H8    H     H_    0.996690 0.698243 0.029802 0.206400
H9    H     H_    0.475371 0.268749 0.459885 0.176777
H10   H     H_    0.701908 0.019361 0.026307 0.207759
H11   H     H_    0.789925 0.519254 0.460599 0.176454
H12   H     H_    0.325053 0.314776 0.026888 0.196157
C169  C     C_2   0.932214 0.237521 0.972343 0.676143
O51   O     O_2   0.996606 0.247516 0.955692 -0.395767
O52   O     O_R   0.855204 0.149610 0.976610 -0.687082
H13   H     H_    0.861223 0.099960 0.964770 0.365680
C170  C     C_2   0.250770 0.981309 0.531842 0.669332
O53   O     O_2   0.227936 0.917652 0.550496 -0.382969
O54   O     O_R   0.194289 0.019985 0.527185 -0.653005
H14   H     H_    0.136638 0.989972 0.540857 0.363601
C171  C     C_2   0.738930 0.755618 0.965165 0.656640
O55   O     O_2   0.720840 0.800535 0.946669 -0.410387
O56   O     O_R   0.830905 0.779849 0.970729 -0.668064
H15   H     H_    0.876301 0.835456 0.957881 0.367938
C172  C     C_2   0.030297 0.277550 0.531847 0.670095
O57   O     O_2   0.093072 0.319673 0.550736 -0.382505
O58   O     O_R   0.994955 0.182932 0.526740 -0.650991
H16   H     H_    0.026443 0.156801 0.540307 0.364318
C173  C     C_2   0.236322 0.918153 0.960531 0.660484
O59   O     O_2   0.206592 0.971726 0.962653 -0.448995
O60   O     O_R   0.190881 0.838973 0.941645 -0.601434
H17   H     H_    0.134355 0.833798 0.930810 0.379199
C174  C     C_2   0.725403 0.750765 0.532058 0.668856
O61   O     O_2   0.683999 0.772360 0.551005 -0.382770
O62   O     O_R   0.820243 0.808845 0.527049 -0.651407
H18   H     H_    0.847154 0.866473 0.540740 0.364338
C175  C     C_2   0.238931 0.958697 0.465083 0.677887
O63   O     O_2   0.222463 0.001403 0.445141 -0.392875
O64   O     O_R   0.170568 0.869655 0.473960 -0.642018
H19   H     H_    0.110500 0.847699 0.462029 0.376708
C176  C     C_2   0.908503 0.233486 0.039443 0.660676
O65   O     O_2   0.838286 0.195903 0.055577 -0.408766
O66   O     O_R   0.966102 0.195199 0.037160 -0.641998
H20   H     H_    0.942247 0.136230 0.049917 0.365678
C177  C     C_2   0.713385 0.762265 0.465391 0.678966
O67   O     O_2   0.772882 0.779983 0.445351 -0.391387
O68   O     O_R   0.690870 0.829299 0.474414 -0.641296
H21   H     H_    0.728057 0.889592 0.462500 0.376354
C178  C     C_2   0.239236 0.936028 0.027911 0.671468
O69   O     O_2   0.250112 0.999726 0.045129 -0.397037
O70   O     O_R   0.150749 0.860368 0.023107 -0.683853
H22   H     H_    0.101487 0.866520 0.035148 0.367194
C179  C     C_2   0.053803 0.290220 0.465097 0.679175
O71   O     O_2   0.013063 0.231651 0.444695 -0.389994
O72   O     O_R   0.143069 0.312660 0.474300 -0.644813
H23   H     H_    0.166848 0.276189 0.462215 0.376237
C180  C     C_2   0.738129 0.756673 0.032635 0.654510
O73   O     O_2   0.787264 0.743553 0.050819 -0.407148
O74   O     O_R   0.754951 0.846426 0.027176 -0.686151
H24   H     H_    0.809152 0.894718 0.039896 0.359635
C181  C     C_2   0.839280 0.568370 0.833033 0.635119
O75   O     O_2   0.879270 0.624238 0.811863 -0.410160
O76   O     O_R   0.759903 0.561654 0.846765 -0.675571
H25   H     H_    0.745202 0.609345 0.838065 0.377292
C182  C     C_2   0.718340 0.132181 0.669691 0.647904
O77   O     O_2   0.718024 0.081382 0.690531 -0.433487
O78   O     O_R   0.801517 0.207724 0.659673 -0.620639
H26   H     H_    0.856853 0.209020 0.669972 0.382247
C183  C     C_2   0.448037 0.275993 0.838142 0.676879
O79   O     O_2   0.390114 0.249092 0.817108 -0.424330
O80   O     O_R   0.460724 0.211805 0.855282 -0.643354
H27   H     H_    0.417475 0.145698 0.848276 0.358250
C184  C     C_2   0.868755 0.586186 0.669971 0.648144
O81   O     O_2   0.919312 0.637117 0.690839 -0.430495
O82   O     O_R   0.792945 0.593131 0.659917 -0.620141
H28   H     H_    0.791344 0.647200 0.670182 0.382523
C185  C     C_2   0.673286 0.256488 0.850022 0.619154
O83   O     O_2   0.748578 0.288145 0.862920 -0.459728
O84   O     O_R   0.649669 0.315109 0.834325 -0.695701
H29   H     H_    0.697081 0.382625 0.837211 0.332080
C186  C     C_2   0.413674 0.282080 0.669926 0.647849
O85   O     O_2   0.363221 0.282065 0.690944 -0.432306
O86   O     O_R   0.406146 0.199076 0.659675 -0.620283
H30   H     H_    0.352125 0.143567 0.669965 0.382263
C187  C     C_2   0.517264 0.806622 0.345372 0.632534
O87   O     O_2   0.577604 0.813599 0.327264 -0.408930
O88   O     O_R   0.472711 0.730380 0.365469 -0.626995
H31   H     H_    0.500813 0.688975 0.364335 0.348804
C188  C     C_2   0.257323 0.672491 0.149883 0.616711
O89   O     O_2   0.289121 0.748097 0.137213 -0.459466
O90   O     O_R   0.315793 0.648539 0.165497 -0.697499
H32   H     H_    0.383335 0.696307 0.162856 0.331089
C189  C     C_2   0.287728 0.481238 0.344995 0.634011
O91   O     O_2   0.234834 0.420622 0.326902 -0.407995
O92   O     O_R   0.255563 0.526063 0.364878 -0.628478
H33   H     H_    0.186105 0.498023 0.363617 0.348772
C190  C     C_2   0.570092 0.841562 0.167375 0.635513
O93   O     O_2   0.625067 0.881845 0.188761 -0.411090
O94   O     O_R   0.565270 0.763111 0.153562 -0.673322
H34   H     H_    0.613762 0.749655 0.162306 0.379960
C191  C     C_2   0.187739 0.714110 0.343891 0.636917
O95   O     O_2   0.177464 0.763865 0.325149 -0.408197
O96   O     O_R   0.264865 0.750866 0.363748 -0.631092
H35   H     H_    0.304243 0.820442 0.361713 0.349986
C192  C     C_2   0.273761 0.444258 0.163135 0.678612
O97   O     O_2   0.250618 0.386248 0.184019 -0.426093
O98   O     O_R   0.206429 0.455154 0.147364 -0.646977
H36   H     H_    0.141492 0.410643 0.155123 0.360622
C193  C     C_2   0.849727 0.541567 0.900584 0.650245
O99   O     O_2   0.796766 0.487085 0.920232 -0.458475
O100  O     O_R   0.869523 0.633513 0.900581 -0.603014
H37   H     H_    0.836134 0.646687 0.918094 0.378272
C194  C     C_2   0.673919 0.069013 0.603191 0.654440
O101  O     O_2   0.637954 0.004560 0.584449 -0.450708
O102  O     O_R   0.770262 0.119601 0.605685 -0.583111
H38   H     H_    0.802046 0.096098 0.590964 0.372908
C195  C     C_2   0.487550 0.339709 0.904232 0.652402
O103  O     O_2   0.549874 0.358886 0.923155 -0.440488
O104  O     O_R   0.401692 0.259344 0.908113 -0.599570
H39   H     H_    0.400166 0.221912 0.927172 0.370550
C196  C     C_2   0.932022 0.604225 0.603460 0.652986
O105  O     O_2   0.996347 0.632874 0.584671 -0.451077
O106  O     O_R   0.880535 0.649072 0.605885 -0.583113
H40   H     H_    0.903342 0.703914 0.591082 0.373638
C197  C     C_2   0.619476 0.164870 0.910646 0.632409
O107  O     O_2   0.569775 0.182187 0.927149 -0.468465
O108  O     O_R   0.709922 0.192862 0.920053 -0.577516
H41   H     H_    0.726372 0.227182 0.940975 0.361184
C198  C     C_2   0.394264 0.327243 0.603649 0.654706
O109  O     O_2   0.366056 0.363338 0.584968 -0.450075
O110  O     O_R   0.347990 0.230890 0.606208 -0.582339
H42   H     H_    0.292676 0.199229 0.591565 0.373027
C199  C     C_2   0.549490 0.902001 0.405078 0.665211
O111  O     O_2   0.618927 0.895577 0.401841 -0.414233
O112  O     O_R   0.505580 0.884308 0.434493 -0.650760
H43   H     H_    0.538060 0.867435 0.451186 0.372997
C200  C     C_2   0.165705 0.618509 0.089111 0.632528
O113  O     O_2   0.179269 0.567373 0.071971 -0.471188
O114  O     O_R   0.197219 0.710112 0.080257 -0.576522
H44   H     H_    0.230887 0.726105 0.059222 0.360896
C201  C     C_2   0.348913 0.448444 0.404790 0.665823
O115  O     O_2   0.273388 0.378735 0.401310 -0.412815
O116  O     O_R   0.373761 0.492049 0.434284 -0.650870
H45   H     H_    0.323797 0.459169 0.450823 0.374070
C202  C     C_2   0.545785 0.852844 0.099828 0.654188
O117  O     O_2   0.492652 0.798539 0.080159 -0.459362
O118  O     O_R   0.638767 0.876192 0.100058 -0.594277
H46   H     H_    0.654234 0.845136 0.082371 0.381793
C203  C     C_2   0.095375 0.652992 0.404135 0.667603
O119  O     O_2   0.097695 0.726764 0.400304 -0.412965
O120  O     O_R   0.116261 0.631018 0.433709 -0.648905
H47   H     H_    0.131754 0.681392 0.449986 0.373676
C204  C     C_2   0.330351 0.486076 0.096421 0.653072
O121  O     O_2   0.346428 0.547626 0.077509 -0.440767
O122  O     O_R   0.250664 0.399304 0.093276 -0.600373
H48   H     H_    0.210843 0.396545 0.074782 0.371644
Br1   Br    Br    0.941983 0.433717 0.211295 -0.247676
Br2   Br    Br    0.407546 0.030388 0.290531 -0.217389
Br3   Br    Br    0.627207 0.597852 0.201591 -0.241564
Br4   Br    Br    0.975071 0.370969 0.292659 -0.202778
Br5   Br    Br    0.377528 0.013681 0.195125 -0.215640
Br6   Br    Br    0.624855 0.596253 0.291464 -0.205595
Br7   Br    Br    0.363584 0.987122 0.692054 -0.256940
Br8   Br    Br    0.015094 0.379888 0.804429 -0.223985
Br9   Br    Br    0.623968 0.636750 0.692665 -0.255140
Br10  Br    Br    0.429878 0.943081 0.788521 -0.245592
Br11  Br    Br    0.013464 0.376616 0.692786 -0.263880
Br12  Br    Br    0.592323 0.624422 0.795257 -0.245242
Br13  Br    Br    0.834448 0.390230 0.141205 -0.190765
Br14  Br    Br    0.439335 0.132599 0.360742 -0.209590
Br15  Br    Br    0.673244 0.557858 0.128342 -0.205410
Br16  Br    Br    0.874729 0.305659 0.362925 -0.210347
Br17  Br    Br    0.420047 0.089989 0.120988 -0.198175
Br18  Br    Br    0.692404 0.563346 0.361701 -0.209049
Br19  Br    Br    0.340705 0.921221 0.616899 -0.198960
Br20  Br    Br    0.090319 0.420439 0.878799 -0.197848
Br21  Br    Br    0.579387 0.660174 0.617896 -0.198064
Br22  Br    Br    0.386951 0.834618 0.858587 -0.193047
Br23  Br    Br    0.082766 0.421936 0.618033 -0.198643
Br24  Br    Br    0.547768 0.675195 0.867269 -0.198802

loop_
_geom_bond_atom_site_label_1
_geom_bond_atom_site_label_2
_geom_bond_distance
_ccdc_geom_bond_type
C136  C191  1.479557 S    
C99   C180  1.486322 S    
C100  C107  1.418859 A    
C117  C165  1.420855 A    
C64   C76   1.412901 A    
C196  O105  1.223634 D    
N9    C57   1.386831 Am   
C52   O42   1.221409 D    
C45   N9    1.390198 Am   
O72   H23   1.013834 S    
O13   C1    1.287497 A    
C191  O95   1.222413 D    
C111  Br15  1.928391 S    
C190  O93   1.223164 D    
C10   C24   1.488764 S    
C45   O35   1.221648 D    
C135  C147  1.406483 A    
C56   O46   1.220875 D    
C76   C83   1.416880 A    
C37   N1    1.375888 Am   
C108  C171  1.486561 S    
C39   N3    1.378446 Am   
C28   C40   1.406234 A    
O62   H18   1.013812 S    
C141  C153  1.421882 A    
O10   Cr4   1.994750 S    
C20   C133  1.416173 A    
C139  C182  1.477848 S    
O12   Cr6   1.993370 S    
N12   C60   1.384537 Am   
C18   C141  1.420806 A    
C109  C121  1.407130 A    
C70   C106  1.426928 A    
C101  C106  1.420425 A    
C114  C126  1.408354 A    
C125  Br5   1.930121 S    
C89   H10   1.083629 S    
C72   C84   1.410827 A    
O1    Cr1   1.994979 S    
C112  Br16  1.928497 S    
C184  O82   1.394345 S    
N4    C52   1.383204 Am   
C24   C123  1.413058 A    
O3    Cr3   1.992813 S    
C50   O40   1.221293 D    
C21   C126  1.418490 A    
O7    C9    1.288598 A    
Cr6   O26   1.971186 S    
C195  O104  1.398301 S    
C36   C96   1.402836 A    
C66   C78   1.413187 A    
C33   C45   1.407048 A    
C16   C131  1.410698 A    
C53   C65   1.421760 A    
O88   H31   1.011439 S    
O116  H45   1.013647 S    
C102  C177  1.486830 S    
C35   C47   1.406546 A    
C26   C38   1.406561 A    
C182  O77   1.223053 D    
O4    C6    1.291691 A    
C5    C13   1.496019 S    
C48   O38   1.223184 D    
C69   C105  1.423822 A    
N10   C58   1.382056 Am   
O14   Cr2   1.881555 S    
O15   C3    1.287226 A    
O78   H26   1.012404 S    
C138  C189  1.478499 S    
C72   C108  1.424978 A    
C22   C137  1.423331 A    
C143  C155  1.421189 A    
C184  O81   1.223037 D    
C134  C146  1.419379 A    
C94   H5    1.081710 S    
O15   Cr3   1.883825 S    
C40   O30   1.222494 D    
C19   C122  1.418040 A    
O5    C1    1.291662 A    
C59   C71   1.422559 A    
N10   C166  1.443550 S    
C174  O62   1.397639 S    
C11   C19   1.499071 S    
C202  O117  1.222879 D    
C57   C69   1.423439 A    
C65   C77   1.410894 A    
O118  H46   1.012834 S    
C63   C75   1.411762 A    
C143  C184  1.477745 S    
C172  O58   1.397639 S    
C50   C62   1.423522 A    
C86   H7    1.083748 S    
C154  C166  1.410283 A    
O21   Cr6   1.884360 S    
C88   H11   1.083748 S    
N7    C163  1.483029 S    
O114  H44   1.013963 S    
C25   C73   1.414532 A    
C44   N8    1.378926 Am   
O23   Cr5   1.881130 S    
Cr2   O25   1.970530 S    
C178  O70   1.396411 S    
C198  O109  1.223663 D    
C23   C124  1.419798 A    
C105  C174  1.484832 S    
C53   O43   1.220847 D    
C20   C121  1.410088 A    
C33   C81   1.411129 A    
C38   O28   1.222470 D    
N3    C159  1.447717 S    
O94   H34   1.012793 S    
C40   N4    1.379088 Am   
N1    C157  1.443177 S    
O21   C9    1.297160 A    
C187  O87   1.222240 D    
C33   C93   1.404469 A    
O106  H40   1.013933 S    
C117  C129  1.410909 A    
C89   C94   1.387494 A    
C54   O44   1.221312 D    
C203  O120  1.398175 S    
C194  O101  1.223643 D    
C142  C154  1.406916 A    
O102  H38   1.013928 S    
C31   C91   1.404621 A    
C42   N6    1.379164 Am   
C137  C149  1.408104 A    
C169  O51   1.223251 D    
C148  C160  1.410874 A    
N4    C160  1.448631 S    
C170  O53   1.222528 D    
C58   O48   1.220905 D    
C185  O84   1.394118 S    
C120  C132  1.406804 A    
C104  C169  1.486871 S    
C171  O55   1.223168 D    
C118  Br22  1.924661 S    
C188  O90   1.393876 S    
C29   C77   1.412724 A    
N6    C162  1.449303 S    
C114  C162  1.403183 A    
C155  C196  1.494895 S    
C183  O80   1.396286 S    
C17   C142  1.415787 A    
C154  C197  1.482970 S    
C110  Br14  1.927265 S    
C47   O37   1.221733 D    
C77   C82   1.413765 A    
C12   C20   1.472866 S    
C19   C134  1.423294 A    
O56   H15   1.013758 S    
C13   C128  1.414964 A    
C27   C75   1.411753 A    
C132  Br12  1.930111 S    
C176  O65   1.222879 D    
C32   C80   1.413062 A    
C181  O76   1.397308 S    
C47   N11   1.389968 Am   
C188  O89   1.221796 D    
C56   C68   1.421696 A    
C146  C199  1.489723 S    
C31   C79   1.411101 A    
C179  O71   1.223047 D    
C39   O29   1.223205 D    
C192  O98   1.396255 S    
C32   C44   1.397893 A    
O22   C10   1.288112 A    
C92   H1    1.083365 S    
O8    Cr5   1.989549 S    
C123  Br3   1.928281 S    
C42   O32   1.222486 D    
C120  Br24  1.928198 S    
C114  Br18  1.927777 S    
C180  O73   1.223094 D    
C126  Br6   1.930196 S    
N5    C53   1.384180 Am   
O2    Cr2   1.995613 S    
O66   H20   1.013836 S    
N7    C55   1.386955 Am   
C96   H3    1.083593 S    
C43   N7    1.390220 Am   
C21   C138  1.423877 A    
C111  C123  1.406900 A    
C9    C23   1.500476 S    
O8    C10   1.293075 A    
C173  O60   1.397660 S    
C41   O31   1.222821 D    
C68   C80   1.411424 A    
C106  C173  1.486097 S    
C43   O33   1.221555 D    
C13   C140  1.423775 A    
C67   C79   1.411274 A    
C54   C66   1.423398 A    
C115  C163  1.421054 A    
C204  O122  1.398293 S    
O20   C8    1.290786 A    
N11   C167  1.481613 S    
C153  C165  1.421715 A    
C74   C79   1.417684 A    
C6    C14   1.500396 S    
C118  C130  1.407813 A    
C151  C163  1.421827 A    
C131  Br11  1.932377 S    
O60   H17   1.013821 S    
C177  O68   1.398084 S    
C129  Br9   1.932449 S    
C136  C148  1.419796 A    
C127  Br7   1.932210 S    
C85   C92   1.386937 A    
C134  C187  1.478807 S    
C86   C91   1.391755 A    
C87   H12   1.083599 S    
C107  C172  1.484783 S    
C115  Br19  1.933459 S    
O6    C2    1.291039 A    
C31   C43   1.407056 A    
C71   C83   1.411358 A    
C175  O64   1.398072 S    
C91   H2    1.082421 S    
C147  C159  1.415624 A    
O17   Cr2   1.886656 S    
C58   C70   1.423805 A    
C111  C159  1.408129 A    
C152  C193  1.485199 S    
C62   C74   1.413074 A    
C150  C201  1.489628 S    
C52   C64   1.422374 A    
C145  C157  1.410594 A    
O19   Cr4   1.886284 S    
C109  C157  1.404272 A    
C35   C95   1.404570 A    
N12   C168  1.447308 S    
C66   C102  1.426893 A    
O68   H21   1.013823 S    
O5    Cr2   1.989878 S    
C3    C17   1.471718 S    
C141  C186  1.477683 S    
C199  O112  1.398077 S    
C36   C48   1.394327 A    
N6    C54   1.383283 Am   
C46   N10   1.376045 Am   
O17   C5    1.289892 A    
O64   H19   1.013827 S    
O82   H28   1.012348 S    
O19   C7    1.296382 A    
C195  O103  1.222699 D    
O52   H13   1.013804 S    
C24   C135  1.419455 A    
C46   O36   1.223189 D    
C197  O108  1.396781 S    
C148  C203  1.489222 S    
C48   N12   1.378460 Am   
C101  C178  1.487190 S    
C38   N2    1.379266 Am   
C34   C82   1.414582 A    
C200  O114  1.396595 S    
C144  C156  1.406014 A    
C110  C122  1.408730 A    
C61   C73   1.414392 A    
O112  H43   1.013776 S    
C34   C94   1.402836 A    
C181  O75   1.223138 D    
C8    C22   1.497205 S    
C186  O86   1.394353 S    
C65   C101  1.423600 A    
C150  C162  1.411032 A    
C26   C86   1.406209 A    
C90   C93   1.391615 A    
C68   C104  1.423741 A    
C88   C95   1.391679 A    
C153  C198  1.495188 S    
C115  C127  1.411010 A    
O108  H41   1.013985 S    
C30   C90   1.406168 A    
C90   H9    1.083762 S    
C67   C103  1.423955 A    
C193  O100  1.398213 S    
C113  C125  1.409127 A    
C1    C15   1.485985 S    
C2    C16   1.498806 S    
O16   Cr1   1.886450 S    
C182  O78   1.394381 S    
C100  C179  1.487225 S    
C196  O106  1.396597 S    
C174  O61   1.222517 D    
C49   O39   1.221009 D    
C140  C181  1.487475 S    
C51   O41   1.220242 D    
C191  O96   1.396913 S    
C18   C129  1.411024 A    
C190  O94   1.396964 S    
C34   C46   1.398097 A    
C202  O118  1.397971 S    
C55   O45   1.218358 D    
O80   H27   1.013841 S    
O122  H48   1.013911 S    
O100  H37   1.013621 S    
C117  Br21  1.933443 S    
C29   C41   1.398166 A    
C116  C128  1.408626 A    
C25   C85   1.402400 A    
C135  C192  1.489204 S    
C138  C150  1.419697 A    
C119  C131  1.410295 A    
Cr1   O25   1.970900 S    
N11   C59   1.386235 Am   
O92   H33   1.011245 S    
C28   C88   1.406226 A    
C178  O69   1.223254 D    
C36   C84   1.411625 A    
C29   C89   1.402420 A    
C78   C81   1.417709 A    
C26   C74   1.415669 A    
O96   H35   1.011741 S    
C16   C143  1.420613 A    
C109  Br13  1.925125 S    
C32   C92   1.402459 A    
O24   C12   1.286929 A    
C133  C145  1.407533 A    
C93   H6    1.082145 S    
N3    C51   1.384684 Am   
C75   C84   1.409185 A    
N8    C56   1.383624 Am   
O23   C11   1.295992 A    
N9    C165  1.482773 S    
Cr5   O26   1.970936 S    
O74   H24   1.013770 S    
C203  O119  1.223058 D    
C97   C176  1.486116 S    
C133  C188  1.484883 S    
C113  Br17  1.928958 S    
C151  C194  1.494892 S    
C61   C97   1.426653 A    
C156  C195  1.484507 S    
C156  C168  1.416123 A    
O90   H32   1.009441 S    
C28   C76   1.415766 A    
C55   C67   1.423680 A    
C185  O83   1.221948 D    
C172  O57   1.222520 D    
C23   C136  1.424552 A    
C112  C160  1.402420 A    
C144  C183  1.489468 S    
C118  C166  1.405271 A    
C37   O27   1.223198 D    
N2    C158  1.449416 S    
O86   H30   1.012362 S    
O4    Cr1   1.989939 S    
C183  O79   1.223097 D    
O9    C11   1.288745 A    
O6    Cr3   1.992117 S    
C30   C42   1.406512 A    
O10   C12   1.283998 A    
C95   H4    1.082513 S    
C102  C105  1.419092 A    
O16   C4    1.295841 A    
O98   H36   1.013843 S    
C130  Br10  1.927750 S    
C137  C190  1.487130 S    
C189  O91   1.222252 D    
C71   C107  1.423638 A    
O110  H42   1.013949 S    
O76   H25   1.012962 S    
C112  C124  1.407438 A    
O20   Cr5   1.886757 S    
C14   C127  1.410770 A    
O24   Cr6   1.883159 S    
C70   C82   1.414623 A    
C41   N5    1.379487 Am   
O9    Cr6   1.991373 S    
C198  O110  1.396599 S    
C57   O47   1.218341 D    
C59   O49   1.218280 D    
O3    C5    1.295727 A    
O18   Cr3   1.883778 S    
C62   C98   1.426758 A    
C73   C80   1.413734 A    
C149  C161  1.414194 A    
C4    C18   1.500293 S    
N5    C161  1.450947 S    
O104  H39   1.013899 S    
C113  C161  1.409611 A    
C187  O88   1.396691 S    
O7    Cr4   1.990611 S    
O18   C6    1.296077 A    
C173  O59   1.223022 D    
C44   O34   1.222763 D    
O13   Cr1   1.881293 S    
C120  C168  1.408286 A    
N1    C49   1.382041 Am   
C97   C104  1.419460 A    
O11   C7    1.288835 A    
C98   C103  1.419206 A    
C194  O102  1.396641 S    
C22   C125  1.415449 A    
C149  C202  1.484042 S    
C15   C144  1.418489 A    
O12   C8    1.295648 A    
C69   C81   1.411224 A    
C17   C130  1.409990 A    
Cr3   O25   1.971207 S    
C14   C139  1.420789 A    
C169  O52   1.396252 S    
C201  O116  1.398100 S    
C152  C164  1.413877 A    
C35   C83   1.411215 A    
N8    C164  1.449577 S    
C116  C164  1.409188 A    
C51   C63   1.422311 A    
C124  Br4   1.930894 S    
C170  O54   1.397627 S    
C27   C87   1.403218 A    
O22   Cr4   1.881868 S    
C49   C61   1.423306 A    
C177  O67   1.223019 D    
O14   C2    1.295165 A    
C171  O56   1.398100 S    
C98   C175  1.486850 S    
C140  C152  1.407751 A    
Cr4   O26   1.970514 S    
C121  Br1   1.924835 S    
C103  C170  1.484687 S    
C175  O63   1.223029 D    
C189  O92   1.396738 S    
C7    C21   1.500227 S    
C201  O115  1.223071 D    
C155  C167  1.421306 A    
C128  Br8   1.930459 S    
C176  O66   1.397975 S    
O70   H22   1.013819 S    
C30   C78   1.415830 A    
C15   C132  1.412966 A    
O54   H14   1.013802 S    
C199  O111  1.223085 D    
N2    C50   1.383255 Am   
C64   C100  1.426764 A    
C87   C96   1.387815 A    
C197  O107  1.222505 D    
C147  C204  1.484459 S    
C139  C151  1.421911 A    
C116  Br20  1.928635 S    
O58   H16   1.013824 S    
O84   H29   1.008766 S    
C180  O74   1.398288 S    
C200  O113  1.222243 D    
C145  C200  1.483370 S    
C204  O121  1.222653 D    
C179  O72   1.398066 S    
O11   Cr5   1.995685 S    
C186  O85   1.223051 D    
C146  C158  1.411236 A    
C119  C167  1.420580 A    
C110  C158  1.403726 A    
C142  C185  1.485014 S    
C63   C99   1.426731 A    
C60   O50   1.220763 D    
C85   H8    1.081721 S    
O1    C3    1.283569 A    
C192  O97   1.223136 D    
O2    C4    1.291126 A    
C25   C37   1.397712 A    
C193  O99   1.222890 D    
C119  Br23  1.933376 S    
C122  Br2   1.931380 S    
O120  H47   1.013783 S    
C27   C39   1.394249 A    
C99   C108  1.421325 A    
C60   C72   1.421764 A    
