data_mof_unit_64034.cif
_audit_creation_date              2012-12-10T19:23:41-0500
_audit_creation_method            fapswitch 2.2
_symmetry_space_group_name_H-M    P1
_symmetry_Int_Tables_number       1
_space_group_crystal_system       triclinic
_cell_length_a                    44.30338
_cell_length_b                    38.914408
_cell_length_c                    21.594675
_cell_angle_alpha                 89.999309
_cell_angle_beta                  61.306317
_cell_angle_gamma                 89.99985
_cell_volume                      32658.1921892

loop_
_atom_site_label
_atom_site_type_symbol
_atom_type_description
_atom_site_fract_x
_atom_site_fract_y
_atom_site_fract_z
_atom_type_partial_charge
C1    C     C_R   0.067150 0.499974 0.434989 0.901861
C2    C     C_R   0.932849 0.499974 0.565006 0.901805
C3    C     C_R   0.567151 0.999974 0.434994 0.901790
C4    C     C_R   0.432850 0.999974 0.565011 0.901873
C5    C     C_R   0.999541 0.498562 0.814101 -0.077865
C6    C     C_R   0.000459 0.498564 0.185897 -0.077822
C7    C     C_R   0.499541 0.998561 0.814102 -0.077866
C8    C     C_R   0.500458 0.998561 0.185900 -0.077877
C9    C     C_R   0.021572 0.476442 0.759473 -0.005874
C10   C     C_R   0.978442 0.476431 0.240512 -0.005878
C11   C     C_R   0.521575 0.976444 0.759469 -0.005842
C12   C     C_R   0.478418 0.976450 0.240540 -0.005860
C13   C     C_R   0.021150 0.477614 0.695906 -0.211825
C14   C     C_R   0.978865 0.477601 0.304078 -0.211906
C15   C     C_R   0.521152 0.977615 0.695903 -0.211928
C16   C     C_R   0.478842 0.977622 0.304105 -0.211841
C17   C     C_R   0.998680 0.499865 0.687547 -0.064848
C18   C     C_R   0.001322 0.499866 0.312450 -0.064877
C19   C     C_R   0.498680 0.999865 0.687546 -0.064847
C20   C     C_R   0.501320 0.999866 0.312454 -0.064830
C21   C     C_R   0.975986 0.521323 0.742738 0.006342
C22   C     C_R   0.024002 0.521338 0.257271 0.006400
C23   C     C_R   0.475986 0.021322 0.742739 0.006351
C24   C     C_R   0.524020 0.021316 0.257255 0.006328
C25   C     C_R   0.079482 0.453472 0.731175 -0.126191
C26   C     C_R   0.920544 0.453452 0.268752 -0.126121
C27   C     C_R   0.579495 0.953485 0.731122 -0.126252
C28   C     C_R   0.420492 0.953502 0.268909 -0.126261
C29   C     C_R   0.100161 0.428244 0.738069 -0.138153
C30   C     C_R   0.899876 0.428218 0.261839 -0.138122
C31   C     C_R   0.600184 0.928264 0.738002 -0.138140
C32   C     C_R   0.399795 0.928287 0.262037 -0.138170
C33   C     C_R   0.085063 0.399673 0.781273 -0.090152
C34   C     C_R   0.914986 0.399642 0.218659 -0.090127
C35   C     C_R   0.585097 0.899698 0.781230 -0.090179
C36   C     C_R   0.414875 0.899721 0.218804 -0.090190
C37   C     C_R   0.049270 0.396334 0.817759 -0.118291
C38   C     C_R   0.950779 0.396305 0.182216 -0.118323
C39   C     C_R   0.549304 0.896356 0.817754 -0.118247
C40   C     C_R   0.450666 0.896374 0.182267 -0.118223
C41   C     C_R   0.028481 0.421801 0.812064 -0.150320
C42   C     C_R   0.971558 0.421778 0.187931 -0.150418
C43   C     C_R   0.528505 0.921817 0.812072 -0.150228
C44   C     C_R   0.471473 0.921828 0.187943 -0.150196
C45   C     C_R   0.999377 0.499991 0.620725 0.900864
C46   C     C_R   0.000623 0.499992 0.379275 0.900734
C47   C     C_R   0.499377 0.999991 0.620725 0.900742
C48   C     C_R   0.500623 0.999992 0.379275 0.900838
C49   C     C_R   0.043508 0.450477 0.768526 0.124247
C50   C     C_R   0.956519 0.450458 0.231445 0.124208
C51   C     C_R   0.543521 0.950487 0.768510 0.124266
C52   C     C_R   0.456465 0.950499 0.231509 0.124278
C53   C     C_R   0.377545 0.498814 0.063467 -0.222527
C54   C     C_R   0.622454 0.498713 0.936536 -0.222543
C55   C     C_R   0.877546 0.998636 0.063469 -0.222535
C56   C     C_R   0.122455 0.998791 0.936532 -0.222529
C57   C     C_R   0.341654 0.496642 0.096468 0.014329
C58   C     C_R   0.658345 0.496537 0.903531 0.014269
C59   C     C_R   0.841655 0.996456 0.096483 0.014301
C60   C     C_R   0.158346 0.996616 0.903530 0.014315
C61   C     C_R   0.323323 0.494942 0.171089 0.074349
C62   C     C_R   0.676679 0.494934 0.828897 0.074285
C63   C     C_R   0.823321 0.994918 0.171123 0.074344
C64   C     C_R   0.176677 0.994937 0.828906 0.074354
C65   C     C_R   0.340811 0.495372 0.210542 -0.146388
C66   C     C_R   0.659194 0.495453 0.789442 -0.146513
C67   C     C_R   0.840805 0.995508 0.210576 -0.146470
C68   C     C_R   0.159190 0.995388 0.789453 -0.146381
C69   C     C_R   0.376452 0.497244 0.176845 -0.168727
C70   C     C_R   0.623553 0.497324 0.823144 -0.168692
C71   C     C_R   0.876447 0.997382 0.176866 -0.168694
C72   C     C_R   0.123549 0.997261 0.823152 -0.168720
C73   C     C_R   0.395041 0.498912 0.103132 -0.068145
C74   C     C_R   0.604961 0.498903 0.896867 -0.068169
C75   C     C_R   0.895039 0.998896 0.103137 -0.068169
C76   C     C_R   0.104959 0.998909 0.896867 -0.068148
C77   C     C_R   0.267200 0.463811 0.240986 0.005576
C78   C     C_R   0.732798 0.463835 0.758775 0.005538
C79   C     C_R   0.767199 0.963825 0.241284 0.005572
C80   C     C_R   0.232799 0.963812 0.758966 0.005570
C81   C     C_R   0.231228 0.465704 0.278742 -0.220482
C82   C     C_R   0.768770 0.465729 0.721024 -0.220476
C83   C     C_R   0.731228 0.965723 0.279021 -0.220448
C84   C     C_R   0.268771 0.965705 0.721212 -0.220482
C85   C     C_R   0.214147 0.496867 0.284762 0.083869
C86   C     C_R   0.785853 0.496868 0.715202 0.083828
C87   C     C_R   0.714148 0.996859 0.284800 0.083827
C88   C     C_R   0.285853 0.996864 0.715232 0.083859
C89   C     C_R   0.927902 0.598953 0.729740 -0.165851
C90   C     C_R   0.072029 0.599007 0.270304 -0.165887
C91   C     C_R   0.427933 0.098961 0.729673 -0.165862
C92   C     C_R   0.572120 0.098942 0.270206 -0.165845
C93   C     C_R   0.232968 0.526673 0.253688 -0.144916
C94   C     C_R   0.767037 0.526649 0.746470 -0.144928
C95   C     C_R   0.732967 0.026634 0.253499 -0.144935
C96   C     C_R   0.267032 0.026664 0.746345 -0.144915
C97   C     C_R   0.268583 0.525364 0.216579 -0.157021
C98   C     C_R   0.731423 0.525338 0.783589 -0.156850
C99   C     C_R   0.768580 0.025320 0.216387 -0.156998
C100  C     C_R   0.231418 0.025355 0.783455 -0.157027
C101  C     C_R   0.285800 0.494265 0.209779 0.049071
C102  C     C_R   0.714203 0.494260 0.790198 0.049155
C103  C     C_R   0.785798 0.994246 0.209825 0.049119
C104  C     C_R   0.214201 0.994260 0.790215 0.049073
C105  C     C_R   0.157277 0.473109 0.311831 -0.154544
C106  C     C_R   0.842717 0.473075 0.688060 -0.154600
C107  C     C_R   0.657282 0.973065 0.311956 -0.154605
C108  C     C_R   0.342722 0.973098 0.688144 -0.154605
C109  C     C_R   0.121670 0.473864 0.349567 -0.220638
C110  C     C_R   0.878324 0.473832 0.650337 -0.220611
C111  C     C_R   0.621675 0.973825 0.349678 -0.220607
C112  C     C_R   0.378329 0.973855 0.650411 -0.220642
C113  C     C_R   0.104701 0.499647 0.399821 -0.119689
C114  C     C_R   0.895297 0.499648 0.600162 -0.119701
C115  C     C_R   0.604704 0.999647 0.399836 -0.119717
C116  C     C_R   0.395298 0.999646 0.600176 -0.119652
C117  C     C_R   0.123990 0.524779 0.413366 -0.032255
C118  C     C_R   0.876010 0.524811 0.586687 -0.032227
C119  C     C_R   0.623993 0.024815 0.413294 -0.032226
C120  C     C_R   0.376009 0.024785 0.586648 -0.032216
C121  C     C_R   0.159884 0.524043 0.373735 -0.202858
C122  C     C_R   0.840116 0.524076 0.626321 -0.202825
C123  C     C_R   0.659887 0.024078 0.373658 -0.202833
C124  C     C_R   0.340115 0.024048 0.626279 -0.202818
C125  C     C_R   0.176528 0.498186 0.323621 0.089665
C126  C     C_R   0.823470 0.498186 0.676350 0.089624
C127  C     C_R   0.676531 0.998181 0.323648 0.089594
C128  C     C_R   0.323472 0.998183 0.676373 0.089652
C129  C     C_R   1.000000 0.432773 0.000001 0.887528
C130  C     C_R   0.500000 0.932774 0.000000 0.887424
C131  C     C_R   0.952753 0.578758 0.734806 -0.161945
C132  C     C_R   0.047199 0.578793 0.265207 -0.161964
C133  C     C_R   0.452775 0.078761 0.734761 -0.161899
C134  C     C_R   0.547265 0.078750 0.265155 -0.161970
C135  C     C_R   0.999871 0.499306 0.879958 0.877961
C136  C     C_R   0.000129 0.499307 0.120042 0.877985
C137  C     C_R   0.499871 0.999305 0.879958 0.877939
C138  C     C_R   0.500129 0.999305 0.120043 0.877930
C139  C     C_R   0.000000 0.567205 0.000000 0.861593
C140  C     C_R   0.500000 0.067205 1.000000 0.861603
C141  C     C_R   0.500000 0.432657 0.000000 0.874470
C142  C     C_R   1.000000 0.932657 0.000000 0.874472
C143  C     C_R   0.432691 0.499901 0.066935 0.882539
C144  C     C_R   0.567310 0.499899 0.933064 0.882515
C145  C     C_R   0.932690 0.999897 0.066936 0.882509
C146  C     C_R   0.067309 0.999900 0.933065 0.882535
C147  C     C_R   0.500000 0.567173 1.000000 0.866819
C148  C     C_R   1.000000 0.067172 1.000000 0.866819
C149  C     C_R   0.502472 0.622877 0.053577 -0.181071
C150  C     C_R   0.497528 0.622877 0.946420 -0.181066
C151  C     C_R   0.002486 0.122876 0.053563 -0.181073
C152  C     C_R   0.997514 0.122877 0.946437 -0.181082
C153  C     C_R   0.502511 0.658593 0.053514 -0.164230
C154  C     C_R   0.497489 0.658593 0.946481 -0.164221
C155  C     C_R   0.002525 0.158592 0.053502 -0.164225
C156  C     C_R   0.997474 0.158593 0.946501 -0.164234
C157  C     C_R   0.500000 0.676659 0.999998 0.112495
C158  C     C_R   0.999999 0.176659 0.000002 0.112502
C159  C     C_R   0.500000 0.604772 0.999999 -0.041347
C160  C     C_R   0.000000 0.104772 1.000000 -0.041343
C161  C     C_R   0.480307 0.732397 0.063100 -0.165049
C162  C     C_R   0.519693 0.732398 0.936895 -0.165050
C163  C     C_R   0.980320 0.232396 0.063114 -0.165054
C164  C     C_R   0.019678 0.232398 0.936896 -0.165053
C165  C     C_R   0.949817 0.542819 0.737391 0.124603
C166  C     C_R   0.050154 0.542855 0.262633 0.124654
C167  C     C_R   0.449822 0.042823 0.737385 0.124597
C168  C     C_R   0.550192 0.042810 0.262596 0.124599
C169  C     C_R   0.980362 0.268106 0.063104 -0.082441
C170  C     C_R   0.019636 0.268108 0.936908 -0.082433
C171  C     C_R   0.480349 0.768107 0.063089 -0.082428
C172  C     C_R   0.519651 0.768108 0.936907 -0.082418
C173  C     C_R   0.999999 0.285929 0.000007 0.207677
C174  C     C_R   0.500000 0.785930 0.999998 0.207658
C175  C     C_R   0.500000 0.714328 0.999998 0.097389
C176  C     C_R   0.999999 0.214327 0.000004 0.097392
C177  C     C_R   0.029575 0.341542 0.991409 -0.032079
C178  C     C_R   0.970423 0.341542 0.008607 -0.032065
C179  C     C_R   0.529567 0.841542 0.991449 -0.032031
C180  C     C_R   0.470433 0.841543 0.008550 -0.032030
C181  C     C_R   0.029193 0.377418 0.990792 -0.255432
C182  C     C_R   0.970805 0.377418 0.009219 -0.255364
C183  C     C_R   0.529185 0.877418 0.990834 -0.255410
C184  C     C_R   0.470814 0.877419 0.009167 -0.255453
C185  C     C_R   1.000000 0.395297 0.000003 -0.091168
C186  C     C_R   0.500000 0.895297 0.000001 -0.091239
C187  C     C_R   0.999999 0.323460 0.000008 -0.094553
C188  C     C_R   0.500000 0.823461 0.999999 -0.094529
C189  C     C_R   0.499863 0.377052 0.943921 -0.176791
C190  C     C_R   0.500138 0.377052 0.056080 -0.176801
C191  C     C_R   0.999862 0.877052 0.943922 -0.176798
C192  C     C_R   0.000138 0.877052 0.056081 -0.176781
C193  C     C_R   0.499872 0.341364 0.943935 -0.166218
C194  C     C_R   0.500130 0.341364 0.056067 -0.166215
C195  C     C_R   0.999871 0.841364 0.943936 -0.166212
C196  C     C_R   0.000128 0.841364 0.056068 -0.166215
C197  C     C_R   0.500001 0.323359 0.000001 0.110636
C198  C     C_R   1.000000 0.823359 0.000002 0.110635
C199  C     C_R   0.921503 0.527346 0.736108 -0.199298
C200  C     C_R   0.078467 0.527404 0.263955 -0.199225
C201  C     C_R   0.421501 0.027356 0.736122 -0.199325
C202  C     C_R   0.578502 0.027334 0.263892 -0.199286
C203  C     C_R   0.500000 0.395122 0.000001 -0.040470
C204  C     C_R   1.000000 0.895121 0.000001 -0.040470
C205  C     C_R   0.477863 0.267774 0.061473 -0.172910
C206  C     C_R   0.522141 0.267775 0.938530 -0.172908
C207  C     C_R   0.977862 0.767774 0.061474 -0.172904
C208  C     C_R   0.022139 0.767775 0.938531 -0.172908
C209  C     C_R   0.977848 0.732088 0.061463 -0.174502
C210  C     C_R   0.022154 0.732089 0.938543 -0.174499
C211  C     C_R   0.477849 0.232088 0.061461 -0.174502
C212  C     C_R   0.522154 0.232089 0.938541 -0.174502
C213  C     C_R   0.000001 0.714081 0.000003 0.101538
C214  C     C_R   0.500001 0.214081 0.000001 0.101540
C215  C     C_R   0.500002 0.285782 0.000001 0.101960
C216  C     C_R   0.000000 0.785782 0.000003 0.101960
C217  C     C_R   0.031223 0.658500 0.969774 -0.169811
C218  C     C_R   0.968777 0.658500 0.030231 -0.169812
C219  C     C_R   0.531224 0.158500 0.969772 -0.169812
C220  C     C_R   0.468778 0.158500 0.030229 -0.169809
C221  C     C_R   0.031236 0.622813 0.969774 -0.183831
C222  C     C_R   0.968765 0.622813 0.030230 -0.183830
C223  C     C_R   0.531236 0.122813 0.969772 -0.183828
C224  C     C_R   0.468765 0.122813 0.030229 -0.183828
C225  C     C_R   0.000000 0.604741 0.000001 -0.040031
C226  C     C_R   0.500000 0.104741 0.000000 -0.040032
C227  C     C_R   0.000000 0.676505 0.000003 0.111029
C228  C     C_R   0.500001 0.176505 0.000001 0.111030
C229  C     C_R   0.896432 0.547642 0.732249 -0.158426
C230  C     C_R   0.103518 0.547720 0.267847 -0.158308
C231  C     C_R   0.396439 0.047658 0.732240 -0.158390
C232  C     C_R   0.603578 0.047628 0.267735 -0.158445
C233  C     C_R   0.899767 0.583391 0.728330 0.242240
C234  C     C_R   0.100163 0.583467 0.271758 0.242178
C235  C     C_R   0.399791 0.083406 0.728280 0.242210
C236  C     C_R   0.600252 0.083379 0.271627 0.242247
C237  C     C_R   0.976894 0.520684 0.805879 -0.233346
C238  C     C_R   0.023094 0.520699 0.194130 -0.233385
C239  C     C_R   0.476892 0.020681 0.805881 -0.233342
C240  C     C_R   0.523113 0.020676 0.194113 -0.233332
H1    H     H_    0.101087 0.380018 0.786130 0.149914
H2    H     H_    0.898970 0.379983 0.213785 0.149933
H3    H     H_    0.601129 0.880049 0.786076 0.149877
H4    H     H_    0.398837 0.880076 0.213964 0.149872
H5    H     H_    0.037644 0.373905 0.850131 0.149442
H6    H     H_    0.962415 0.373873 0.149861 0.149447
H7    H     H_    0.537686 0.873931 0.850144 0.149446
H8    H     H_    0.462279 0.873948 0.149874 0.149442
H9    H     H_    0.000764 0.418934 0.840591 0.123553
H10   H     H_    0.999276 0.418913 0.159436 0.123618
H11   H     H_    0.500788 0.918948 0.840627 0.123511
H12   H     H_    0.499189 0.918955 0.159378 0.123486
H13   H     H_    0.392012 0.499842 0.006384 0.202461
H14   H     H_    0.607983 0.499667 0.993625 0.202516
H15   H     H_    0.892017 0.999537 0.006375 0.202510
H16   H     H_    0.107987 0.999803 0.993617 0.202460
H17   H     H_    0.326704 0.494305 0.267688 0.137271
H18   H     H_    0.673304 0.494459 0.732287 0.137281
H19   H     H_    0.826696 0.994565 0.267735 0.137283
H20   H     H_    0.173297 0.994337 0.732305 0.137267
H21   H     H_    0.389416 0.497294 0.208469 0.159335
H22   H     H_    0.610593 0.497447 0.791515 0.159341
H23   H     H_    0.889406 0.997562 0.208495 0.159336
H24   H     H_    0.110586 0.997328 0.791527 0.159334
H25   H     H_    0.216319 0.442841 0.303513 0.174499
H26   H     H_    0.783677 0.442885 0.696106 0.174477
H27   H     H_    0.716317 0.942884 0.303967 0.174514
H28   H     H_    0.283681 0.942846 0.696411 0.174504
H29   H     H_    0.220072 0.550867 0.257577 0.159854
H30   H     H_    0.779937 0.550823 0.742724 0.159918
H31   H     H_    0.720068 0.050806 0.257212 0.159929
H32   H     H_    0.279929 0.050854 0.742486 0.159893
H33   H     H_    0.930488 0.626642 0.727035 0.159017
H34   H     H_    0.069427 0.626695 0.273004 0.159016
H35   H     H_    0.430532 0.126649 0.726935 0.159009
H36   H     H_    0.569541 0.126633 0.272890 0.159018
H37   H     H_    0.282884 0.548665 0.192813 0.143727
H38   H     H_    0.717123 0.548619 0.807509 0.143715
H39   H     H_    0.782882 0.048596 0.192437 0.143745
H40   H     H_    0.217117 0.048651 0.807252 0.143733
H41   H     H_    0.169817 0.453187 0.272674 0.152128
H42   H     H_    0.830172 0.453125 0.727149 0.152151
H43   H     H_    0.669826 0.953110 0.272882 0.152176
H44   H     H_    0.330181 0.953170 0.727286 0.152144
H45   H     H_    0.107287 0.454607 0.338359 0.163489
H46   H     H_    0.892704 0.454549 0.661490 0.163553
H47   H     H_    0.607295 0.954538 0.338538 0.163573
H48   H     H_    0.392712 0.954591 0.661606 0.163510
H49   H     H_    0.175073 0.542773 0.383955 0.174700
H50   H     H_    0.824927 0.542834 0.616165 0.174766
H51   H     H_    0.675077 0.042840 0.383800 0.174776
H52   H     H_    0.324926 0.042785 0.616074 0.174715
H53   H     H_    0.504553 0.609492 0.095339 0.161853
H54   H     H_    0.495448 0.609492 0.904659 0.161857
H55   H     H_    0.004577 0.109491 0.095312 0.161854
H56   H     H_    0.995423 0.109493 0.904688 0.161847
H57   H     H_    0.504910 0.672102 0.094793 0.139552
H58   H     H_    0.495090 0.672102 0.905203 0.139556
H59   H     H_    0.004935 0.172100 0.094768 0.139551
H60   H     H_    0.995064 0.172103 0.905235 0.139546
H61   H     H_    0.464631 0.718900 0.112123 0.132269
H62   H     H_    0.535369 0.718901 0.887873 0.132266
H63   H     H_    0.964654 0.218899 0.112141 0.132262
H64   H     H_    0.035343 0.218902 0.887867 0.132266
H65   H     H_    0.965099 0.281898 0.111974 0.119560
H66   H     H_    0.034899 0.281902 0.888040 0.119566
H67   H     H_    0.465074 0.781900 0.111953 0.119579
H68   H     H_    0.534925 0.781901 0.888043 0.119573
H69   H     H_    0.974395 0.591040 0.736046 0.147589
H70   H     H_    0.025556 0.591057 0.263937 0.147591
H71   H     H_    0.474423 0.091037 0.735984 0.147595
H72   H     H_    0.525626 0.091033 0.263904 0.147589
H73   H     H_    0.051535 0.391567 0.984691 0.195792
H74   H     H_    0.948463 0.391566 0.015319 0.195777
H75   H     H_    0.551521 0.891567 0.984771 0.195777
H76   H     H_    0.448479 0.891568 0.015230 0.195779
H77   H     H_    0.499666 0.390437 0.900145 0.161746
H78   H     H_    0.500334 0.390437 0.099857 0.161743
H79   H     H_    0.999666 0.890437 0.900145 0.161744
H80   H     H_    0.000334 0.890437 0.099857 0.161748
H81   H     H_    0.499385 0.327816 0.900603 0.137354
H82   H     H_    0.500617 0.327816 0.099399 0.137353
H83   H     H_    0.999384 0.827816 0.900604 0.137355
H84   H     H_    0.000616 0.827816 0.099400 0.137355
H85   H     H_    0.460392 0.281315 0.109213 0.138716
H86   H     H_    0.539611 0.281316 0.890790 0.138719
H87   H     H_    0.960391 0.781315 0.109214 0.138721
H88   H     H_    0.039610 0.781316 0.890791 0.138718
H89   H     H_    0.960794 0.718546 0.109545 0.137992
H90   H     H_    0.039208 0.718547 0.890461 0.137993
H91   H     H_    0.460795 0.218546 0.109543 0.137991
H92   H     H_    0.539208 0.218548 0.890459 0.137992
H93   H     H_    0.055565 0.672048 0.946909 0.137861
H94   H     H_    0.944436 0.672048 0.053096 0.137861
H95   H     H_    0.555566 0.172048 0.946907 0.137858
H96   H     H_    0.444436 0.172048 0.053095 0.137860
H97   H     H_    0.055669 0.609431 0.946307 0.161694
H98   H     H_    0.944332 0.609432 0.053696 0.161694
H99   H     H_    0.555669 0.109431 0.946304 0.161693
H100  H     H_    0.444332 0.109432 0.053695 0.161694
H101  H     H_    0.918755 0.499646 0.738613 0.133262
H102  H     H_    0.081231 0.499705 0.261458 0.133182
H103  H     H_    0.418741 0.999657 0.738656 0.133269
H104  H     H_    0.581244 0.999633 0.261405 0.133266
H105  H     H_    0.874413 0.535630 0.732296 0.168521
H106  H     H_    0.125536 0.535724 0.267834 0.168514
H107  H     H_    0.374415 0.035652 0.732299 0.168542
H108  H     H_    0.625594 0.035614 0.267695 0.168526
H109  H     H_    0.959751 0.537244 0.848905 0.158843
H110  H     H_    0.040226 0.537270 0.151113 0.158813
H111  H     H_    0.459748 0.037241 0.848908 0.158849
H112  H     H_    0.540261 0.037230 0.151081 0.158855
H113  H     H_    0.038106 0.460878 0.653017 0.159666
H114  H     H_    0.961918 0.460854 0.346957 0.159679
H115  H     H_    0.538110 0.960882 0.653011 0.159650
H116  H     H_    0.461880 0.960893 0.347002 0.159651
H117  H     H_    0.091425 0.475322 0.696972 0.139566
H118  H     H_    0.908591 0.475306 0.302936 0.139544
H119  H     H_    0.591430 0.975331 0.696899 0.139568
H120  H     H_    0.408563 0.975348 0.303135 0.139581
H121  H     H_    0.127891 0.430711 0.709507 0.141170
H122  H     H_    0.872145 0.430683 0.290366 0.141179
H123  H     H_    0.627914 0.930732 0.709410 0.141190
H124  H     H_    0.372066 0.930760 0.290638 0.141178
O1    O     O_R   0.050910 0.528730 0.449120 -0.591736
O2    O     O_R   0.949090 0.528730 0.550880 -0.591723
O3    O     O_R   0.550910 0.028730 0.449120 -0.591715
O4    O     O_R   0.449090 0.028730 0.550880 -0.591728
O5    O     O_R   0.449080 0.499920 0.102620 -0.623438
O6    O     O_R   0.550920 0.499920 0.897380 -0.623418
O7    O     O_R   0.949080 0.999920 0.102620 -0.623409
O8    O     O_R   0.050920 0.999920 0.897380 -0.623433
O9    O     O_R   0.449080 0.499990 0.999170 -0.619830
O10   O     O_R   0.550920 0.499990 0.000830 -0.619832
O11   O     O_R   0.949080 0.999990 0.999170 -0.619839
O12   O     O_R   0.050920 0.999990 0.000830 -0.619831
O13   O     O_R   0.500000 0.550830 0.051830 -0.622684
O14   O     O_R   0.500000 0.550830 0.948170 -0.622694
O15   O     O_R   0.000000 0.050830 0.051830 -0.622699
O16   O     O_R   1.000000 0.050830 0.948170 -0.622681
O17   O     O_R   0.050890 0.471250 0.449130 -0.628884
O18   O     O_R   0.949110 0.471250 0.550870 -0.628920
O19   O     O_R   0.550890 0.971250 0.449130 -0.628929
O20   O     O_R   0.449110 0.971250 0.550870 -0.628895
O21   O     O_R   0.000000 0.528730 0.591620 -0.587381
O22   O     O_R   1.000000 0.528730 0.408380 -0.587372
O23   O     O_R   0.500000 0.028730 0.591620 -0.587396
O24   O     O_R   0.500000 0.028730 0.408380 -0.587384
O25   O     O_R   0.999980 0.471250 0.591630 -0.635747
O26   O     O_R   0.000020 0.471250 0.408370 -0.635747
O27   O     O_R   0.499980 0.971250 0.591630 -0.635734
O28   O     O_R   0.500020 0.971250 0.408370 -0.635738
O29   O     O_R   0.971250 0.449060 0.028730 -0.616056
O30   O     O_R   0.028750 0.449060 0.971270 -0.616063
O31   O     O_R   0.471250 0.949060 0.028730 -0.616049
O32   O     O_R   0.528750 0.949060 0.971270 -0.616044
O33   O     O_R   0.971250 0.499970 0.937120 -0.624735
O34   O     O_R   0.028750 0.499970 0.062880 -0.624728
O35   O     O_R   0.471250 0.999970 0.937120 -0.624731
O36   O     O_R   0.528750 0.999970 0.062880 -0.624734
O37   O     O_R   0.028730 0.499980 0.879660 -0.609132
O38   O     O_R   0.971270 0.499980 0.120340 -0.609147
O39   O     O_R   0.528730 0.999980 0.879660 -0.609125
O40   O     O_R   0.471270 0.999980 0.120340 -0.609120
O41   O     O_R   0.971250 0.550880 0.028740 -0.625297
O42   O     O_R   0.028750 0.550880 0.971260 -0.625296
O43   O     O_R   0.471250 0.050880 0.028740 -0.625292
O44   O     O_R   0.528750 0.050880 0.971260 -0.625293
O45   O     O_R   0.499970 0.449010 0.051630 -0.622509
O46   O     O_R   0.500030 0.449010 0.948370 -0.622494
O47   O     O_R   0.999970 0.949010 0.051630 -0.622488
O48   O     O_R   0.000030 0.949010 0.948370 -0.622513
Zn1   Zn    Zn3+2 0.000000 0.538370 0.500000 1.051676
Zn2   Zn    Zn3+2 0.500000 0.038370 0.500000 1.051662
Zn3   Zn    Zn3+2 0.000000 0.461610 0.500000 0.968495
Zn4   Zn    Zn3+2 0.500000 0.961610 0.500000 0.968499
Zn5   Zn    Zn3+2 0.961610 0.499970 0.038370 0.978297
Zn6   Zn    Zn3+2 0.038390 0.499970 0.961630 0.978315
Zn7   Zn    Zn3+2 0.461610 0.999970 0.038370 0.978329
Zn8   Zn    Zn3+2 0.538390 0.999970 0.961630 0.978324
Zn9   Zn    Zn3+2 0.499990 0.499910 0.069080 0.972827
Zn10  Zn    Zn3+2 0.500010 0.499910 0.930920 0.972839
Zn11  Zn    Zn3+2 0.999990 0.999910 0.069080 0.972840
Zn12  Zn    Zn3+2 0.000010 0.999910 0.930920 0.972825
I1    I     I_    0.862310 0.613608 0.720238 -0.338094
I2    I     I_    0.137584 0.613712 0.279916 -0.338002
I3    I     I_    0.362350 0.113630 0.720144 -0.338072
I4    I     I_    0.637717 0.113593 0.279692 -0.338124
C241  C     C_2   0.324596 0.495636 0.051403 0.908358
O49   O     O_2   0.295222 0.484822 0.074684 -0.605204
O50   O     O_R   0.342600 0.506568 0.981136 -0.811265
H125  H     H_    0.328504 0.504515 0.955683 0.354944
C242  C     C_2   0.675399 0.495421 0.948603 0.908424
O51   O     O_2   0.704789 0.484643 0.925240 -0.605212
O52   O     O_R   0.657370 0.506209 0.018967 -0.811273
H126  H     H_    0.671465 0.504093 0.044414 0.354943
C243  C     C_2   0.824600 0.995267 0.051417 0.908438
O53   O     O_2   0.795210 0.984482 0.074822 -0.605258
O54   O     O_R   0.842627 0.005997 0.981013 -0.811268
H127  H     H_    0.828533 0.003834 0.955574 0.354942
C244  C     C_2   0.175404 0.995585 0.948595 0.908360
O55   O     O_2   0.204776 0.984766 0.925304 -0.605198
O56   O     O_R   0.157400 0.006502 0.018874 -0.811263
H128  H     H_    0.171495 0.004434 0.044326 0.354943
C245  C     C_2   0.284226 0.429915 0.234370 0.908287
O57   O     O_2   0.268618 0.406810 0.275969 -0.626379
O58   O     O_R   0.317685 0.423899 0.180189 -0.790839
H129  H     H_    0.326089 0.399835 0.181651 0.351054
C246  C     C_2   0.715769 0.429965 0.765158 0.908163
O59   O     O_2   0.731346 0.406942 0.723301 -0.626373
O60   O     O_R   0.682341 0.423880 0.819409 -0.790783
H130  H     H_    0.673930 0.399841 0.817773 0.351046
C247  C     C_2   0.784226 0.929956 0.234956 0.908256
O61   O     O_2   0.768624 0.906927 0.276775 -0.626378
O62   O     O_R   0.817678 0.923879 0.180802 -0.790854
H131  H     H_    0.826081 0.899840 0.182466 0.351054
C248  C     C_2   0.215773 0.929920 0.765534 0.908282
O63   O     O_2   0.231380 0.906828 0.723900 -0.626380
O64   O     O_R   0.182315 0.923894 0.819711 -0.790833
H132  H     H_    0.173911 0.899834 0.818214 0.351053
C249  C     C_2   0.108132 0.550801 0.470420 0.922377
O65   O     O_2   0.082497 0.543754 0.525964 -0.633553
O66   O     O_R   0.123526 0.583088 0.461660 -0.783166
H133  H     H_    0.110672 0.598499 0.504287 0.350217
C250  C     C_2   0.891868 0.550865 0.529697 0.922448
O67   O     O_2   0.917492 0.543834 0.474120 -0.633475
O68   O     O_R   0.876485 0.583163 0.538551 -0.783112
H134  H     H_    0.889338 0.598596 0.495960 0.350219
C251  C     C_2   0.608137 0.050875 0.470270 0.922449
O69   O     O_2   0.582514 0.043849 0.525853 -0.633478
O70   O     O_R   0.623520 0.083175 0.461395 -0.783110
H135  H     H_    0.610669 0.098612 0.503978 0.350217
C252  C     C_2   0.391867 0.050815 0.529607 0.922378
O71   O     O_2   0.417500 0.043771 0.474056 -0.633554
O72   O     O_R   0.376475 0.083104 0.538387 -0.783143
H136  H     H_    0.389328 0.098520 0.495768 0.350214
C253  C     C_2   0.060992 0.323967 0.984285 0.893694
O73   O     O_2   0.089066 0.337951 0.951882 -0.629670
O74   O     O_R   0.058639 0.291990 0.015858 -0.804219
H137  H     H_    0.081821 0.282986 0.007170 0.351734
C254  C     C_2   0.939005 0.323967 0.015735 0.893684
O75   O     O_2   0.910931 0.337950 0.048145 -0.629680
O76   O     O_R   0.941358 0.291992 0.984158 -0.804218
H138  H     H_    0.918175 0.282988 0.992850 0.351727
C255  C     C_2   0.560975 0.823967 0.984374 0.893703
O77   O     O_2   0.589050 0.837953 0.952013 -0.629641
O78   O     O_R   0.558611 0.791988 0.015948 -0.804225
H139  H     H_    0.581788 0.782985 0.007297 0.351730
C256  C     C_2   0.439025 0.823968 0.015623 0.893707
O79   O     O_2   0.410950 0.837952 0.047989 -0.629640
O80   O     O_R   0.441390 0.791991 0.984042 -0.804222
H140  H     H_    0.418213 0.782988 0.992694 0.351734

loop_
_geom_bond_atom_site_label_1
_geom_bond_atom_site_label_2
_ccdc_geom_bond_type
C99   C103  A    
O64   H132  S    
O14   Zn10  S    
C129  C185  S    
C165  C199  A    
C248  O63   D    
C77   C101  A    
C198  C216  S    
O21   Zn1   S    
C223  C226  A    
C190  H78   S    
C251  O69   D    
C189  C203  A    
C6    C238  A    
C140  O43   A    
C151  H55   S    
C152  H56   S    
C180  C256  S    
C222  H98   S    
C55   C59   A    
C26   C50   A    
C95   C99   A    
C194  C197  A    
O37   Zn6   S    
C205  C211  A    
C29   C33   A    
C100  C104  A    
C37   H5    S    
C8    C138  S    
C148  C160  S    
C9    C13   A    
C2    O2    A    
C47   O27   A    
C54   C74   A    
C11   C15   A    
C48   O28   A    
C217  H93   S    
C152  C156  A    
C27   C51   A    
C246  O60   S    
C46   O22   A    
C105  H41   S    
C151  C155  A    
C92   H36   S    
C161  H61   S    
C24   C240  A    
C81   C85   A    
C195  C198  A    
O15   Zn11  S    
C241  O50   S    
O26   Zn3   S    
C76   C146  S    
C155  C158  A    
C89   H33   S    
C240  H112  S    
C25   H117  S    
C1    C113  S    
C195  H83   S    
C41   C49   A    
O6    Zn10  S    
C236  I4    S    
C25   C29   A    
C150  C159  A    
C230  H106  S    
C27   C31   A    
O66   H133  S    
C150  H54   S    
C184  H76   S    
C28   C32   A    
C68   H20   S    
C30   C34   A    
C69   H21   S    
C179  C188  A    
C177  C253  S    
C98   C102  A    
C92   C236  A    
O24   Zn2   S    
O25   Zn3   S    
C182  C185  A    
C19   C23   A    
C229  H105  S    
C220  H96   S    
C78   C82   A    
C110  H46   S    
C68   C72   A    
C172  H68   S    
C192  C204  A    
C95   H31   S    
C178  C182  A    
C23   C167  S    
C169  H65   S    
C1    O17   A    
O43   Zn7   S    
C221  H97   S    
C3    O19   A    
O41   Zn5   S    
O7    Zn11  S    
C153  H57   S    
C178  C254  S    
C136  O34   A    
C140  C226  S    
C64   C104  S    
C84   C88   A    
C124  H52   S    
O17   Zn3   S    
C57   C61   A    
C144  O10   A    
C59   C63   A    
C89   C131  A    
C105  C125  A    
C60   C64   A    
C156  C158  A    
C199  C229  A    
C107  C127  A    
C253  O74   S    
C2    C114  S    
C66   C70   A    
C233  I1    S    
C207  C216  A    
C55   H15   S    
C230  C234  A    
C245  O57   D    
C4    O20   A    
C22   C166  S    
C43   H11   S    
C93   H29   S    
C147  O13   A    
C235  I3    S    
O11   Zn12  S    
C180  C184  A    
O12   Zn11  S    
C94   H30   S    
C21   C237  A    
C35   H3    S    
C221  C225  A    
C86   C126  S    
C33   H1    S    
C122  H50   S    
C119  C123  A    
C21   C165  S    
C239  H111  S    
C241  O49   D    
C5    C9    A    
C131  H69   S    
C220  C228  A    
O4    Zn2   S    
C79   C247  S    
C64   C68   A    
C17   C45   S    
C119  C251  S    
C153  C157  A    
C19   C47   S    
C148  O16   A    
C96   H32   S    
C91   C235  A    
C232  C236  A    
C118  C122  A    
C89   C233  A    
C97   H37   S    
C149  C153  A    
O16   Zn12  S    
C99   H39   S    
C137  O39   A    
O50   H125  S    
C168  C202  A    
C87   C95   A    
C219  H95   S    
C219  C228  A    
C110  C114  A    
C55   C75   A    
C212  H92   S    
O36   Zn8   S    
C81   H25   S    
C54   H14   S    
C79   C103  A    
O35   Zn7   S    
C172  C174  A    
C58   C242  S    
C25   C49   A    
C8    C240  A    
O38   Zn5   S    
C62   C66   A    
C12   C16   A    
C9    C49   S    
C10   C14   A    
C183  C186  A    
O47   Zn11  S    
C48   O24   A    
C162  C175  A    
C222  C225  A    
C205  H85   S    
C116  C120  A    
C231  H107  S    
C106  H42   S    
C142  C204  S    
C45   O21   A    
C61   C101  S    
C143  O5    A    
C121  C125  A    
C255  O77   D    
C162  H62   S    
C61   C65   A    
C123  C127  A    
O76   H138  S    
C8    C12   A    
C130  O32   A    
C254  O75   D    
C90   H34   S    
C108  C128  A    
C256  O80   S    
C205  C215  A    
C42   C50   A    
C113  C117  A    
C26   C30   A    
C115  C119  A    
C56   H16   S    
C134  C168  A    
C141  O46   A    
C93   C97   A    
C112  C116  A    
C237  H109  S    
O20   Zn4   S    
C70   H22   S    
O70   H135  S    
C105  C109  A    
C173  C187  S    
C18   C22   A    
O40   Zn7   S    
C107  C111  A    
C92   C134  A    
C129  O30   A    
C120  C252  S    
C66   H18   S    
C108  H44   S    
C83   C87   A    
C32   C36   A    
C142  O47   A    
C252  O72   S    
C210  C213  A    
C140  O44   A    
C117  C249  S    
C13   C17   A    
C137  O35   A    
C223  H99   S    
C30   H122  S    
O29   Zn5   S    
C170  H66   S    
C177  C181  A    
C96   C100  A    
C250  O68   S    
C193  H81   S    
C29   H121  S    
C37   C41   A    
C191  C195  A    
O60   H130  S    
C161  C171  A    
C189  C193  A    
C201  C231  A    
C211  C214  A    
C162  C172  A    
C154  H58   S    
C211  H91   S    
C246  O59   D    
O78   H139  S    
C207  C209  A    
C169  C173  A    
O8    Zn12  S    
C231  C235  A    
C67   H19   S    
C62   C102  S    
C78   C246  S    
C144  O6    A    
C206  C215  A    
C58   C62   A    
C200  H102  S    
C88   C96   A    
C224  H100  S    
C78   C102  A    
C28   H120  S    
O74   H137  S    
C80   C84   A    
C131  C165  A    
C15   C19   A    
C234  I2    S    
C5    C237  A    
C80   C104  A    
C192  C196  A    
O39   Zn8   S    
C54   C58   A    
C244  O56   S    
C34   H2    S    
C94   C98   A    
C38   H6    S    
C155  H59   S    
C149  H53   S    
C84   H28   S    
C5    C135  S    
C27   H119  S    
C109  H45   S    
C247  O62   S    
C181  H73   S    
C180  C188  A    
C164  C170  A    
C15   H115  S    
C242  O52   S    
C69   C73   A    
O27   Zn4   S    
C123  H51   S    
C139  O42   A    
C45   O25   A    
C59   C243  S    
C124  C128  A    
C90   C132  A    
C251  O70   S    
C192  H80   S    
C147  C159  S    
O62   H131  S    
C218  H94   S    
C26   H118  S    
C217  C221  A    
C248  O64   S    
C53   H13   S    
C145  O11   A    
C18   C46   S    
C202  H104  S    
C12   C52   S    
C243  O54   S    
C71   H23   S    
C171  C174  A    
C72   H24   S    
C207  H87   S    
O58   H129  S    
C36   H4    S    
C154  C157  A    
C196  C198  A    
C32   H124  S    
C53   C57   A    
C201  H103  S    
C209  H89   S    
C7    C137  S    
C199  H101  S    
C33   C37   A    
C56   C60   A    
O23   Zn2   S    
C35   C39   A    
O54   H127  S    
C253  O73   D    
C213  C227  S    
C23   C239  A    
C135  O33   A    
O9    Zn10  S    
C82   H26   S    
C20   C48   S    
O2    Zn1   S    
C217  C227  A    
C39   H7    S    
C178  C187  A    
C63   C103  S    
C212  C214  A    
C98   H38   S    
C31   C35   A    
O32   Zn8   S    
C191  C204  A    
C10   C50   S    
C2    O18   A    
C218  C227  A    
C202  C232  A    
C73   C143  S    
C146  O8    A    
C74   C144  S    
O33   Zn5   S    
O45   Zn9   S    
C4    C116  S    
C107  H43   S    
C143  O9    A    
C138  O40   A    
C6    C10   A    
C164  H64   S    
O13   Zn9   S    
C106  C126  A    
C177  C187  A    
C139  C225  S    
C91   H35   S    
C77   C245  S    
C3    C115  S    
C82   C86   A    
C43   C51   A    
C65   C69   A    
C83   H27   S    
C184  C186  A    
C164  C176  A    
C67   C71   A    
C167  C201  A    
C206  C212  A    
C4    O4    A    
C163  C169  A    
C209  C213  A    
C219  C223  A    
O28   Zn4   S    
C108  C112  A    
C42   H10   S    
C255  O78   S    
C182  H74   S    
C111  H47   S    
C16   H116  S    
C132  H70   S    
C133  H71   S    
C47   O23   A    
C22   C238  A    
C170  C173  A    
C17   C21   A    
C152  C160  A    
C56   C76   A    
C46   O26   A    
C243  O53   D    
C14   C18   A    
C85   C125  S    
C80   C248  S    
C72   C76   A    
O1    Zn1   S    
C87   C127  S    
O18   Zn3   S    
C75   C145  S    
C7    C11   A    
C171  H67   S    
O22   Zn1   S    
C57   C241  S    
C135  O37   A    
C24   C168  S    
O3    Zn2   S    
C132  C166  A    
C38   C42   A    
C133  C167  A    
O5    Zn9   S    
C161  C175  A    
C190  C203  A    
O48   Zn12  S    
C208  H88   S    
C90   C234  A    
C245  O58   S    
C117  C121  A    
C70   C74   A    
C232  H108  S    
C6    C136  S    
C86   C94   A    
C254  O76   S    
C31   H123  S    
C44   H12   S    
C20   C24   A    
C79   C83   A    
O80   H140  S    
C147  O14   A    
C77   C81   A    
C214  C228  S    
C256  O79   D    
C197  C215  S    
C16   C20   A    
C174  C188  S    
C208  C216  A    
C138  O36   A    
C100  H40   S    
C229  C233  A    
C141  O45   A    
C85   C93   A    
C163  C176  A    
C40   H8    S    
C218  C222  A    
C179  C183  A    
C249  O66   S    
C13   H113  S    
O42   Zn6   S    
C63   C67   A    
C36   C40   A    
C129  O29   A    
O30   Zn6   S    
O72   H136  S    
C181  C185  A    
C148  O15   A    
C39   C43   A    
C206  H86   S    
C142  O48   A    
C252  O71   D    
C136  O38   A    
C122  C126  A    
C249  O65   D    
C60   C244  S    
O68   H134  S    
C91   C133  A    
C40   C44   A    
C250  O67   D    
C196  H84   S    
O44   Zn8   S    
C149  C159  A    
C145  O7    A    
C114  C118  A    
C157  C175  S    
C118  C250  S    
C158  C176  S    
C7    C239  A    
C183  H75   S    
C200  C230  A    
C238  H110  S    
C220  C224  A    
C106  C110  A    
C191  H79   S    
C65   H17   S    
C189  H77   S    
C1    O1    A    
C34   C38   A    
C156  H60   S    
C53   C73   A    
C141  C203  S    
C3    O3    A    
C224  C226  A    
O34   Zn6   S    
C130  C186  S    
C109  C113  A    
C179  C255  S    
O10   Zn9   S    
C121  H49   S    
C151  C160  A    
O31   Zn7   S    
C163  H63   S    
O56   H128  S    
C88   C128  S    
C71   C75   A    
C28   C52   A    
C44   C52   A    
C244  O55   D    
C193  C197  A    
C130  O31   A    
C194  H82   S    
C14   H114  S    
C247  O61   D    
C166  C200  A    
C11   C51   S    
C190  C194  A    
O52   H126  S    
C146  O12   A    
C208  C210  A    
C242  O51   D    
C150  C154  A    
C41   H9    S    
C210  H90   S    
O46   Zn10  S    
C111  C115  A    
C112  H48   S    
O19   Zn4   S    
C139  O41   A    
C97   C101  A    
C120  C124  A    
C134  H72   S    
