data_mof_unit_15938.cif
_audit_creation_date              2012-12-11T15:20:01-0500
_audit_creation_method            fapswitch 2.2
_symmetry_space_group_name_H-M    P1
_symmetry_Int_Tables_number       1
_space_group_crystal_system       triclinic
_cell_length_a                    16.677361
_cell_length_b                    16.677299
_cell_length_c                    43.279107
_cell_angle_alpha                 90.000085
_cell_angle_beta                  90.000338
_cell_angle_gamma                 120.001056
_cell_volume                      10424.5507076

loop_
_atom_site_label
_atom_site_type_symbol
_atom_type_description
_atom_site_fract_x
_atom_site_fract_y
_atom_site_fract_z
_atom_type_partial_charge
C1    C     C_R   0.584221 0.426122 0.794433 0.544105
C2    C     C_R   0.426125 0.584216 0.205570 0.544116
C3    C     C_R   0.032485 0.598660 0.435703 0.442173
C4    C     C_R   0.566220 0.967637 0.064309 0.442160
C5    C     C_R   0.401331 0.433785 0.435701 0.442186
C6    C     C_R   0.598705 0.032532 0.564292 0.442185
C7    C     C_R   0.967811 0.566301 0.935676 0.442170
C8    C     C_R   0.433731 0.401425 0.564312 0.442178
C9    C     C_R   0.598668 0.032518 0.935706 0.442167
C10   C     C_R   0.967628 0.566218 0.564307 0.442166
C11   C     C_R   0.433810 0.401280 0.935709 0.442193
C12   C     C_R   0.020668 0.448920 0.064622 0.437258
C13   C     C_R   0.415784 0.841909 0.294430 0.544109
C14   C     C_R   0.428148 0.979224 0.435382 0.437265
C15   C     C_R   0.551090 0.571826 0.064621 0.437262
C16   C     C_R   0.020715 0.448919 0.435377 0.437261
C17   C     C_R   0.428166 0.979257 0.064623 0.437263
C18   C     C_R   0.551082 0.571747 0.435375 0.437259
C19   C     C_R   0.448918 0.020654 0.564625 0.437257
C20   C     C_R   0.979255 0.428148 0.935377 0.437265
C21   C     C_R   0.571808 0.551085 0.564621 0.437262
C22   C     C_R   0.448941 0.020778 0.935383 0.437265
C23   C     C_R   0.979224 0.428150 0.564619 0.437265
C24   C     C_R   0.158099 0.573877 0.205567 0.544105
C25   C     C_R   0.571714 0.551075 0.935375 0.437256
C26   C     C_R   0.009549 0.442305 0.032423 0.038386
C27   C     C_R   0.432681 0.990345 0.467581 0.038391
C28   C     C_R   0.557671 0.567296 0.032421 0.038387
C29   C     C_R   0.009576 0.442304 0.467576 0.038391
C30   C     C_R   0.432702 0.990403 0.032425 0.038393
C31   C     C_R   0.557688 0.567236 0.467575 0.038385
C32   C     C_R   0.442301 0.009527 0.532427 0.038387
C33   C     C_R   0.990378 0.432684 0.967577 0.038388
C34   C     C_R   0.567284 0.557674 0.532421 0.038387
C35   C     C_R   0.149234 0.542056 0.119969 0.027609
C36   C     C_R   0.442326 0.009636 0.967581 0.038392
C37   C     C_R   0.990360 0.432684 0.532420 0.038392
C38   C     C_R   0.567214 0.557686 0.967574 0.038385
C39   C     C_R   0.006230 0.513864 0.016208 -0.030489
C40   C     C_R   0.507688 0.993884 0.483778 -0.030488
C41   C     C_R   0.486196 0.492292 0.016224 -0.030488
C42   C     C_R   0.006174 0.513828 0.483784 -0.030487
C43   C     C_R   0.507676 0.993888 0.016223 -0.030486
C44   C     C_R   0.486152 0.492323 0.483784 -0.030490
C45   C     C_R   0.513852 0.006189 0.516213 -0.030489
C46   C     C_R   0.392916 0.850726 0.380033 0.027632
C47   C     C_R   0.993934 0.507702 0.983772 -0.030488
C48   C     C_R   0.492306 0.486183 0.516221 -0.030489
C49   C     C_R   0.513843 0.006216 0.983788 -0.030487
C50   C     C_R   0.993854 0.507663 0.516219 -0.030486
C51   C     C_R   0.492329 0.486131 0.983788 -0.030491
C52   C     C_R   0.008176 0.660547 0.015882 -0.114248
C53   C     C_R   0.652647 0.992375 0.484069 -0.114254
C54   C     C_R   0.339723 0.347333 0.015934 -0.114247
C55   C     C_R   0.007977 0.660442 0.484099 -0.114267
C56   C     C_R   0.652566 0.992242 0.015920 -0.114269
C57   C     C_R   0.457830 0.607074 0.119967 0.027630
C58   C     C_R   0.339528 0.347520 0.484101 -0.114244
C59   C     C_R   0.660519 0.008103 0.515890 -0.114254
C60   C     C_R   0.992460 0.652680 0.984061 -0.114245
C61   C     C_R   0.347391 0.339667 0.515922 -0.114243
C62   C     C_R   0.660442 0.007992 0.984101 -0.114270
C63   C     C_R   0.992234 0.652567 0.515918 -0.114266
C64   C     C_R   0.347574 0.339463 0.984113 -0.114249
C65   C     C_R   0.003725 0.366795 0.016042 -0.112468
C66   C     C_R   0.362902 0.995953 0.483979 -0.112464
C67   C     C_R   0.633057 0.637077 0.016022 -0.112449
C68   C     C_R   0.149260 0.542100 0.380030 0.027621
C69   C     C_R   0.003812 0.366829 0.483962 -0.112486
C70   C     C_R   0.362959 0.996094 0.016033 -0.112492
C71   C     C_R   0.633162 0.636952 0.483961 -0.112458
C72   C     C_R   0.366799 0.003715 0.516045 -0.112472
C73   C     C_R   0.995967 0.362897 0.983976 -0.112460
C74   C     C_R   0.637047 0.633087 0.516027 -0.112453
C75   C     C_R   0.366858 0.003882 0.983968 -0.112492
C76   C     C_R   0.996033 0.362932 0.516027 -0.112483
C77   C     C_R   0.636911 0.633186 0.983956 -0.112456
C78   C     C_1   0.011857 0.590065 0.811000 0.224413
C79   C     C_R   0.392879 0.850727 0.119969 0.027631
C80   C     C_1   0.578772 0.988466 0.688960 0.224489
C81   C     C_1   0.409643 0.421122 0.811043 0.224500
C82   C     C_1   0.011711 0.590166 0.688975 0.224452
C83   C     C_1   0.578609 0.988383 0.811042 0.224472
C84   C     C_1   0.409834 0.421556 0.688984 0.224440
C85   C     C_1   0.590133 0.011766 0.311015 0.224436
C86   C     C_1   0.988461 0.578757 0.188956 0.224485
C87   C     C_1   0.421336 0.409738 0.311030 0.224471
C88   C     C_1   0.590176 0.011709 0.188977 0.224452
C89   C     C_1   0.988393 0.578637 0.311036 0.224474
C90   C     C_R   0.457911 0.607134 0.380032 0.027614
C91   C     C_1   0.421624 0.409864 0.188991 0.224434
C92   C     C_1   0.207585 0.533930 0.096998 0.263139
C93   C     C_1   0.326524 0.792299 0.403013 0.263200
C94   C     C_1   0.465817 0.673471 0.096986 0.263174
C95   C     C_1   0.207644 0.534034 0.403003 0.263206
C96   C     C_1   0.326464 0.792312 0.096992 0.263230
C97   C     C_1   0.466001 0.673586 0.403008 0.263134
C98   C     C_1   0.533935 0.207576 0.596998 0.263158
C99   C     C_1   0.792302 0.326594 0.903020 0.263178
C100  C     C_1   0.673498 0.465854 0.596987 0.263158
C101  C     C_R   0.542055 0.149223 0.619970 0.027613
C102  C     C_1   0.534082 0.207702 0.903001 0.263229
C103  C     C_1   0.792292 0.326465 0.596992 0.263224
C104  C     C_1   0.673659 0.466126 0.903002 0.263129
C105  C     C_R   0.841906 0.415782 0.705569 0.544114
C106  C     C_R   0.850736 0.392957 0.880034 0.027637
C107  C     C_R   0.607089 0.457845 0.619967 0.027624
C108  C     C_R   0.542126 0.149300 0.880030 0.027622
C109  C     C_R   0.850711 0.392878 0.619968 0.027631
C110  C     C_R   0.607172 0.457974 0.880030 0.027607
C111  C     C_R   0.175811 0.551321 0.150825 -0.161013
C112  C     C_R   0.375606 0.824120 0.349179 -0.160990
C113  C     C_R   0.448528 0.624388 0.150820 -0.160998
C114  C     C_R   0.175840 0.551374 0.349175 -0.161001
C115  C     C_R   0.375574 0.824132 0.150823 -0.160987
C116  C     C_R   0.573876 0.158097 0.794431 0.544113
C117  C     C_R   0.448639 0.624453 0.349177 -0.161009
C118  C     C_R   0.551319 0.175803 0.650825 -0.161011
C119  C     C_R   0.824109 0.375646 0.849182 -0.160986
C120  C     C_R   0.624404 0.448553 0.650820 -0.161000
C121  C     C_R   0.551397 0.175870 0.849174 -0.160996
C122  C     C_R   0.824120 0.375574 0.650823 -0.160991
C123  C     C_R   0.624495 0.448719 0.849174 -0.161019
C124  C     C_R   0.043286 0.565955 0.165798 -0.046117
C125  C     C_R   0.522595 0.956847 0.334184 -0.046118
C126  C     C_R   0.434250 0.477398 0.165819 -0.046120
C127  C     C_R   0.584217 0.426124 0.705569 0.544115
C128  C     C_R   0.043250 0.565891 0.334196 -0.046113
C129  C     C_R   0.522609 0.956809 0.165812 -0.046111
C130  C     C_R   0.434095 0.477339 0.334193 -0.046123
C131  C     C_R   0.565957 0.043282 0.665802 -0.046118
C132  C     C_R   0.956904 0.522570 0.834175 -0.046113
C133  C     C_R   0.477384 0.434211 0.665815 -0.046121
C134  C     C_R   0.565879 0.043256 0.834201 -0.046110
C135  C     C_R   0.956807 0.522603 0.665810 -0.046114
C136  C     C_R   0.477298 0.433993 0.834200 -0.046133
C137  C     C_R   0.015013 0.554240 0.134783 -0.062122
C138  C     C_R   0.841911 0.415785 0.794430 0.544112
C139  C     C_R   0.539149 0.985141 0.365197 -0.062104
C140  C     C_R   0.445993 0.460838 0.134807 -0.062102
C141  C     C_R   0.014975 0.554167 0.365211 -0.062114
C142  C     C_R   0.539160 0.985094 0.134798 -0.062105
C143  C     C_R   0.445817 0.460774 0.365207 -0.062118
C144  C     C_R   0.554239 0.015003 0.634787 -0.062122
C145  C     C_R   0.985211 0.539129 0.865187 -0.062095
C146  C     C_R   0.460823 0.445946 0.634803 -0.062107
C147  C     C_R   0.554159 0.014992 0.865216 -0.062114
C148  C     C_R   0.985088 0.539152 0.634796 -0.062108
C149  C     C_R   0.573877 0.158099 0.705568 0.544102
C150  C     C_R   0.460733 0.445710 0.865214 -0.062130
C151  C     C_R   0.067252 0.541750 0.111727 0.211299
C152  C     C_R   0.474504 0.932815 0.388263 0.211288
C153  C     C_R   0.458324 0.525482 0.111739 0.211290
C154  C     C_R   0.067245 0.541732 0.388269 0.211295
C155  C     C_R   0.474489 0.932788 0.111735 0.211293
C156  C     C_R   0.458266 0.525477 0.388268 0.211297
C157  C     C_R   0.541747 0.067238 0.611730 0.211296
C158  C     C_R   0.932862 0.474516 0.888258 0.211299
C159  C     C_R   0.525482 0.458304 0.611736 0.211291
C160  C     C_R   0.426123 0.584220 0.294432 0.544110
C161  C     C_R   0.541743 0.067280 0.888273 0.211294
C162  C     C_R   0.932775 0.474483 0.611733 0.211293
C163  C     C_R   0.525476 0.458242 0.888271 0.211290
C164  C     C_R   0.876630 0.439456 0.826133 -0.002837
C165  C     C_R   0.562833 0.123393 0.673862 -0.002906
C166  C     C_R   0.560555 0.437166 0.826138 -0.002933
C167  C     C_R   0.876606 0.439440 0.673864 -0.002847
C168  C     C_R   0.562838 0.123409 0.826138 -0.002861
C169  C     C_R   0.560548 0.437170 0.673865 -0.002874
C170  C     C_R   0.439449 0.876618 0.326135 -0.002848
C171  C     C_R   0.415782 0.841907 0.205570 0.544111
C172  C     C_R   0.123398 0.562834 0.173861 -0.002909
C173  C     C_R   0.437167 0.560553 0.326137 -0.002900
C174  C     C_R   0.439442 0.876611 0.173865 -0.002845
C175  C     C_R   0.123397 0.562834 0.326137 -0.002878
C176  C     C_R   0.437171 0.560546 0.173866 -0.002863
C177  C     C_R   0.014987 0.591380 0.032291 0.039448
C178  C     C_R   0.576543 0.985336 0.467678 0.039448
C179  C     C_R   0.408794 0.423436 0.032324 0.039447
C180  C     C_R   0.014875 0.591313 0.467697 0.039449
C181  C     C_R   0.576494 0.985260 0.032316 0.039448
C182  C     C_R   0.158096 0.573876 0.294431 0.544111
C183  C     C_R   0.408668 0.423535 0.467697 0.039447
C184  C     C_R   0.591362 0.014937 0.532297 0.039450
C185  C     C_R   0.985409 0.576568 0.967671 0.039445
C186  C     C_R   0.423469 0.408757 0.532317 0.039446
C187  C     C_R   0.591321 0.014905 0.967700 0.039450
C188  C     C_R   0.985243 0.576489 0.532313 0.039449
C189  C     C_R   0.423563 0.408621 0.967705 0.039449
C190  C     C_R   0.032568 0.598718 0.064287 0.442188
C191  C     C_R   0.566273 0.967730 0.435684 0.442168
C192  C     C_R   0.401463 0.433706 0.064320 0.442175
Cr1   Cr    Cr6+3 0.530290 0.262330 0.750000 1.075251
Cr2   Cr    Cr6+3 0.732040 0.469710 0.750000 1.075227
Cr3   Cr    Cr6+3 0.737670 0.267960 0.750000 1.075290
Cr4   Cr    Cr6+3 0.262330 0.530290 0.250000 1.075238
Cr5   Cr    Cr6+3 0.469710 0.732040 0.250000 1.075246
Cr6   Cr    Cr6+3 0.267960 0.737670 0.250000 1.075280
H1    H     H_    0.992632 0.304103 0.972110 0.173659
H2    H     H_    0.304200 0.992816 0.027905 0.173643
H3    H     H_    0.007025 0.311319 0.472086 0.173646
H4    H     H_    0.688525 0.695861 0.027890 0.173667
H5    H     H_    0.986402 0.706739 0.972294 0.172524
H6    H     H_    0.720732 0.014341 0.527642 0.172509
H7    H     H_    0.293594 0.279251 0.972361 0.172512
H8    H     H_    0.986109 0.706595 0.527680 0.172511
H9    H     H_    0.720630 0.014181 0.972345 0.172505
H10   H     H_    0.293355 0.279521 0.527685 0.172522
H11   H     H_    0.706698 0.986299 0.472304 0.172519
H12   H     H_    0.311267 0.006877 0.527925 0.173653
H13   H     H_    0.014420 0.720765 0.027633 0.172511
H14   H     H_    0.279336 0.293524 0.472345 0.172517
H15   H     H_    0.706588 0.986104 0.027681 0.172510
H16   H     H_    0.014176 0.720634 0.472344 0.172506
H17   H     H_    0.279596 0.293282 0.027700 0.172523
H18   H     H_    0.048182 0.601965 0.871482 0.156558
H19   H     H_    0.554313 0.952146 0.628479 0.156580
H20   H     H_    0.397785 0.445601 0.871521 0.156602
H21   H     H_    0.048009 0.602027 0.628492 0.156574
H22   H     H_    0.554171 0.952106 0.871526 0.156574
H23   H     H_    0.695604 0.688719 0.972075 0.173662
H24   H     H_    0.397948 0.445995 0.628503 0.156580
H25   H     H_    0.602010 0.048082 0.371497 0.156582
H26   H     H_    0.952156 0.554313 0.128474 0.156572
H27   H     H_    0.445782 0.397860 0.371511 0.156578
H28   H     H_    0.602037 0.048013 0.128495 0.156571
H29   H     H_    0.952093 0.554192 0.371518 0.156575
H30   H     H_    0.446069 0.397975 0.128510 0.156582
H31   H     H_    0.238814 0.551106 0.156965 0.121851
H32   H     H_    0.312453 0.761037 0.343047 0.121713
H33   H     H_    0.448604 0.687544 0.156949 0.121718
H34   H     H_    0.992747 0.304168 0.527898 0.173648
H35   H     H_    0.238869 0.551207 0.343036 0.121804
H36   H     H_    0.312405 0.761068 0.156958 0.121744
H37   H     H_    0.448819 0.687657 0.343042 0.121816
H38   H     H_    0.551104 0.238808 0.656964 0.121850
H39   H     H_    0.760997 0.312516 0.843055 0.121664
H40   H     H_    0.687572 0.448655 0.656952 0.121744
H41   H     H_    0.551243 0.238904 0.843033 0.121790
H42   H     H_    0.761054 0.312408 0.656958 0.121739
H43   H     H_    0.687731 0.448967 0.843036 0.121885
H44   H     H_    0.311354 0.007109 0.972093 0.173643
H45   H     H_    0.695811 0.688568 0.527897 0.173663
H46   H     H_    0.304115 0.992628 0.472111 0.173658
H47   H     H_    0.006874 0.311257 0.027924 0.173654
H48   H     H_    0.688681 0.695666 0.472083 0.173661
N1    N     N_R   0.037231 0.528706 0.079881 -0.386507
N2    N     N_R   0.528695 0.037267 0.920119 -0.386514
N3    N     N_R   0.962803 0.491452 0.579889 -0.386515
N4    N     N_R   0.508492 0.471288 0.920115 -0.386498
N5    N     N_1   0.055886 0.644165 0.792393 -0.225676
N6    N     N_1   0.589064 0.944549 0.707554 -0.225703
N7    N     N_1   0.355412 0.410785 0.792450 -0.225686
N8    N     N_1   0.055701 0.644321 0.707573 -0.225664
N9    N     N_1   0.588833 0.944419 0.792449 -0.225696
N10   N     N_1   0.355690 0.411394 0.707586 -0.225693
N11   N     N_1   0.644269 0.055768 0.292413 -0.225678
N12   N     N_R   0.491477 0.962854 0.420107 -0.386512
N13   N     N_1   0.944534 0.589037 0.207550 -0.225700
N14   N     N_1   0.411090 0.355552 0.292432 -0.225678
N15   N     N_1   0.644334 0.055695 0.207575 -0.225673
N16   N     N_1   0.944442 0.588873 0.292441 -0.225696
N17   N     N_1   0.411486 0.355732 0.207594 -0.225681
N18   N     N_1   0.253889 0.527102 0.078488 -0.243393
N19   N     N_1   0.273463 0.745937 0.421530 -0.243401
N20   N     N_1   0.472536 0.726537 0.078467 -0.243436
N21   N     N_1   0.253976 0.527258 0.421514 -0.243324
N22   N     N_1   0.273384 0.745956 0.078478 -0.243322
N23   N     N_R   0.471389 0.508501 0.079896 -0.386509
N24   N     N_1   0.472802 0.726697 0.421521 -0.243422
N25   N     N_1   0.527114 0.253882 0.578488 -0.243367
N26   N     N_1   0.745937 0.273557 0.921542 -0.243437
N27   N     N_1   0.726573 0.472591 0.578469 -0.243434
N28   N     N_1   0.527325 0.254050 0.921510 -0.243299
N29   N     N_1   0.745933 0.273387 0.578478 -0.243343
N30   N     N_1   0.726798 0.472975 0.921512 -0.243401
N31   N     N_R   0.037221 0.528680 0.420114 -0.386513
N32   N     N_R   0.491460 0.962821 0.079892 -0.386518
N33   N     N_R   0.471318 0.508496 0.420112 -0.386507
N34   N     N_R   0.528701 0.037212 0.579885 -0.386508
N35   N     N_R   0.962913 0.491492 0.920100 -0.386519
N36   N     N_R   0.508502 0.471367 0.579893 -0.386509
O1    O     O_R   0.509640 0.171340 0.784000 -0.488268
O2    O     O_R   0.171340 0.509640 0.216000 -0.488269
O3    O     O_R   0.490360 0.661700 0.284000 -0.488260
O4    O     O_R   0.338300 0.828660 0.216000 -0.488255
O5    O     O_R   0.539230 0.345420 0.781810 -0.490937
O6    O     O_R   0.806190 0.460770 0.718190 -0.490941
O7    O     O_R   0.654580 0.193810 0.781810 -0.490913
O8    O     O_R   0.539230 0.345420 0.718190 -0.490943
O9    O     O_R   0.806190 0.460770 0.781810 -0.490965
O10   O     O_R   0.654580 0.193810 0.718190 -0.490930
O11   O     O_R   0.345420 0.539230 0.281810 -0.490944
O12   O     O_R   0.661700 0.490360 0.716000 -0.488245
O13   O     O_R   0.460770 0.806190 0.218190 -0.490936
O14   O     O_R   0.193810 0.654580 0.281810 -0.490920
O15   O     O_R   0.345420 0.539230 0.218190 -0.490951
O16   O     O_R   0.460770 0.806190 0.281810 -0.490953
O17   O     O_R   0.193810 0.654580 0.218190 -0.490926
O18   O     O_3   0.666667 0.333333 0.750000 -0.273875
O19   O     O_3   0.333333 0.666667 0.250000 -0.273874
O20   O     O_2   0.045404 0.667971 0.078181 -0.490866
O21   O     O_2   0.622777 0.955057 0.421776 -0.490903
O22   O     O_2   0.332287 0.377203 0.078228 -0.490900
O23   O     O_R   0.828660 0.338300 0.784000 -0.488225
O24   O     O_2   0.045281 0.667895 0.421805 -0.490880
O25   O     O_2   0.622690 0.954899 0.078211 -0.490892
O26   O     O_2   0.332099 0.377343 0.421803 -0.490874
O27   O     O_2   0.667957 0.045366 0.578187 -0.490872
O28   O     O_2   0.955166 0.622819 0.921766 -0.490890
O29   O     O_2   0.377243 0.332234 0.578218 -0.490892
O30   O     O_2   0.667898 0.045303 0.921808 -0.490885
O31   O     O_2   0.954905 0.622696 0.578211 -0.490892
O32   O     O_2   0.377390 0.332026 0.921815 -0.490878
O33   O     O_2   0.017176 0.384366 0.079161 -0.489490
O34   O     O_R   0.509640 0.171340 0.716000 -0.488270
O35   O     O_2   0.366970 0.982542 0.420857 -0.489456
O36   O     O_2   0.615594 0.632999 0.079145 -0.489464
O37   O     O_2   0.017287 0.384387 0.420843 -0.489474
O38   O     O_2   0.367017 0.982615 0.079152 -0.489460
O39   O     O_2   0.615623 0.632839 0.420841 -0.489485
O40   O     O_2   0.384367 0.017173 0.579163 -0.489488
O41   O     O_2   0.982546 0.366952 0.920855 -0.489448
O42   O     O_2   0.632960 0.615598 0.579148 -0.489468
O43   O     O_2   0.384416 0.017367 0.920850 -0.489465
O44   O     O_2   0.982576 0.366996 0.579147 -0.489457
O45   O     O_R   0.661700 0.490360 0.784000 -0.488274
O46   O     O_2   0.632773 0.615634 0.920836 -0.489499
O47   O     O_R   0.828660 0.338300 0.716000 -0.488251
O48   O     O_R   0.171340 0.509640 0.284000 -0.488266
O49   O     O_R   0.490360 0.661700 0.216000 -0.488240
O50   O     O_R   0.338300 0.828660 0.284000 -0.488240

loop_
_geom_bond_atom_site_label_1
_geom_bond_atom_site_label_2
_ccdc_geom_bond_type
C141  H29   S    
C46   C112  A    
C29   C42   A    
C4    N32   Am   
C32   C45   A    
C5    N33   Am   
C6    N34   Am   
C55   H16   S    
C150  C163  A    
C87   C130  S    
C155  N32   S    
C21   O42   D    
C97   N24   T    
C139  H25   S    
C139  C152  A    
C111  C172  A    
C55   C180  A    
Cr5   O19   S    
C138  O23   A    
C66   C72   A    
C42   C180  A    
C84   N10   T    
C17   N32   Am   
Cr4   O11   S    
C58   C61   A    
C19   N34   Am   
C17   C30   A    
C19   C32   A    
C29   C69   A    
C84   C133  S    
C105  O6    A    
C90   C117  A    
C124  C137  A    
C171  C174  S    
C161  N2    S    
Cr3   O23   S    
C129  C142  A    
C121  H41   S    
C6    C184  A    
C58   C183  A    
C87   N14   T    
C138  O9    A    
C110  C123  A    
C124  C172  A    
Cr4   O19   S    
C114  H35   S    
C102  N28   T    
C1    O45   A    
C20   C33   A    
C33   C73   A    
C58   H14   S    
C17   O38   D    
C33   C47   A    
C56   C62   A    
C30   C43   A    
C34   C48   A    
C192  N23   Am   
C98   C101  S    
C107  C120  A    
C91   N17   T    
C81   C136  S    
C39   C47   A    
C117  C173  A    
C121  C168  A    
C128  C175  A    
C70   H2    S    
C122  C167  A    
C12   O33   D    
Cr4   O2    S    
C98   N25   T    
C115  C174  A    
C12   N1    Am   
C22   C36   A    
C64   H7    S    
C105  O47   A    
C148  C162  A    
C79   C96   S    
C27   C66   A    
C182  O48   A    
C22   N2    Am   
C37   C50   A    
C141  C154  A    
C148  H21   S    
Cr1   O18   S    
C79   C155  A    
C18   N33   Am   
C10   O31   D    
C116  C168  S    
C116  O1    A    
C18   C31   A    
C81   N7    T    
C41   C51   A    
C115  H36   S    
C44   C48   A    
C45   C184  A    
Cr6   O4    S    
C96   N22   T    
C104  C110  S    
Cr5   O13   S    
Cr6   O14   S    
C160  C173  S    
C99   N26   T    
C67   C77   A    
C171  O4    A    
C50   C188  A    
C25   O46   D    
C137  H26   S    
C136  C166  A    
C101  C118  A    
C120  C169  A    
C3    N31   Am   
C6    O27   D    
C159  N36   S    
C69   C76   A    
C160  O3    A    
C191  N12   Am   
C9    N2    Am   
C78   C132  S    
C52   C177  A    
C13   O16   A    
C52   C60   A    
C59   H6    S    
C122  H42   S    
C63   H8    S    
C55   C63   A    
C76   H34   S    
C10   C188  A    
C4    C181  A    
C104  N30   T    
C7    N35   Am   
C31   C71   A    
Cr1   O1    S    
C88   C129  S    
C143  H27   S    
C15   O36   D    
C140  H30   S    
Cr4   O48   S    
C149  C165  S    
C57   C113  A    
C38   C51   A    
C61   H10   S    
C7    O28   D    
C8    C186  A    
C43   C181  A    
C12   C26   A    
C3    C180  A    
C136  C150  A    
C36   C75   A    
C152  N12   S    
C25   C38   A    
C145  H18   S    
C8    N36   Am   
Cr4   O15   S    
C20   O41   D    
C95   N21   T    
C27   C40   A    
C18   O39   D    
C44   C183  A    
C42   C50   A    
C57   C94   S    
C127  O12   A    
C86   C124  S    
C111  H31   S    
C134  C168  A    
C2    O15   A    
C90   C156  A    
C192  O22   D    
C123  H43   S    
C149  O34   A    
C99   C106  S    
C177  C190  A    
C7    C185  A    
C154  N31   S    
C182  O14   A    
C119  C164  A    
C5    O26   D    
C133  C146  A    
C127  C169  S    
C108  C161  A    
C118  C165  A    
C85   N11   T    
Cr1   O34   S    
C103  N29   T    
C160  O11   A    
C54   C64   A    
C1    C166  S    
C24   C172  S    
C131  C144  A    
C131  C165  A    
C80   N6    T    
C70   C75   A    
C149  O10   A    
C135  C167  A    
C144  C157  A    
C14   O35   D    
C120  H40   S    
C60   C185  A    
C106  C119  A    
C13   O50   A    
C108  C121  A    
C64   C189  A    
C126  C176  A    
C32   C72   A    
C134  C147  A    
Cr5   O49   S    
C162  N3    S    
C79   C115  A    
C109  C162  A    
C151  N1    S    
C146  H24   S    
C26   C39   A    
C93   N19   T    
C56   C181  A    
C117  H37   S    
C28   C41   A    
C112  H32   S    
C54   C179  A    
C82   C135  S    
C133  C169  A    
C83   C134  S    
C147  H22   S    
C39   C177  A    
C123  C166  A    
C112  C170  A    
C142  H28   S    
C14   C27   A    
C47   C185  A    
C128  C141  A    
C90   C97   S    
C51   C189  A    
C140  C153  A    
C35   C92   S    
C101  C157  A    
C80   C131  S    
C78   N5    T    
C54   H17   S    
C35   C151  A    
C30   C70   A    
C41   C179  A    
C113  H33   S    
C127  O8    A    
Cr5   O16   S    
C163  N4    S    
C130  C173  A    
C40   C45   A    
Cr6   O19   S    
C11   N4    Am   
C68   C95   S    
C147  C161  A    
C24   O17   A    
C119  H39   S    
C21   C34   A    
C57   C153  A    
C2    O49   A    
C83   N9    T    
C11   C189  A    
C21   N36   Am   
C132  C164  A    
C16   N31   Am   
Cr3   O47   S    
C25   N4    Am   
Cr5   O3    S    
C49   C187  A    
Cr1   O5    S    
Cr2   O6    S    
C125  C170  A    
C34   C74   A    
C113  C176  A    
C74   H45   S    
Cr2   O18   S    
C114  C175  A    
C37   C76   A    
C14   N12   Am   
C129  C174  A    
C132  C145  A    
C62   H9    S    
C1    O5    A    
C19   O40   D    
C65   H47   S    
Cr1   O8    S    
C71   C74   A    
C110  C163  A    
C38   C77   A    
C171  O13   A    
Cr3   O18   S    
C11   O32   D    
C22   O43   D    
Cr2   O45   S    
C103  C109  S    
C144  H19   S    
C23   N3    Am   
C75   H44   S    
C23   C37   A    
C145  C158  A    
C15   C28   A    
C66   H46   S    
C88   N15   T    
C3    O24   D    
Cr6   O50   S    
Cr2   O12   S    
C118  H38   S    
C53   H11   S    
C82   N8    T    
C89   N16   T    
C71   H48   S    
C5    C183  A    
C36   C49   A    
C62   C187  A    
C89   C128  S    
C46   C152  A    
Cr6   O17   S    
C69   H3    S    
C91   C126  S    
C85   C125  S    
C53   C178  A    
C53   C59   A    
C9    O30   D    
C125  C139  A    
C126  C140  A    
C190  N1    Am   
C68   C154  A    
C109  C122  A    
C190  O20   D    
C116  O7    A    
C65   C73   A    
C2    C176  S    
C158  N35   S    
C72   H12   S    
C179  C192  A    
C24   O2    A    
C52   H13   S    
C102  C108  S    
C142  C155  A    
Cr3   O10   S    
Cr2   O9    S    
C94   N20   T    
C31   C44   A    
C28   C67   A    
C43   C49   A    
C146  C159  A    
C16   C29   A    
C106  C158  A    
C105  C167  S    
C48   C186  A    
Cr3   O7    S    
C60   H5    S    
C150  H20   S    
C92   N18   T    
C130  C143  A    
C56   H15   S    
C175  C182  S    
C40   C178  A    
C77   H23   S    
C13   C170  S    
C135  C148  A    
C35   C111  A    
C100  C107  S    
C26   C65   A    
C153  N23   S    
C9    C187  A    
C107  C159  A    
C191  O21   D    
C16   O37   D    
C100  N27   T    
C10   N3    Am   
C67   H4    S    
C156  N33   S    
C157  N34   S    
C178  C191  A    
C23   O44   D    
C143  C156  A    
C46   C93   S    
C73   H1    S    
C8    O29   D    
C61   C186  A    
C59   C184  A    
C86   N13   T    
C4    O25   D    
C63   C188  A    
C20   N35   Am   
C137  C151  A    
C138  C164  S    
C15   N23   Am   
C68   C114  A    
