data_mof_unit_7808.cif
_audit_creation_date              2012-12-10T19:15:24-0500
_audit_creation_method            fapswitch 2.2
_symmetry_space_group_name_H-M    P1
_symmetry_Int_Tables_number       1
_space_group_crystal_system       triclinic
_cell_length_a                    10.709077
_cell_length_b                    9.704942
_cell_length_c                    23.433687
_cell_angle_alpha                 90.172396
_cell_angle_beta                  88.902417
_cell_angle_gamma                 90.374723
_cell_volume                      2434.97678215

loop_
_atom_site_label
_atom_site_type_symbol
_atom_type_description
_atom_site_fract_x
_atom_site_fract_y
_atom_site_fract_z
_atom_type_partial_charge
C1    C     C_R   0.258250 0.499399 0.502892 0.889365
C2    C     C_R   0.262357 0.497371 0.968038 -0.192707
C3    C     C_R   0.254015 0.497817 0.027760 0.158644
C4    C     C_R   0.366541 0.498124 0.059849 -0.056105
C5    C     C_R   0.483643 0.501286 0.030162 -0.053574
C6    C     C_R   0.596703 0.504820 0.060269 -0.000316
C7    C     C_R   0.711937 0.507412 0.030688 -0.173376
C8    C     C_R   0.716219 0.506065 0.971503 -0.166268
C9    C     C_R   0.368919 0.495215 0.120166 0.502168
C10   C     C_R   0.592272 0.506030 0.119578 0.509042
C11   C     C_R   0.526346 0.386446 0.237539 -0.103915
C12   C     C_R   0.492825 0.499835 0.389510 0.837877
C13   C     C_R   0.527399 0.386415 0.296618 -0.298984
C14   C     C_R   0.480533 0.499319 0.327567 -0.169099
C15   C     C_R   0.425528 0.610740 0.298285 0.430789
C16   C     C_R   0.429307 0.611460 0.238964 -0.105144
C17   C     C_R   0.479069 0.499738 0.208718 0.233859
C18   C     C_R   0.501678 0.378704 0.762235 -0.137122
C19   C     C_R   0.501268 0.377071 0.703117 -0.232208
C20   C     C_R   0.502122 0.501412 0.672900 -0.075078
C21   C     C_R   0.504376 0.627392 0.702424 -0.243836
C22   C     C_R   0.504325 0.630228 0.761954 0.217799
C23   C     C_R   0.743122 0.499906 0.494948 0.858170
C24   C     C_R   0.502898 0.504110 0.791633 0.297210
C25   C     C_3   0.068622 0.586473 0.550213 -0.479339
C26   C     C_3   0.071939 0.349459 0.508197 -0.492966
C27   C     C_3   0.926704 0.596831 0.542689 0.196179
C28   C     C_3   0.929233 0.350777 0.510411 0.206241
C29   C     C_3   0.085680 0.562958 0.443752 -0.469902
C30   C     C_3   0.123126 0.498408 0.501283 0.054467
C31   C     C_3   0.881612 0.498248 0.492656 0.046256
C32   C     C_3   0.943883 0.540087 0.431135 0.308671
C33   C     C_3   0.378891 0.080532 0.520560 -0.374557
C34   C     C_3   0.378193 0.917832 0.519766 -0.372847
C35   C     C_3   0.519479 0.082492 0.440191 0.355268
C36   C     C_3   0.520705 0.918860 0.440382 0.355043
C37   C     C_3   0.598353 0.081825 0.535726 -0.244588
C38   C     C_3   0.595792 0.919908 0.537163 -0.298629
C39   C     C_R   0.500687 0.500274 0.610710 0.874066
C40   C     C_R   0.607780 0.502714 0.881241 0.480759
C41   C     C_R   0.384795 0.499017 0.879589 0.517470
C42   C     C_R   0.377717 0.498817 0.939212 -0.053808
C43   C     C_R   0.488735 0.501090 0.970099 -0.022112
C44   C     C_R   0.605316 0.503060 0.940828 -0.000734
H1    H     H_    0.177172 0.495723 0.943770 0.192191
H2    H     H_    0.499713 0.278682 0.681183 0.156849
H3    H     H_    0.506011 0.723949 0.679288 0.155554
H4    H     H_    0.112050 0.691109 0.550555 0.210398
H5    H     H_    0.107308 0.282844 0.472829 0.201987
H6    H     H_    0.089034 0.538403 0.592086 0.142481
H7    H     H_    0.106019 0.303222 0.548441 0.155408
H8    H     H_    0.880361 0.562107 0.583394 0.080708
H9    H     H_    0.897615 0.330322 0.555338 0.085133
H10   H     H_    0.109843 0.674614 0.446356 0.187157
H11   H     H_    0.147168 0.523396 0.408464 0.130574
H12   H     H_    0.300930 0.118409 0.494292 0.160246
H13   H     H_    0.301348 0.880729 0.492255 0.159919
H14   H     H_    0.360011 0.118297 0.564747 0.183488
H15   H     H_    0.356401 0.878024 0.563338 0.185363
H16   H     H_    0.440358 0.116656 0.413394 0.051380
H17   H     H_    0.442714 0.883716 0.413141 0.126726
H18   H     H_    0.691591 0.117434 0.520618 0.219112
H19   H     H_    0.689404 0.879186 0.525879 0.203467
H20   H     H_    0.586439 0.122763 0.579856 0.145434
H21   H     H_    0.576932 0.884952 0.581698 0.159982
H22   H     H_    0.799359 0.510231 0.053170 0.185389
H23   H     H_    0.806611 0.507847 0.949940 0.188804
H24   H     H_    0.563558 0.299202 0.214009 0.156623
H25   H     H_    0.567262 0.299085 0.317999 0.184891
H26   H     H_    0.390345 0.697526 0.216128 0.162015
H27   H     H_    0.499996 0.282384 0.785479 0.141391
N1    N     N_R   0.498487 0.501728 0.852284 -0.358766
N2    N     N_R   0.480075 0.500593 0.147897 -0.343621
N3    N     N_3   0.499750 0.138610 0.498760 -0.046572
N4    N     N_3   0.499750 0.861390 0.498760 -0.066944
O1    O     O_R   0.314910 0.616040 0.499990 -0.648671
O2    O     O_R   0.314910 0.383960 0.499990 -0.641256
O3    O     O_R   0.500080 0.616070 0.416130 -0.569277
O4    O     O_R   0.500080 0.383930 0.416130 -0.593537
O5    O     O_R   0.685320 0.616040 0.499970 -0.570551
O6    O     O_R   0.685320 0.383960 0.499970 -0.564338
O7    O     O_R   0.500150 0.616010 0.583820 -0.630933
O8    O     O_R   0.500150 0.383990 0.583820 -0.635776
O9    O     O_2   0.717980 0.504269 0.852293 -0.560434
O10   O     O_2   0.279304 0.496901 0.848949 -0.563338
O11   O     O_2   0.262655 0.485009 0.151553 -0.574755
O12   O     O_2   0.699275 0.513149 0.149073 -0.570156
Zn1   Zn    Zn3+2 0.500150 0.654960 0.499970 0.949610
Zn2   Zn    Zn3+2 0.500150 0.345040 0.499970 0.953011
C45   C     C_3   0.506100 0.767939 0.792412 -0.422059
C46   C     C_3   0.380745 0.840671 0.787899 -0.838620
H28   H     H_    0.359292 0.861783 0.742586 0.247904
H29   H     H_    0.305034 0.776080 0.807091 0.292787
H30   H     H_    0.384317 0.940326 0.811240 0.249688
H31   H     H_    0.527621 0.756715 0.838279 0.215951
H32   H     H_    0.580977 0.834007 0.773316 0.205811
O13   O     O_3   0.894961 0.735133 0.533688 -0.797983
H33   H     H_    0.899457 0.782828 0.571162 0.329251
O14   O     O_3   0.882340 0.244096 0.476047 -0.731061
H34   H     H_    0.906507 0.155842 0.493998 0.327760
C47   C     C_3   0.894199 0.680086 0.405172 -0.385531
C48   C     C_3   0.805002 0.672415 0.354960 -0.765212
H35   H     H_    0.850175 0.625052 0.316837 0.250582
H36   H     H_    0.718525 0.616943 0.367199 0.281327
H37   H     H_    0.779918 0.778171 0.341729 0.277004
H38   H     H_    0.848886 0.743455 0.438287 0.279460
H39   H     H_    0.972920 0.744339 0.388404 0.195310
C49   C     C_3   0.943476 0.422876 0.383670 -0.301561
C50   C     C_3   0.818439 0.359893 0.365806 -0.717847
H40   H     H_    0.827141 0.246208 0.362669 0.273943
H41   H     H_    0.741900 0.384256 0.395900 0.291693
H42   H     H_    0.792822 0.396061 0.322763 0.219938
H43   H     H_    0.990739 0.463213 0.344395 0.186306
H44   H     H_    0.004754 0.336598 0.395461 0.220205
C51   C     C_3   0.122780 0.499709 0.053615 -0.350398
C52   C     C_3   0.078034 0.354664 0.069383 -0.756873
H45   H     H_    0.069189 0.291040 0.030160 0.237239
H46   H     H_    0.143982 0.303264 0.098248 0.288059
H47   H     H_    0.985100 0.360316 0.091063 0.252304
H48   H     H_    0.115188 0.571881 0.090207 0.251966
H49   H     H_    0.055750 0.541538 0.022480 0.170588
O15   O     O_3   0.629919 0.137571 0.416182 -0.737496
H50   H     H_    0.629796 0.113384 0.374998 0.320607
O16   O     O_3   0.629606 0.864689 0.415166 -0.748723
H51   H     H_    0.702573 0.909855 0.432751 0.349632
O17   O     O_3   0.364910 0.718002 0.325501 -0.774342
H52   H     H_    0.325417 0.682320 0.361081 0.323894

loop_
_geom_bond_atom_site_label_1
_geom_bond_atom_site_label_2
_ccdc_geom_bond_type
C47   H39   S    
C37   N3    S    
C35   N3    S    
O17   H52   S    
C51   H49   S    
C1    O2    A    
C41   C42   A    
C40   O9    S    
C19   C20   A    
C33   H14   S    
C37   H18   S    
C19   H2    S    
C7    C8    A    
C31   C32   S    
C49   C50   S    
O2    Zn2   S    
C47   C48   S    
C18   C24   A    
N3    Zn2   S    
C36   O16   S    
C37   C38   S    
C29   C32   S    
C50   H41   S    
C5    C6    A    
C10   N2    A    
C29   H10   S    
C15   C16   A    
C12   O4    A    
C47   H38   S    
C52   H45   S    
C48   H37   S    
C18   C19   A    
C49   H44   S    
C25   H6    S    
C11   C17   A    
C35   C36   S    
C16   C17   A    
C15   O17   S    
C12   O3    A    
C34   H13   S    
C23   O5    A    
C23   O6    A    
O1    Zn1   S    
C34   N4    S    
O6    Zn2   S    
C33   H12   S    
C5    C43   A    
C13   C14   A    
C17   N2    S    
C9    N2    A    
O13   H33   S    
C38   N4    S    
C28   C31   S    
C2    H1    S    
O8    Zn2   S    
C10   O12   S    
C27   C31   S    
C45   H31   S    
C16   H26   S    
C50   H42   S    
C46   H28   S    
C20   C39   S    
C11   H24   S    
C29   H11   S    
C35   H16   S    
C23   C31   S    
C49   H43   S    
C43   C44   A    
C29   C30   S    
C18   H27   S    
C36   N4    S    
C9    O11   S    
C46   H29   S    
N4    Zn1   S    
O14   H34   S    
C38   H21   S    
C33   C34   S    
C22   C45   S    
C48   H36   S    
C25   H4    S    
C41   N1    A    
C28   O14   S    
C12   C14   S    
C26   C30   S    
C34   H15   S    
C22   C24   A    
C26   H5    S    
C42   C43   A    
C3    C4    A    
C37   H20   S    
C27   H8    S    
C24   N1    S    
C38   H19   S    
O3    Zn1   S    
C25   C30   S    
C27   O13   S    
C40   N1    A    
C14   C15   A    
C1    O1    A    
C35   O15   S    
C8    C44   A    
C39   O7    A    
C4    C5    A    
C6    C10   A    
C28   H9    S    
C45   H32   S    
C6    C7    A    
C25   C27   S    
C41   O10   S    
C26   C28   S    
C52   H47   S    
C2    C3    A    
O15   H50   S    
C39   O8    A    
O5    Zn1   S    
C3    C51   S    
C26   H7    S    
C46   H30   S    
C11   C13   A    
C45   C46   S    
C13   H25   S    
C2    C42   A    
O7    Zn1   S    
C1    C30   S    
C52   H46   S    
C36   H17   S    
C48   H35   S    
O4    Zn2   S    
C33   N3    S    
C40   C44   A    
C20   C21   A    
C8    H23   S    
C51   H48   S    
C32   C49   S    
C50   H40   S    
C32   C47   S    
C4    C9    A    
C21   C22   A    
C51   C52   S    
O16   H51   S    
C21   H3    S    
C7    H22   S    
