data_mof_unit_9825.cif
_audit_creation_date              2012-12-10T17:15:14-0500
_audit_creation_method            fapswitch 2.2
_symmetry_space_group_name_H-M    P1
_symmetry_Int_Tables_number       1
_space_group_crystal_system       triclinic
_cell_length_a                    10.066646
_cell_length_b                    10.802285
_cell_length_c                    13.084296
_cell_angle_alpha                 91.076633
_cell_angle_beta                  94.231384
_cell_angle_gamma                 97.228856
_cell_volume                      1407.09899193

loop_
_atom_site_label
_atom_site_type_symbol
_atom_type_description
_atom_site_fract_x
_atom_site_fract_y
_atom_site_fract_z
_atom_type_partial_charge
C1    C     C_R   0.441847 0.266440 0.492950 0.878431
C2    C     C_R   0.668094 0.466084 0.053011 -0.228819
C3    C     C_R   0.347235 0.530071 0.843967 -0.240355
C4    C     C_R   0.652549 0.469340 0.156017 -0.240343
C5    C     C_R   0.577890 0.483430 0.877222 -0.092590
C6    C     C_R   0.421926 0.516083 0.122766 -0.092549
C7    C     C_R   0.561960 0.487172 0.982381 0.126097
C8    C     C_R   0.437813 0.512207 0.017601 0.126138
C9    C     C_2   0.404289 0.132397 0.482180 -0.186716
C10   C     C_2   0.595728 0.867595 0.517855 -0.186767
C11   C     C_2   0.498180 0.063378 0.517948 -0.209618
C12   C     C_R   0.558154 0.733558 0.507062 0.878589
C13   C     C_2   0.501850 0.936629 0.482097 -0.209515
C14   C     C_R   0.290958 0.543653 0.157576 0.154533
C15   C     C_R   0.186962 0.446176 0.168208 -0.115671
C16   C     C_R   0.060957 0.472919 0.193801 -0.130958
C17   C     C_R   0.037858 0.596881 0.207801 -0.154633
C18   C     C_R   0.141212 0.694145 0.197470 -0.164744
C19   C     C_R   0.267596 0.667843 0.172672 -0.132625
C20   C     C_R   0.708874 0.455925 0.842411 0.154580
C21   C     C_R   0.731886 0.331795 0.826486 -0.131494
C22   C     C_R   0.858242 0.305453 0.801650 -0.165370
C23   C     C_2   0.070966 0.487219 0.505788 -0.135657
C24   C     C_R   0.961925 0.402616 0.792136 -0.154371
C25   C     C_R   0.939177 0.526533 0.806974 -0.130692
C26   C     C_R   0.813186 0.553317 0.832569 -0.116900
C27   C     C_R   0.725310 0.920346 0.574681 0.124146
C28   C     C_R   0.769424 0.867801 0.666728 -0.120699
C29   C     C_R   0.892249 0.915483 0.718481 -0.158771
C30   C     C_R   0.971707 0.016432 0.679405 -0.147197
C31   C     C_R   0.928480 0.070007 0.588547 -0.138760
C32   C     C_R   0.806974 0.021182 0.535510 -0.152100
C33   C     C_R   0.274762 0.079610 0.425302 0.124216
C34   C     C_2   0.929042 0.512823 0.494248 -0.135587
C35   C     C_R   0.193079 0.978770 0.464448 -0.152134
C36   C     C_R   0.071700 0.929816 0.411297 -0.138149
C37   C     C_R   0.028616 0.983266 0.320345 -0.146971
C38   C     C_R   0.108081 0.084233 0.281304 -0.159062
C39   C     C_R   0.230781 0.132047 0.333177 -0.120706
C40   C     C_R   0.477553 0.503185 0.698465 0.870089
C41   C     C_R   0.522416 0.496729 0.301533 0.870172
C42   C     C_R   0.531440 0.494438 0.191887 -0.099038
C43   C     C_R   0.468418 0.505181 0.808103 -0.098992
C44   C     C_R   0.331638 0.533176 0.946967 -0.228908
H1    H     H_    0.736604 0.451590 0.207805 0.167698
H2    H     H_    0.123273 0.789959 0.208023 0.148693
H3    H     H_    0.346521 0.743876 0.163588 0.120268
H4    H     H_    0.652689 0.255821 0.834903 0.119992
H5    H     H_    0.875888 0.209677 0.790414 0.149002
H6    H     H_    0.059495 0.381757 0.772635 0.127655
H7    H     H_    0.019339 0.601755 0.799384 0.123077
H8    H     H_    0.797076 0.649353 0.845852 0.106538
H9    H     H_    0.235057 0.552536 0.969871 0.162653
H10   H     H_    0.764618 0.446558 0.030101 0.162718
H11   H     H_    0.708535 0.790383 0.698775 0.123828
H12   H     H_    0.263176 0.547814 0.792178 0.167673
H13   H     H_    0.925632 0.874363 0.789118 0.124390
H14   H     H_    0.066526 0.053514 0.719732 0.126664
H15   H     H_    0.990127 0.148239 0.558334 0.139533
H16   H     H_    0.776579 0.061928 0.463863 0.147014
H17   H     H_    0.223381 0.938100 0.536149 0.146979
H18   H     H_    0.010042 0.851578 0.441490 0.139424
H19   H     H_    0.933897 0.946079 0.279924 0.126538
H20   H     H_    0.074806 0.125255 0.210596 0.124357
H21   H     H_    0.291703 0.209456 0.301151 0.123592
H22   H     H_    0.866240 0.377959 0.586401 0.179637
H23   H     H_    0.418853 0.894063 0.430148 0.189387
H24   H     H_    0.133749 0.621975 0.413529 0.179690
H25   H     H_    0.581179 0.105947 0.569897 0.189262
H26   H     H_    0.901107 0.585566 0.443886 0.156808
H27   H     H_    0.098911 0.414515 0.556186 0.156803
H28   H     H_    0.203333 0.350085 0.155561 0.106219
H29   H     H_    0.981047 0.397621 0.202037 0.123199
H30   H     H_    0.940266 0.617698 0.227266 0.127736
N1    N     N_2   0.162330 0.550370 0.457540 -0.186158
N2    N     N_2   0.837670 0.449630 0.542460 -0.186135
O1    O     O_R   0.567930 0.307680 0.508550 -0.610777
O2    O     O_R   0.432070 0.692320 0.491450 -0.610709
O3    O     O_R   0.351090 0.340020 0.481290 -0.610772
O4    O     O_R   0.648910 0.659980 0.518710 -0.610724
O5    O     O_R   0.590490 0.486480 0.665020 -0.602791
O6    O     O_R   0.409510 0.513520 0.334980 -0.602804
O7    O     O_R   0.373660 0.518820 0.637760 -0.623668
O8    O     O_R   0.626340 0.481180 0.362240 -0.623696
Zn1   Zn    Zn3+2 0.644780 0.478400 0.518200 0.945825
Zn2   Zn    Zn3+2 0.355220 0.521600 0.481800 0.945854

loop_
_geom_bond_atom_site_label_1
_geom_bond_atom_site_label_2
_ccdc_geom_bond_type
C10   C27   S    
C1    O1    A    
C41   C42   S    
C2    C7    A    
C7    C8    A    
C5    C20   S    
H24   N1    S    
C15   H28   S    
C3    C43   A    
C29   C30   A    
C20   C26   A    
C36   C37   A    
C37   C38   A    
C38   C39   A    
C19   H3    S    
C15   C16   A    
C30   H14   S    
C18   C19   A    
C31   H15   S    
C44   H9    S    
C40   C43   S    
C35   C36   A    
C16   C17   A    
C12   O2    A    
C34   H26   S    
C21   H4    S    
O2    Zn2   S    
C5    C43   A    
O1    Zn1   S    
C21   C22   A    
C9    C33   S    
C39   H21   S    
C40   O7    A    
C36   H18   S    
C18   H2    S    
C37   H19   S    
C28   H11   S    
C38   H20   S    
C4    H1    S    
C24   H6    S    
C3    C44   A    
C16   H29   S    
C23   H27   S    
C1    C9    S    
O8    Zn1   S    
C2    H10   S    
C5    C7    A    
C14   C19   A    
C6    C8    A    
C25   C26   A    
O6    Zn2   S    
C41   O8    A    
C2    C4    A    
C25   H7    S    
O4    Zn1   S    
C26   H8    S    
C6    C14   S    
C3    H12   S    
N1    Zn2   S    
C31   C32   A    
C23   C34   S    
H22   N2    S    
C17   C18   A    
C35   H17   S    
C33   C39   A    
C24   C25   A    
C9    C11   D    
C10   C12   S    
C22   H5    S    
C29   H13   S    
C17   H30   S    
C1    O3    A    
C22   C24   A    
C32   H16   S    
C13   H23   S    
C28   C29   A    
C27   C32   A    
C40   O5    A    
C8    C44   A    
C23   N1    D    
C10   C13   D    
C11   H25   S    
C11   C13   S    
C30   C31   A    
C4    C42   A    
C41   O6    A    
C12   O4    A    
C33   C35   A    
O7    Zn2   S    
C20   C21   A    
C6    C42   A    
C27   C28   A    
C14   C15   A    
N2    Zn1   S    
O3    Zn2   S    
O5    Zn1   S    
C34   N2    D    
