data_mof_unit_11065.cif
_audit_creation_date              2012-12-11T14:40:04-0500
_audit_creation_method            fapswitch 2.2
_symmetry_space_group_name_H-M    P1
_symmetry_Int_Tables_number       1
_space_group_crystal_system       triclinic
_cell_length_a                    19.672493
_cell_length_b                    10.835435
_cell_length_c                    19.478454
_cell_angle_alpha                 89.999838
_cell_angle_beta                  97.534108
_cell_angle_gamma                 89.999378
_cell_volume                      4116.18310664

loop_
_atom_site_label
_atom_site_type_symbol
_atom_type_description
_atom_site_fract_x
_atom_site_fract_y
_atom_site_fract_z
_atom_type_partial_charge
C1    C     C_R   0.706674 0.002565 0.365845 0.553173
C2    C     C_3   0.246568 0.420687 0.570945 0.056940
C3    C     C_3   0.251891 0.914619 0.431330 0.057394
C4    C     C_3   0.748112 0.914586 0.568661 0.057399
C5    C     C_3   0.730898 0.541783 0.459277 -0.135277
C6    C     C_3   0.268905 0.541952 0.540777 -0.135490
C7    C     C_3   0.282510 0.038801 0.456393 -0.144237
C8    C     C_3   0.717845 0.039059 0.543664 -0.144296
C9    C     C_3   0.803374 0.552356 0.501870 -0.147837
C10   C     C_3   0.196447 0.552211 0.498131 -0.147920
C11   C     C_3   0.331935 0.969176 0.511733 -0.130589
C12   C     C_R   0.293322 0.002535 0.634152 0.553176
C13   C     C_3   0.668127 0.969879 0.488372 -0.130894
C14   C     C_3   0.825320 0.430301 0.470059 -0.113616
C15   C     C_3   0.174681 0.430003 0.529881 -0.113646
C16   C     C_3   0.300949 0.844547 0.485989 -0.101798
C17   C     C_3   0.698764 0.844954 0.514057 -0.101697
C18   C     C_3   0.799469 0.355813 0.528770 -0.113035
C19   C     C_3   0.200691 0.355786 0.471173 -0.113096
C20   C     C_3   0.246503 0.852857 0.535763 -0.114086
C21   C     C_3   0.753156 0.852688 0.464196 -0.114060
C22   C     C_3   0.777685 0.476730 0.559841 0.052832
C23   C     C_R   0.206859 0.502060 0.366206 0.556679
C24   C     C_3   0.222298 0.476845 0.440163 0.052772
C25   C     C_3   0.277626 0.976194 0.560937 0.051643
C26   C     C_3   0.722375 0.976315 0.439076 0.051541
C27   C     C_3   0.520727 0.275126 0.969439 -0.167423
C28   C     C_3   0.478648 0.274457 0.030776 -0.167447
C29   C     C_3   0.023054 0.772564 0.968638 -0.168039
C30   C     C_3   0.981022 0.776885 0.029967 -0.166873
C31   C     C_3   0.569068 0.173758 0.003795 -0.177787
C32   C     C_3   0.430869 0.172473 0.996214 -0.177727
C33   C     C_3   0.069290 0.668965 0.003768 -0.178189
C34   C     C_R   0.793130 0.502022 0.633786 0.556612
C35   C     C_3   0.931167 0.677266 0.996172 -0.177251
C36   C     C_3   0.526914 0.173450 0.064604 0.006339
C37   C     C_3   0.473027 0.173492 0.935408 0.006326
C38   C     C_3   0.027165 0.673609 0.064556 0.006127
C39   C     C_3   0.973267 0.673332 0.935364 0.006473
C40   C     C_R   0.534890 0.179941 0.337913 0.547123
C41   C     C_R   0.465092 0.179941 0.662074 0.547247
C42   C     C_R   0.034976 0.679872 0.337969 0.546750
C43   C     C_R   0.965018 0.679872 0.662027 0.545836
C44   C     C_3   0.479716 0.072545 0.030633 0.432939
C45   C     C_3   0.727374 0.346583 0.487326 -0.119162
C46   C     C_3   0.520782 0.073203 0.969187 0.432895
C47   C     C_3   0.977913 0.575066 0.031301 0.432734
C48   C     C_3   0.018936 0.570814 0.969865 0.433057
C49   C     C_1   0.763189 0.425139 0.904297 0.015738
C50   C     C_1   0.236817 0.425125 0.095708 0.014258
C51   C     C_1   0.263179 0.925114 0.904289 0.014594
C52   C     C_1   0.736805 0.925155 0.095698 0.015733
C53   C     C_1   0.747523 0.408111 0.034611 -0.008633
C54   C     C_1   0.252485 0.408089 0.965395 -0.012201
C55   C     C_1   0.247507 0.908070 0.034600 -0.010635
C56   C     C_3   0.272771 0.346856 0.512664 -0.119123
C57   C     C_1   0.752465 0.908141 0.965382 -0.010288
C58   C     C_1   0.754526 0.415210 0.963916 -0.014260
C59   C     C_1   0.245483 0.415189 0.036090 -0.016996
C60   C     C_1   0.254510 0.915173 0.963906 -0.016127
C61   C     C_1   0.745464 0.915235 0.036077 -0.014958
C62   C     C_1   0.742482 0.395045 0.094931 0.024171
C63   C     C_1   0.257523 0.395030 0.905074 0.021617
C64   C     C_1   0.242471 0.895016 0.094922 0.022462
C65   C     C_1   0.757509 0.895068 0.905062 0.022629
C66   C     C_R   0.740747 0.368433 0.359935 0.538964
C67   C     C_3   0.197353 0.921688 0.480721 -0.120145
C68   C     C_R   0.259258 0.368409 0.640052 0.538751
C69   C     C_R   0.239920 0.865370 0.361406 0.542771
C70   C     C_R   0.760089 0.865332 0.638581 0.542788
C71   C     C_R   0.721768 0.952514 0.163663 0.544497
C72   C     C_R   0.278229 0.952504 0.836333 0.544181
C73   C     C_R   0.221770 0.452508 0.163666 0.544751
C74   C     C_R   0.778231 0.452511 0.836336 0.545055
C75   C     C_R   0.558327 0.181888 0.135458 0.562278
C76   C     C_R   0.441650 0.181897 0.864537 0.562601
C77   C     C_R   0.058425 0.681922 0.135478 0.562747
C78   C     C_3   0.802593 0.921079 0.519182 -0.120177
C79   C     C_R   0.941753 0.681862 0.864556 0.561921
C80   C     C_R   0.735789 0.360528 0.164308 0.544008
C81   C     C_R   0.264212 0.360524 0.835694 0.543421
C82   C     C_R   0.235787 0.860522 0.164305 0.545214
C83   C     C_R   0.764208 0.860536 0.835688 0.545377
C84   C     C_1   0.486187 0.172269 0.594871 -0.016706
C85   C     C_1   0.513740 0.172271 0.405092 -0.016733
C86   C     C_1   0.986031 0.671734 0.594811 -0.016490
C87   C     C_1   0.013946 0.671733 0.405177 -0.016421
C88   C     C_1   0.503889 0.169244 0.464646 -0.062880
C89   C     C_3   0.753420 0.420681 0.429045 0.056990
C90   C     C_1   0.496004 0.169241 0.535307 -0.062850
C91   C     C_1   0.004049 0.668155 0.464699 -0.062151
C92   C     C_1   0.995917 0.668156 0.535286 -0.062136
C93   C     C_3   0.705540 0.467925 0.518945 -0.104186
C94   C     C_3   0.294427 0.468358 0.481110 -0.104199
C95   C     C_3   0.228187 0.046463 0.507426 -0.130863
C96   C     C_3   0.772107 0.046149 0.492538 -0.130454
Cr1   Cr    Cr6+3 0.765830 0.160660 0.268180 1.035179
Cr2   Cr    Cr6+3 0.384070 0.324050 0.751550 1.032538
Cr3   Cr    Cr6+3 0.115930 0.824050 0.248450 1.031576
Cr4   Cr    Cr6+3 0.884070 0.824050 0.751550 1.031776
Cr5   Cr    Cr6+3 0.234170 0.160660 0.731820 1.034491
Cr6   Cr    Cr6+3 0.265830 0.660660 0.268180 1.034251
Cr7   Cr    Cr6+3 0.734170 0.660660 0.731820 1.034400
Cr8   Cr    Cr6+3 0.612110 0.009150 0.248770 1.074126
Cr9   Cr    Cr6+3 0.387890 0.009150 0.751230 1.074006
Cr10  Cr    Cr6+3 0.112110 0.509150 0.248770 1.074538
Cr11  Cr    Cr6+3 0.887890 0.509150 0.751230 1.075048
Cr12  Cr    Cr6+3 0.615930 0.324050 0.248450 1.032541
F1    F     F_    0.459760 0.967921 0.063382 -0.580966
F2    F     F_    0.541322 0.969254 0.936235 -0.581180
F3    F     F_    0.955809 0.473027 0.064803 -0.581834
F4    F     F_    0.037278 0.464418 0.937675 -0.580700
H1    H     H_    0.693778 0.264431 0.478585 0.107420
H2    H     H_    0.299253 0.612797 0.572356 0.120060
H3    H     H_    0.296473 0.113741 0.421995 0.121234
H4    H     H_    0.704170 0.114149 0.578123 0.121273
H5    H     H_    0.387352 0.987781 0.526318 0.123707
H6    H     H_    0.612756 0.989047 0.473878 0.123603
H7    H     H_    0.835506 0.636510 0.510401 0.105237
H8    H     H_    0.164203 0.636213 0.489608 0.105307
H9    H     H_    0.874247 0.415160 0.448614 0.131823
H10   H     H_    0.125766 0.414565 0.551272 0.131779
H11   H     H_    0.331133 0.760924 0.476852 0.132521
H12   H     H_    0.306465 0.264833 0.521364 0.107444
H13   H     H_    0.668356 0.761613 0.523211 0.132585
H14   H     H_    0.827982 0.280856 0.558870 0.133687
H15   H     H_    0.172315 0.280770 0.441009 0.133793
H16   H     H_    0.230389 0.782650 0.571677 0.123988
H17   H     H_    0.769014 0.782359 0.428204 0.124212
H18   H     H_    0.625943 0.173497 0.008457 0.120126
H19   H     H_    0.373998 0.171170 0.991545 0.120590
H20   H     H_    0.126119 0.664825 0.008462 0.120481
H21   H     H_    0.874312 0.679843 0.991524 0.120140
H22   H     H_    0.537620 0.359241 0.943840 0.172106
H23   H     H_    0.141951 0.901739 0.466364 0.127478
H24   H     H_    0.461291 0.358005 0.056554 0.172072
H25   H     H_    0.041647 0.854507 0.942363 0.171492
H26   H     H_    0.965414 0.862491 0.055070 0.172685
H27   H     H_    0.857944 0.900536 0.533452 0.127332
H28   H     H_    0.656595 0.483240 0.540309 0.130975
H29   H     H_    0.343356 0.483979 0.459797 0.130961
H30   H     H_    0.197080 0.125226 0.521517 0.130189
H31   H     H_    0.803411 0.124707 0.478507 0.130188
H32   H     H_    0.700363 0.612514 0.427765 0.120018
O1    O     O_R   0.783230 0.287800 0.346510 -0.526880
O2    O     O_R   0.454570 0.285140 0.836900 -0.511937
O3    O     O_R   0.045430 0.785140 0.163100 -0.511440
O4    O     O_R   0.954570 0.785140 0.836900 -0.511608
O5    O     O_R   0.677850 0.374730 0.185500 -0.511358
O6    O     O_R   0.322150 0.374730 0.814500 -0.510877
O7    O     O_R   0.177850 0.874730 0.185500 -0.510190
O8    O     O_R   0.822150 0.874730 0.814500 -0.509802
O9    O     O_3   0.664630 0.164620 0.255130 -0.308281
O10   O     O_3   0.335370 0.164620 0.744870 -0.308087
O11   O     O_3   0.164630 0.664620 0.255130 -0.307940
O12   O     O_R   0.216770 0.287800 0.653490 -0.527017
O13   O     O_3   0.835370 0.664620 0.744870 -0.307679
O14   O     O_R   0.760130 0.037060 0.338610 -0.497284
O15   O     O_R   0.239870 0.037060 0.661390 -0.497327
O16   O     O_R   0.260130 0.537060 0.338610 -0.502622
O17   O     O_R   0.739870 0.537060 0.661390 -0.502697
O18   O     O_R   0.666620 0.921370 0.332440 -0.513789
O19   O     O_R   0.333380 0.921370 0.667560 -0.513876
O20   O     O_R   0.166620 0.421370 0.332440 -0.515832
O21   O     O_R   0.833380 0.421370 0.667560 -0.515873
O22   O     O_R   0.557170 0.082420 0.312350 -0.508531
O23   O     O_R   0.283230 0.787800 0.346510 -0.524633
O24   O     O_R   0.442830 0.082420 0.687650 -0.508473
O25   O     O_R   0.057170 0.582420 0.312350 -0.505093
O26   O     O_R   0.942830 0.582420 0.687650 -0.505581
O27   O     O_R   0.548310 0.285980 0.316250 -0.499512
O28   O     O_R   0.451690 0.285980 0.683750 -0.499518
O29   O     O_R   0.048310 0.785980 0.316250 -0.503858
O30   O     O_R   0.951690 0.785980 0.683750 -0.504016
O31   O     O_R   0.680520 0.375500 0.327470 -0.500480
O32   O     O_R   0.319480 0.375500 0.672530 -0.500479
O33   O     O_R   0.180520 0.875500 0.327470 -0.503418
O34   O     O_R   0.716770 0.787800 0.653490 -0.524662
O35   O     O_R   0.819480 0.875500 0.672530 -0.503325
O36   O     O_R   0.780350 0.286970 0.193350 -0.487994
O37   O     O_R   0.219650 0.286970 0.806650 -0.488905
O38   O     O_R   0.280350 0.786970 0.193350 -0.487486
O39   O     O_R   0.719650 0.786970 0.806650 -0.487363
O40   O     O_R   0.757460 0.036290 0.196640 -0.494706
O41   O     O_R   0.242540 0.036290 0.803360 -0.494674
O42   O     O_R   0.257460 0.536290 0.196640 -0.494573
O43   O     O_R   0.742540 0.536290 0.803360 -0.494972
O44   O     O_R   0.663740 0.920540 0.179290 -0.487234
O45   O     O_R   0.554500 0.081650 0.170370 -0.437741
O46   O     O_R   0.336260 0.920540 0.820710 -0.487471
O47   O     O_R   0.163740 0.420540 0.179290 -0.487885
O48   O     O_R   0.836260 0.420540 0.820710 -0.485933
O49   O     O_R   0.445500 0.081650 0.829630 -0.437682
O50   O     O_R   0.054500 0.581650 0.170370 -0.437842
O51   O     O_R   0.945500 0.581650 0.829630 -0.438346
O52   O     O_R   0.545430 0.285140 0.163100 -0.511953

loop_
_geom_bond_atom_site_label_1
_geom_bond_atom_site_label_2
_ccdc_geom_bond_type
C19   C56   S    
C21   C26   S    
Cr11  O21   S    
C8    C13   S    
C30   H26   S    
C15   H10   S    
C87   C91   T    
C14   C18   S    
C20   C67   S    
C67   H23   S    
C8    C96   S    
C81   O37   A    
C71   O44   A    
C4    C8    S    
C34   O17   A    
C35   C47   S    
C78   H27   S    
C35   H21   S    
Cr2   O10   S    
C13   H6    S    
C68   O32   A    
Cr10  O50   S    
C2    C6    S    
Cr4   O8    S    
Cr9   O49   S    
Cr6   O23   S    
C30   C35   S    
C63   C81   S    
Cr7   O39   S    
C50   C59   T    
C80   O36   A    
C62   C80   S    
C1    O14   A    
C75   O45   A    
C16   H11   S    
C27   C37   S    
Cr3   O33   S    
C31   H18   S    
C3    C7    S    
C10   C15   S    
C31   C36   S    
Cr8   O18   S    
C43   O30   A    
C70   O35   A    
C65   C83   S    
C20   C25   S    
C11   C25   S    
C81   O6    A    
Cr12  O31   S    
C29   C33   S    
C79   O51   A    
C30   C38   S    
C4    C78   S    
C11   C16   S    
C7    H3    S    
C6    H2    S    
C66   O1    A    
C69   O33   A    
C15   C19   S    
Cr4   O13   S    
Cr12  O9    S    
C78   C96   S    
C6    C94   S    
C31   C46   S    
Cr3   O11   S    
Cr11  O48   S    
C23   C24   S    
Cr9   O19   S    
Cr1   O9    S    
Cr8   O9    S    
Cr12  O52   S    
C34   O21   A    
C45   C89   S    
C77   O3    A    
C40   O22   A    
C82   O7    A    
Cr2   O28   S    
C44   F1    S    
Cr9   O10   S    
C76   O2    A    
C14   H9    S    
C18   C22   S    
C55   C60   S    
C55   C64   T    
Cr8   O44   S    
C67   C95   S    
C43   C86   S    
C56   C94   S    
C84   C90   T    
Cr10  O47   S    
Cr5   O41   S    
C71   O40   A    
Cr11  O51   S    
Cr11  O13   S    
C43   O26   A    
C44   C46   S    
C7    C11   S    
C66   C89   S    
C54   C59   S    
C26   C96   S    
C80   O5    A    
C22   C34   S    
C41   O28   A    
C4    C70   S    
Cr7   O17   S    
C27   C31   S    
Cr6   O38   S    
C28   C32   S    
Cr7   O43   S    
C76   O49   A    
C50   C73   S    
Cr6   O16   S    
C91   C92   S    
C9    C14   S    
C8    H4    S    
C70   O34   A    
Cr1   O36   S    
Cr2   O2    S    
Cr5   O12   S    
C10   C24   S    
C41   C84   S    
Cr3   O7    S    
C29   H25   S    
C17   C21   S    
C49   C58   T    
C39   C79   S    
C40   C85   S    
C21   C78   S    
C35   C39   S    
C77   O50   A    
C69   O23   A    
C14   C89   S    
C5    C9    S    
C29   C30   S    
C36   C75   S    
C24   C94   S    
Cr2   O32   S    
C53   C62   T    
C47   C48   S    
Cr3   O29   S    
C16   C20   S    
C42   O25   A    
C64   C82   S    
C23   O16   A    
C29   C39   S    
C32   C44   S    
C83   O39   A    
Cr6   O42   S    
C32   C37   S    
C57   C61   S    
C2    C15   S    
C21   H17   S    
C38   C47   S    
C73   O47   A    
C74   O48   A    
C4    C17   S    
C33   H20   S    
C48   F4    S    
C37   C76   S    
C88   C90   S    
C45   C93   S    
C25   C95   S    
Cr10  O20   S    
C46   F2    S    
Cr4   O30   S    
C1    C26   S    
C9    H7    S    
C22   C93   S    
C66   O31   A    
C36   C44   S    
C51   C72   S    
C83   O8    A    
C11   H5    S    
C18   C45   S    
C56   H12   S    
C27   C28   S    
Cr5   O37   S    
C94   H29   S    
Cr1   O40   S    
C23   O20   A    
Cr2   O6    S    
C85   C88   T    
Cr3   O3    S    
C3    C69   S    
C28   H24   S    
C27   H22   S    
Cr1   O1    S    
Cr9   O46   S    
C3    C67   S    
C57   C65   T    
C41   O24   A    
C5    H32   S    
C42   O29   A    
C6    C10   S    
C5    C93   S    
C53   C58   S    
C20   H16   S    
C79   O4    A    
C51   C60   T    
C38   C77   S    
C7    C95   S    
C82   O38   A    
C2    C68   S    
C33   C38   S    
Cr9   O24   S    
C13   C17   S    
C12   C25   S    
C52   C61   T    
Cr7   O34   S    
Cr1   O14   S    
C19   C24   S    
C93   H28   S    
C86   C92   T    
C75   O52   A    
C12   O19   A    
C17   H13   S    
Cr5   O10   S    
Cr4   O4    S    
C47   F3    S    
Cr8   O45   S    
C19   H15   S    
Cr10  O25   S    
Cr10  O11   S    
C40   O27   A    
C12   O15   A    
C13   C26   S    
C5    C89   S    
C72   O41   A    
C10   H8    S    
C1    O18   A    
C74   O43   A    
Cr8   O22   S    
Cr12  O5    S    
C45   H1    S    
Cr5   O15   S    
Cr7   O13   S    
C28   C36   S    
C95   H30   S    
C9    C22   S    
C54   C63   T    
Cr12  O27   S    
C73   O42   A    
C52   C71   S    
C33   C48   S    
C49   C74   S    
C2    C56   S    
C42   C87   S    
C37   C46   S    
Cr4   O35   S    
C68   O12   A    
Cr6   O11   S    
C32   H19   S    
C18   H14   S    
C3    C16   S    
C72   O46   A    
C39   C48   S    
C96   H31   S    
Cr11  O26   S    
