data_mof_unit_20983.cif
_audit_creation_date              2013-03-05T15:40:04-0500
_audit_creation_method            fapswitch 2.2
_symmetry_space_group_name_H-M    P1
_symmetry_Int_Tables_number       1
_space_group_crystal_system       triclinic
_cell_length_a                    7.84631
_cell_length_b                    8.541079
_cell_length_c                    10.70959
_cell_angle_alpha                 91.980061
_cell_angle_beta                  84.818887
_cell_angle_gamma                 93.078557
_cell_volume                      713.431010225

loop_
_atom_site_label
_atom_site_type_symbol
_atom_site_description
_atom_site_fract_x
_atom_site_fract_y
_atom_site_fract_z
_atom_type_partial_charge
O1    O     O_R   0.389250 0.738570 0.508180 -0.574308
O2    O     O_R   0.678390 0.711630 0.486820 -0.577944
C1    C     C_R   0.544465 0.794161 0.493888 0.977847
O3    O     O_R   0.355470 0.513470 0.691600 -0.565938
O4    O     O_R   0.644610 0.486520 0.670240 -0.589930
C2    C     C_R   0.502163 0.507135 0.737287 0.896000
Zn1   Zn    Zn3+2 0.306940 0.517990 0.514260 1.184552
Zn2   Zn    Zn3+2 0.693060 0.482010 0.485740 1.160029
O5    O     O_R   0.321610 0.288370 0.513180 -0.571999
O6    O     O_R   0.610750 0.261430 0.491820 -0.619583
O7    O     O_R   0.355390 0.513480 0.329760 -0.579665
O8    O     O_R   0.644530 0.486530 0.308400 -0.593664
C3    C     C_R   0.455626 0.205750 0.496096 0.852173
C4    C     C_R   0.500375 0.503119 0.263128 0.969874
C5    C     C_2   0.640671 0.554330 0.059048 0.280361
C6    C     C_2   0.502895 0.500143 0.130964 -0.337069
H1    H     H_    0.395537 0.437462 0.090479 0.192492
C7    C     C_2   0.643472 0.512114 0.928161 0.261230
C8    C     C_2   0.513268 0.554669 0.865412 0.083315
C9    C     C_2   0.564497 0.957764 0.499933 -0.347588
H2    H     H_    0.674768 0.007267 0.545158 0.211636
C10   C     C_2   0.437650 0.043777 0.469757 0.241995
N1    N     N_2   0.950320 0.457950 0.466680 0.034564
N2    N     N_2   0.049680 0.542050 0.533320 0.043053
N3    N     N_R   0.779486 0.650824 0.105329 0.257039
O9    O     O_R   0.930526 0.652930 0.044120 -0.215785
O10   O     O_R   0.748042 0.758125 0.192433 -0.320588
Cl1   Cl    Cl    0.794504 0.373412 0.871834 -0.427909
Cl2   Cl    Cl    0.363897 0.692567 0.928361 -0.427461
Cl3   Cl    Cl    0.278332 0.977327 0.370253 -0.362590
N4    N     N_R   0.014224 0.317082 0.421615 0.313693
O11   O     O_R   0.971748 0.190899 0.484012 -0.290965
O12   O     O_R   0.070485 0.303093 0.304026 -0.299165
N5    N     N_R   0.980220 0.675093 0.590061 0.307268
O13   O     O_R   0.001341 0.806735 0.532080 -0.274559
O14   O     O_R   0.945057 0.679626 0.711024 -0.290414

loop_
_geom_bond_atom_site_label_1
_geom_bond_atom_site_label_2
_geom_bond_distance
_ccdc_geom_bond_type
C5    C7    1.433798 S    
N1    N2    1.279852 D    
N4    O12   1.299970 A    
O4    Zn2   1.977601 S    
N4    O11   1.300040 A    
Zn2   O8    1.972525 S    
O2    C1    1.291648 A    
C1    C9    1.397660 S    
Zn1   O7    1.977601 S    
C2    C8    1.426381 S    
O3    Zn1   1.972525 S    
Zn2   O6    1.959834 S    
C9    C10   1.337068 D    
C3    C10   1.404489 S    
C7    C8    1.344687 D    
N5    O14   1.299603 A    
O4    C2    1.289676 A    
O7    C4    1.292678 A    
C4    C6    1.413135 S    
C5    N3    1.443635 S    
N3    O10   1.301779 A    
C5    C6    1.340355 D    
C8    Cl2   1.779330 S    
Zn2   N1    2.031168 S    
C7    Cl1   1.773116 S    
C9    H2    1.088212 S    
O3    C2    1.295125 A    
N5    O13   1.298806 A    
Zn1   O5    1.970315 S    
O5    C3    1.293520 A    
C10   Cl3   1.772840 S    
N1    N4    1.383080 S    
N3    O9    1.301046 A    
O1    Zn1   1.959834 S    
O2    Zn2   1.970314 S    
Zn1   N2    2.031168 S    
O8    C4    1.286670 A    
C6    H1    1.088882 S    
O1    C1    1.281135 A    
O6    C3    1.280226 A    
N2    N5    1.384387 S    
