data_mof_unit_46924.cif
_audit_creation_date              2012-12-10T16:41:57-0500
_audit_creation_method            fapswitch 2.2
_symmetry_space_group_name_H-M    P1
_symmetry_Int_Tables_number       1
_space_group_crystal_system       triclinic
_cell_length_a                    10.887976
_cell_length_b                    8.684815
_cell_length_c                    7.46806
_cell_angle_alpha                 102.860744
_cell_angle_beta                  94.76969
_cell_angle_gamma                 92.789622
_cell_volume                      684.438689803

loop_
_atom_site_label
_atom_site_type_symbol
_atom_type_description
_atom_site_fract_x
_atom_site_fract_y
_atom_site_fract_z
_atom_type_partial_charge
C1    C     C_R   0.485372 0.199618 0.453695 0.749543
C2    C     C_2   0.513167 0.968109 0.566358 -0.420131
C3    C     C_R   0.265494 0.502700 0.501678 0.858101
C4    C     C_R   0.503710 0.800210 0.546125 0.900569
C5    C     C_R   0.734426 0.498052 0.498549 0.834372
C6    C     C_2   0.924336 0.498015 0.350201 -0.164735
C7    C     C_2   0.866077 0.488831 0.498353 -0.308044
C8    C     C_2   0.058210 0.490462 0.350712 -0.146452
C9    C     C_2   0.133971 0.513155 0.506966 -0.302914
C10   C     C_2   0.461337 0.030470 0.432696 0.263387
Cu1   Cu    Cu3+1 0.513740 0.517380 0.684380 0.991817
Cu2   Cu    Cu3+1 0.486260 0.482620 0.315620 0.975862
H1    H     H_    0.872807 0.508505 0.222968 0.164529
H2    H     H_    0.914055 0.471892 0.624634 0.147147
H3    H     H_    0.094834 0.467492 0.217048 0.170132
H4    H     H_    0.101597 0.544194 0.642690 0.145304
H5    H     H_    0.571795 0.038564 0.684022 0.134027
H6    H     H_    0.598866 0.620054 0.051044 0.178660
N1    N     N_2   0.465540 0.456420 0.038510 0.059914
N2    N     N_2   0.534460 0.543580 0.961490 -0.136631
O1    O     O_R   0.508930 0.286130 0.619780 -0.533667
O2    O     O_R   0.485720 0.256780 0.308360 -0.621498
O3    O     O_R   0.333540 0.514670 0.655670 -0.539415
O4    O     O_R   0.310330 0.485320 0.344250 -0.595349
O5    O     O_R   0.514280 0.743220 0.691640 -0.610389
O6    O     O_R   0.491070 0.713870 0.380220 -0.552572
O7    O     O_R   0.689670 0.514680 0.655750 -0.593329
O8    O     O_R   0.666460 0.485330 0.344330 -0.600370
O9    O     O_3   0.367247 0.940962 0.308080 -0.573121
C11   C     C_3   0.366202 0.969291 0.129331 0.096856
H7    H     H_    0.461191 0.974997 0.084651 0.154763
H8    H     H_    0.320233 0.079668 0.124246 0.152707
C12   C     C_3   0.289963 0.834861 0.994121 -0.721905
H9    H     H_    0.193151 0.830146 0.030295 0.227563
H10   H     H_    0.290090 0.853731 0.851849 0.201889
H11   H     H_    0.329291 0.720360 0.999024 0.278709
O10   O     O_3   0.379049 0.359266 0.924870 -0.586105
H12   H     H_    0.331817 0.308934 0.006587 0.320778

loop_
_geom_bond_atom_site_label_1
_geom_bond_atom_site_label_2
_ccdc_geom_bond_type
C2    C4    S    
Cu1   Cu2   S    
C1    O1    A    
C6    C7    D    
C3    C9    S    
C5    O8    A    
Cu2   O4    S    
C4    O6    A    
N1    N2    D    
Cu1   O7    S    
C4    O5    A    
C1    O2    A    
C2    H5    S    
C11   H8    S    
C10   O9    S    
C3    O4    A    
O9    C11   S    
Cu2   O8    S    
Cu2   N1    S    
Cu1   O3    S    
C12   H10   S    
O10   H12   S    
C12   H9    S    
C8    H3    S    
H6    N2    S    
C11   H7    S    
Cu1   N2    S    
C9    H4    S    
Cu1   O5    S    
C2    C10   D    
Cu2   O2    S    
C12   H11   S    
C5    C7    S    
C6    C8    S    
N1    O10   S    
C11   C12   S    
C5    O7    A    
C3    O3    A    
Cu1   O1    S    
C7    H2    S    
C1    C10   S    
Cu2   O6    S    
C8    C9    D    
C6    H1    S    
