data_mof_unit_31479.cif
_audit_creation_date              2012-12-11T14:56:25-0500
_audit_creation_method            fapswitch 2.2
_symmetry_space_group_name_H-M    P1
_symmetry_Int_Tables_number       1
_space_group_crystal_system       triclinic
_cell_length_a                    10.510106
_cell_length_b                    10.634592
_cell_length_c                    17.022425
_cell_angle_alpha                 80.129639
_cell_angle_beta                  89.880867
_cell_angle_gamma                 118.904641
_cell_volume                      1632.96113593

loop_
_atom_site_label
_atom_site_type_symbol
_atom_type_description
_atom_site_fract_x
_atom_site_fract_y
_atom_site_fract_z
_atom_type_partial_charge
C1    C     C_R   0.279416 0.888833 0.132847 0.529745
C2    C     C_R   0.824091 0.482718 0.247088 -0.128250
C3    C     C_R   0.804378 0.448694 0.171018 0.092728
C4    C     C_R   0.661696 0.359826 0.151540 0.068732
C5    C     C_1   0.634341 0.871750 0.211262 -0.034951
C6    C     C_1   0.661238 0.856171 0.279087 -0.031632
C7    C     C_1   0.228645 0.854187 0.215707 -0.058431
C8    C     C_1   0.179959 0.834805 0.283359 -0.050685
C9    C     C_1   0.661666 0.358684 0.780526 -0.061720
C10   C     C_1   0.684785 0.402887 0.709867 -0.062947
C11   C     C_R   0.624317 0.712098 0.805335 -0.132041
C12   C     C_R   0.637929 0.282910 0.085380 0.554363
C13   C     C_R   0.609626 0.697393 0.726842 -0.130396
C14   C     C_R   0.669784 0.822211 0.665529 0.038551
C15   C     C_R   0.750606 0.962014 0.683003 -0.126045
C16   C     C_R   0.761197 0.977200 0.762228 -0.127214
C17   C     C_R   0.691713 0.852010 0.823396 0.027515
C18   C     C_R   0.249828 0.968918 0.757995 -0.122287
C19   C     C_R   0.236763 0.955594 0.679216 -0.126327
C20   C     C_R   0.163623 0.816319 0.660740 0.029775
C21   C     C_R   0.117809 0.690320 0.720785 -0.133022
C22   C     C_R   0.133347 0.703980 0.800134 -0.134692
C23   C     C_R   0.600961 0.881899 0.130878 0.542235
C24   C     C_R   0.193486 0.843101 0.818778 0.034902
C25   C     C_R   0.683139 0.813472 0.358714 0.547138
C26   C     C_R   0.726629 0.459276 0.382972 0.566429
C27   C     C_R   0.108882 0.812665 0.360091 0.544924
C28   C     C_R   0.677457 0.800188 0.585403 0.538107
C29   C     C_R   0.717602 0.446933 0.625870 0.563891
C30   C     C_R   0.102028 0.802296 0.585277 0.543767
C31   C     C_R   0.223942 0.863816 0.899041 0.558301
C32   C     C_R   0.640191 0.291158 0.861992 0.548195
C33   C     C_R   0.647974 0.866495 0.899867 0.557819
C34   C     C_R   0.540809 0.322341 0.204291 -0.163684
C35   C     C_R   0.561346 0.358694 0.279225 -0.128269
C36   C     C_R   0.703129 0.432329 0.302204 0.008395
Cr1   Cr    Cr6+3 0.402240 0.783890 0.019450 1.023965
Cr2   Cr    Cr6+3 0.382360 0.097900 0.991800 1.015789
Cr3   Cr    Cr6+3 0.715380 0.118170 0.988700 1.033953
Cr4   Cr    Cr6+3 0.936650 0.882420 0.465510 1.025830
Cr5   Cr    Cr6+3 0.605770 0.565620 0.493360 1.020334
Cr6   Cr    Cr6+3 0.921340 0.550490 0.496380 1.015515
H1    H     H_    0.430260 0.255338 0.190238 0.141035
H2    H     H_    0.274627 0.053672 0.633296 0.142338
H3    H     H_    0.060818 0.581461 0.707255 0.138372
H4    H     H_    0.095634 0.606957 0.846756 0.133036
H5    H     H_    0.466091 0.321865 0.320512 0.150990
H6    H     H_    0.933635 0.545481 0.263688 0.122833
H7    H     H_    0.571942 0.614483 0.852048 0.133857
H8    H     H_    0.803313 0.058412 0.635606 0.136223
H9    H     H_    0.813663 0.086472 0.775312 0.143928
H10   H     H_    0.304974 0.078130 0.771227 0.143272
O1    O     O_R   0.521780 0.757110 0.108900 -0.501607
O2    O     O_R   0.513330 0.228330 0.898660 -0.501793
O3    O     O_R   0.739230 0.266130 0.888050 -0.511281
O4    O     O_R   0.712580 0.991850 0.918770 -0.499121
O5    O     O_3   0.499990 0.999980 0.999980 -0.289120
O6    O     O_R   0.083770 0.911170 0.376030 -0.500478
O7    O     O_R   0.808770 0.880340 0.383890 -0.489524
O8    O     O_R   0.584340 0.689460 0.394160 -0.514487
O9    O     O_R   0.614320 0.443940 0.423590 -0.496201
O10   O     O_R   0.805020 0.410040 0.421340 -0.500496
O11   O     O_R   0.049240 0.685450 0.403290 -0.515986
O12   O     O_R   0.275160 0.783810 0.101120 -0.513692
O13   O     O_R   0.077520 0.903010 0.551800 -0.513464
O14   O     O_R   0.802980 0.872780 0.546830 -0.498708
O15   O     O_R   0.578090 0.681300 0.569920 -0.526376
O16   O     O_R   0.608530 0.436370 0.586530 -0.492578
O17   O     O_R   0.798770 0.401880 0.597100 -0.505507
O18   O     O_R   0.043450 0.677890 0.566230 -0.522086
O19   O     O_3   0.821250 0.666180 0.485090 -0.293707
O20   O     O_R   0.237900 0.972600 0.090980 -0.495673
O21   O     O_R   0.511190 0.220540 0.061620 -0.533588
O22   O     O_R   0.736920 0.257720 0.063840 -0.484260
O23   O     O_R   0.710450 0.984050 0.081720 -0.485473
O24   O     O_R   0.524090 0.765520 0.933110 -0.510411
O25   O     O_R   0.277300 0.791600 0.938160 -0.490049
O26   O     O_R   0.240210 0.981010 0.915190 -0.515330
N1    N     N_3   0.928887 0.501065 0.114558 -0.592235
H11   H     H_    0.999175 0.466076 0.140774 0.240901
H12   H     H_    0.983389 0.615506 0.103886 0.252929
H13   H     H_    0.553444 0.587879 0.714185 0.135213

loop_
_geom_bond_atom_site_label_1
_geom_bond_atom_site_label_2
_ccdc_geom_bond_type
Cr4   O19   S    
C12   O22   A    
C19   C20   A    
C16   H9    S    
Cr5   O9    S    
C35   H5    S    
C18   H10   S    
C7    C8    T    
Cr5   O15   S    
C20   C30   S    
C18   C24   A    
C26   O9    A    
C34   C35   A    
C5    C6    T    
Cr3   O22   S    
C6    C25   S    
C15   C16   A    
Cr2   O5    S    
Cr6   O18   S    
C18   C19   A    
C15   H8    S    
C9    C32   S    
Cr3   O3    S    
C35   C36   A    
C16   C17   A    
C5    C23   S    
C12   O21   A    
C31   O25   A    
C25   O8    A    
Cr3   O23   S    
C4    C12   S    
C9    C10   T    
Cr6   O10   S    
C32   O3    A    
C21   H3    S    
Cr5   O19   S    
Cr1   O1    S    
C33   O4    A    
C3    N1    S    
Cr4   O7    S    
Cr4   O14   S    
C13   C14   A    
C17   C33   S    
C32   O2    A    
C30   O18   A    
C23   O1    A    
Cr5   O16   S    
C29   O17   A    
Cr2   O20   S    
C1    O20   A    
Cr4   O6    S    
C28   O15   A    
N1    H12   S    
Cr2   O26   S    
C2    H6    S    
Cr1   O25   S    
C13   H13   S    
Cr6   O17   S    
C28   O14   A    
C11   H7    S    
C29   O16   A    
C33   O24   A    
Cr3   O4    S    
Cr2   O2    S    
C27   O11   A    
C26   C36   S    
C22   H4    S    
Cr1   O24   S    
Cr4   O13   S    
C22   C24   A    
C3    C4    A    
C1    O12   A    
Cr1   O12   S    
C19   H2    S    
C31   O26   A    
C2    C36   A    
C11   C17   A    
C1    C7    S    
C34   H1    S    
Cr5   O8    S    
C23   O23   A    
C27   O6    A    
C2    C3    A    
C26   O10   A    
C24   C31   S    
C11   C13   A    
C10   C29   S    
Cr6   O19   S    
C4    C34   A    
C30   O13   A    
N1    H11   S    
C20   C21   A    
C8    C27   S    
C14   C15   A    
C25   O7    A    
C14   C28   S    
C21   C22   A    
Cr6   O11   S    
Cr1   O5    S    
Cr2   O21   S    
Cr3   O5    S    
