data_mof_unit_40469.cif
_audit_creation_date              2012-12-10T16:59:16-0500
_audit_creation_method            fapswitch 2.2
_symmetry_space_group_name_H-M    P1
_symmetry_Int_Tables_number       1
_space_group_crystal_system       triclinic
_cell_length_a                    7.740527
_cell_length_b                    8.557187
_cell_length_c                    27.721393
_cell_angle_alpha                 90.975878
_cell_angle_beta                  86.196508
_cell_angle_gamma                 93.681559
_cell_volume                      1828.21004002

loop_
_atom_site_label
_atom_site_type_symbol
_atom_type_description
_atom_site_fract_x
_atom_site_fract_y
_atom_site_fract_z
_atom_type_partial_charge
C1    C     C_R   0.545885 0.794831 0.498736 0.976116
C2    C     C_R   0.454115 0.205169 0.501264 0.976115
C3    C     C_R   0.519411 0.493379 0.897738 -0.137235
C4    C     C_R   0.480589 0.506625 0.102262 -0.137235
C5    C     C_R   0.569535 0.630856 0.871761 -0.001576
C6    C     C_R   0.430465 0.369148 0.128239 -0.001575
C7    C     C_R   0.613159 0.769402 0.896442 -0.055229
C8    C     C_R   0.386839 0.230602 0.103558 -0.055230
C9    C     C_R   0.477405 0.353243 0.872278 -0.163067
C10   C     C_R   0.522596 0.646760 0.127722 -0.163067
C11   C     C_R   0.509780 0.497796 0.646409 -0.039857
C12   C     C_R   0.490220 0.502205 0.353591 -0.039856
C13   C     C_R   0.540183 0.642957 0.025257 -0.035733
C14   C     C_R   0.459817 0.357047 0.974743 -0.035733
C15   C     C_R   0.448269 0.360665 0.026031 0.099218
C16   C     C_R   0.551730 0.639338 0.973969 0.099218
C17   C     C_R   0.489568 0.503476 0.050960 0.075678
C18   C     C_R   0.510432 0.496527 0.949040 0.075678
C19   C     C_R   0.577215 0.782113 0.051985 -0.326765
C20   C     C_R   0.422786 0.217890 0.948015 -0.326765
C21   C     C_R   0.569790 0.783990 0.102044 0.682527
C22   C     C_R   0.430212 0.216013 0.897956 0.682526
C23   C     C_R   0.502907 0.499721 0.593915 0.874630
C24   C     C_R   0.497093 0.500279 0.406085 0.874630
C25   C     C_R   0.604559 0.774018 0.946442 -0.215410
C26   C     C_R   0.395439 0.225986 0.053557 -0.215411
C27   C     C_2   0.570148 0.958292 0.498003 -0.370713
C28   C     C_2   0.429852 0.041708 0.501996 -0.370713
C29   C     C_R   0.573132 0.627096 0.821316 0.529990
C30   C     C_R   0.426868 0.372907 0.178684 0.529990
C31   C     C_R   0.482847 0.355220 0.821601 0.552774
C32   C     C_R   0.517154 0.644783 0.178399 0.552774
C33   C     C_R   0.362539 0.494879 0.726086 -0.088689
C34   C     C_R   0.637463 0.505128 0.273913 -0.088690
C35   C     C_R   0.355852 0.497754 0.676201 -0.201166
C36   C     C_R   0.644150 0.502252 0.323799 -0.201165
C37   C     C_R   0.670313 0.495232 0.667187 -0.206618
C38   C     C_R   0.329687 0.504765 0.332813 -0.206617
C39   C     C_R   0.676524 0.492853 0.717132 -0.089806
C40   C     C_R   0.323476 0.507144 0.282868 -0.089805
C41   C     C_R   0.522666 0.492481 0.746458 0.302656
C42   C     C_R   0.477335 0.507522 0.253542 0.302656
H1    H     H_    0.790812 0.495473 0.644959 0.159534
H2    H     H_    0.209186 0.504519 0.355041 0.159532
H3    H     H_    0.014076 0.383208 0.463420 0.191732
H4    H     H_    0.985924 0.616791 0.536580 0.191733
H5    H     H_    0.800340 0.491177 0.733104 0.137717
H6    H     H_    0.199658 0.508817 0.266896 0.137717
H7    H     H_    0.653881 0.875976 0.877151 0.220183
H8    H     H_    0.346117 0.124028 0.122849 0.220182
H9    H     H_    0.769450 0.500572 0.338946 0.161330
H10   H     H_    0.230552 0.499437 0.661054 0.161331
H11   H     H_    0.756341 0.505025 0.250987 0.140697
H12   H     H_    0.243662 0.494985 0.749012 0.140697
H13   H     H_    0.612992 0.893424 0.035569 0.169543
H14   H     H_    0.387010 0.106579 0.964431 0.169542
H15   H     H_    0.641181 0.886164 0.962036 0.144892
H16   H     H_    0.358815 0.113840 0.037964 0.144893
H17   H     H_    0.702617 0.009425 0.494190 0.180984
H18   H     H_    0.297383 0.990575 0.505810 0.180984
N1    N     N_R   0.528418 0.491114 0.797627 -0.374011
N2    N     N_R   0.471582 0.508889 0.202373 -0.374010
N3    N     N_2   0.950320 0.457960 0.486880 -0.175685
N4    N     N_2   0.049680 0.542040 0.513120 -0.175685
O1    O     O_R   0.389250 0.738570 0.503220 -0.611115
O2    O     O_R   0.610750 0.261430 0.496780 -0.611115
O3    O     O_R   0.678390 0.711630 0.494810 -0.629259
O4    O     O_R   0.321610 0.288370 0.505190 -0.629259
O5    O     O_R   0.355440 0.513440 0.575450 -0.620912
O6    O     O_R   0.644560 0.486560 0.424550 -0.620912
O7    O     O_R   0.644590 0.486500 0.567040 -0.630443
O8    O     O_R   0.355410 0.513500 0.432960 -0.630443
O9    O     O_2   0.618486 0.758536 0.796021 -0.507849
O10   O     O_2   0.381513 0.241467 0.203979 -0.507850
O11   O     O_2   0.557415 0.776661 0.203758 -0.448957
O12   O     O_2   0.442587 0.223341 0.796242 -0.448956
Zn1   Zn    Zn3+2 0.306940 0.517990 0.505620 0.951386
Zn2   Zn    Zn3+2 0.693060 0.482010 0.494380 0.951386
F1    F     F_    0.610409 0.921752 0.124956 -0.621493
F2    F     F_    0.389593 0.078251 0.875044 -0.621493

loop_
_geom_bond_atom_site_label_1
_geom_bond_atom_site_label_2
_ccdc_geom_bond_type
C16   C25   A    
O6    Zn2   S    
C8    C26   A    
N4    Zn1   S    
C14   C18   A    
O5    Zn1   S    
C34   C42   A    
C41   N1    S    
C20   H14   S    
C32   O11   S    
C24   O6    A    
C39   C41   A    
C19   C21   A    
C2    O4    A    
C30   O10   S    
C9    C22   A    
C29   O9    S    
O4    Zn1   S    
C3    C18   A    
C15   C17   A    
C11   C37   A    
C31   N1    A    
C1    O3    A    
C1    O1    A    
C12   C36   A    
C42   N2    S    
C40   C42   A    
O3    Zn2   S    
C25   H15   S    
C5    C29   A    
C28   H18   S    
C10   C21   A    
O2    Zn2   S    
C29   N1    A    
O1    Zn1   S    
C13   C19   A    
C14   C20   A    
C7    H7    S    
C4    C6    A    
C5    C7    A    
C15   C26   A    
C6    C8    A    
C3    C5    A    
C23   O5    A    
H3    N3    S    
H4    N4    S    
C37   H1    S    
C38   H2    S    
O8    Zn1   S    
C3    C9    A    
C23   O7    A    
C21   F1    S    
C26   H16   S    
C36   H9    S    
C4    C17   A    
C6    C30   A    
C20   C22   A    
C30   N2    A    
C4    C10   A    
C8    H8    S    
C35   H10   S    
C24   O8    A    
C39   H5    S    
C19   H13   S    
C33   H12   S    
C40   H6    S    
C2    O2    A    
C12   C24   S    
C7    C25   A    
C13   C17   A    
C33   C41   A    
C11   C35   A    
C22   F2    S    
C37   C39   A    
C27   H17   S    
C38   C40   A    
C31   O12   S    
C11   C23   S    
C33   C35   A    
C34   C36   A    
C12   C38   A    
C9    C31   A    
C32   N2    A    
N3    N4    D    
C10   C32   A    
C34   H11   S    
C16   C18   A    
C13   C16   A    
C27   C28   D    
C1    C27   S    
C14   C15   A    
C2    C28   S    
O7    Zn2   S    
N3    Zn2   S    
