data_mof_unit_16983.cif
_audit_creation_date              2012-12-10T16:50:03-0500
_audit_creation_method            fapswitch 2.2
_symmetry_space_group_name_H-M    P1
_symmetry_Int_Tables_number       1
_space_group_crystal_system       triclinic
_cell_length_a                    7.766543
_cell_length_b                    8.639808
_cell_length_c                    10.622321
_cell_angle_alpha                 91.476971
_cell_angle_beta                  85.852549
_cell_angle_gamma                 93.895812
_cell_volume                      709.107838291

loop_
_atom_site_label
_atom_site_type_symbol
_atom_type_description
_atom_site_fract_x
_atom_site_fract_y
_atom_site_fract_z
_atom_type_partial_charge
C1    C     C_R   0.545130 0.794822 0.499066 0.937816
C2    C     C_R   0.453685 0.205976 0.507336 0.847531
C3    C     C_R   0.498065 0.500237 0.260750 0.891826
C4    C     C_R   0.436296 0.787786 0.880333 -0.173751
C5    C     C_R   0.395782 0.919840 0.951905 -0.125719
C6    C     C_R   0.388370 0.917105 0.082887 -0.152801
C7    C     C_R   0.421359 0.782119 0.143043 -0.147061
C8    C     C_R   0.460511 0.646532 0.072029 0.094874
C9    C     C_3   0.764117 0.200412 0.882752 0.095303
C10   C     C_3   0.913423 0.313410 0.834972 -0.832820
C11   C     C_3   0.175929 0.034911 0.655275 0.149413
C12   C     C_R   0.467444 0.648949 0.940063 0.019881
C13   C     C_3   0.067475 0.903746 0.721351 -0.863662
C14   C     C_R   0.510302 0.512885 0.871828 -0.207948
C15   C     C_R   0.558568 0.380554 0.929899 0.502786
C16   C     C_R   0.543893 0.377406 0.060021 -0.336238
C17   C     C_R   0.496376 0.508415 0.128918 -0.153280
C18   C     C_2   0.565128 0.958562 0.500753 -0.504881
C19   C     C_2   0.425516 0.043575 0.520452 0.302304
C20   C     C_R   0.503161 0.505026 0.739371 0.929321
H1    H     H_    0.985279 0.613412 0.597077 0.198759
H2    H     H_    0.773866 0.176317 0.984032 0.136773
H3    H     H_    0.038593 0.266354 0.853166 0.203030
H4    H     H_    0.909268 0.329129 0.731967 0.268074
H5    H     H_    0.906111 0.427769 0.884473 0.249248
H6    H     H_    0.088031 0.125170 0.633554 0.171704
H7    H     H_    0.269387 0.086337 0.721939 0.114460
H8    H     H_    0.144021 0.800573 0.726179 0.274738
H9    H     H_    0.026493 0.940679 0.819141 0.201751
H10   H     H_    0.950552 0.872583 0.669419 0.243914
H11   H     H_    0.445563 0.796125 0.778646 0.138642
H12   H     H_    0.371227 0.025265 0.906236 0.170305
H13   H     H_    0.358139 0.020129 0.138026 0.138099
H14   H     H_    0.416932 0.785699 0.244948 0.152499
H15   H     H_    0.566817 0.272701 0.108506 0.141934
H16   H     H_    0.696324 0.009752 0.483869 0.165990
H17   H     H_    0.013705 0.384196 0.403999 0.196636
H18   H     H_    0.778980 0.087973 0.831813 0.169803
N1    N     N_2   0.950330 0.457950 0.466250 -0.179536
N2    N     N_2   0.049670 0.542050 0.533750 -0.171278
O1    O     O_R   0.389250 0.738570 0.508280 -0.544067
O2    O     O_3   0.256496 0.978129 0.540983 -0.578646
O3    O     O_R   0.678390 0.711630 0.486650 -0.631088
O4    O     O_R   0.355400 0.513470 0.694050 -0.640556
O5    O     O_R   0.644540 0.486530 0.672420 -0.607654
O6    O     O_R   0.321610 0.288370 0.513350 -0.633126
O7    O     O_R   0.610750 0.261430 0.491720 -0.633014
O8    O     O_R   0.355460 0.513470 0.327580 -0.625687
O9    O     O_R   0.644600 0.486530 0.305950 -0.607276
O10   O     O_3   0.600754 0.250889 0.856727 -0.653411
Zn1   Zn    Zn3+2 0.306930 0.517990 0.514440 0.951644
Zn2   Zn    Zn3+2 0.693070 0.482010 0.485560 0.944443

loop_
_geom_bond_atom_site_label_1
_geom_bond_atom_site_label_2
_ccdc_geom_bond_type
C19   O2    S    
C13   H8    S    
C6    C7    A    
O1    Zn1   S    
C10   H3    S    
C4    C12   A    
N2    Zn1   S    
C9    C10   S    
C3    O8    A    
C8    C17   A    
O5    Zn2   S    
C6    H13   S    
C11   H7    S    
C8    C12   A    
O9    Zn2   S    
C5    H12   S    
N1    Zn2   S    
C3    O9    A    
C7    C8    A    
H17   N1    S    
C2    O6    A    
C11   C13   S    
C1    C18   S    
O7    Zn2   S    
H1    N2    S    
C10   H5    S    
C1    O1    A    
C9    H18   S    
C20   O4    A    
C12   C14   A    
C3    C17   S    
C16   H15   S    
C5    C6    A    
C2    O7    A    
C7    H14   S    
O3    Zn2   S    
C4    H11   S    
C16   C17   A    
C15   C16   A    
C14   C20   S    
C13   H10   S    
O4    Zn1   S    
C11   O2    S    
C9    H2    S    
C15   O10   S    
C13   H9    S    
N1    N2    D    
C14   C15   A    
C18   C19   D    
C11   H6    S    
C10   H4    S    
C2    C19   S    
C18   H16   S    
O6    Zn1   S    
C1    O3    A    
O8    Zn1   S    
C9    O10   S    
C20   O5    A    
C4    C5    A    
