data_mof_unit_9517.cif
_audit_creation_date              2012-12-10T20:25:47-0500
_audit_creation_method            fapswitch 2.2
_symmetry_space_group_name_H-M    P1
_symmetry_Int_Tables_number       1
_space_group_crystal_system       triclinic
_cell_length_a                    8.56119
_cell_length_b                    10.579487
_cell_length_c                    10.002733
_cell_angle_alpha                 92.877225
_cell_angle_beta                  98.061028
_cell_angle_gamma                 90.149112
_cell_volume                      895.852414763

loop_
_atom_site_label
_atom_site_type_symbol
_atom_type_description
_atom_site_fract_x
_atom_site_fract_y
_atom_site_fract_z
_atom_type_partial_charge
C1    C     C_R   0.498912 0.260717 0.497381 0.868046
C2    C     C_R   0.383676 0.937560 0.562056 -0.231215
C3    C     C_R   0.502452 0.871581 0.506743 -0.078191
C4    C     C_R   0.604063 0.931777 0.432993 0.126813
C5    C     C_3   0.780413 0.930037 0.452135 -0.508002
C6    C     C_3   0.775763 0.072901 0.446562 -0.491212
C7    C     C_R   0.501882 0.388676 0.064897 0.176861
C8    C     C_R   0.515202 0.608571 0.081936 -0.168151
C9    C     C_R   0.515007 0.610709 0.939935 0.165864
C10   C     C_R   0.491774 0.390067 0.922751 0.157970
C11   C     C_3   0.365819 0.289194 0.900898 -0.111785
C12   C     C_R   0.201838 0.500204 0.464591 0.951215
C13   C     C_3   0.387548 0.278967 0.054500 -0.090133
C14   C     C_R   0.502422 0.739279 0.503006 0.871477
C15   C     C_R   0.798021 0.502610 0.535125 0.961455
C16   C     C_2   0.036500 0.497302 0.445064 -0.385968
C17   C     C_2   0.962862 0.511603 0.552812 -0.414135
C18   C     C_R   0.600136 0.060385 0.427273 0.117985
C19   C     C_R   0.491401 0.128396 0.491437 -0.096092
C20   C     C_R   0.378005 0.067567 0.554209 -0.231777
H1    H     H_    0.975966 0.480323 0.342551 0.182344
H2    H     H_    0.404765 0.204254 0.844834 0.157752
H3    H     H_    0.281555 0.300943 0.103552 0.158575
H4    H     H_    0.289569 0.120729 0.600165 0.141660
H5    H     H_    0.831863 0.896969 0.552587 0.195674
H6    H     H_    0.826821 0.882508 0.364358 0.205429
H7    H     H_    0.823568 0.123345 0.544042 0.195991
H8    H     H_    0.525292 0.695761 0.143724 0.165673
N1    N     N_R   0.498950 0.499140 0.142680 -0.135016
N2    N     N_R   0.498950 0.499180 0.857030 -0.119321
O1    O     O_R   0.500020 0.316790 0.614690 -0.623725
O2    O     O_R   0.500000 0.316760 0.385350 -0.621437
O3    O     O_R   0.271760 0.500010 0.587850 -0.619827
O4    O     O_R   0.271740 0.499970 0.358500 -0.625140
O5    O     O_R   0.500000 0.683240 0.614650 -0.624067
O6    O     O_R   0.499980 0.683210 0.385310 -0.626481
O7    O     O_R   0.728260 0.500030 0.641500 -0.634198
O8    O     O_R   0.728240 0.499990 0.412150 -0.603923
Zn1   Zn    Zn3+2 0.500010 0.500020 0.653130 0.920003
Zn2   Zn    Zn3+2 0.499990 0.499980 0.346870 0.931316
C21   C     C_3   0.521477 0.741926 0.888425 -0.340336
C22   C     C_3   0.686250 0.775168 0.857649 -0.806093
H9    H     H_    0.768754 0.787899 0.953591 0.225146
H10   H     H_    0.733346 0.699705 0.794223 0.283077
H11   H     H_    0.682074 0.865149 0.804702 0.240000
H12   H     H_    0.423459 0.755793 0.806775 0.217042
H13   H     H_    0.494713 0.814722 0.966017 0.158971
C23   C     C_3   0.196981 0.328604 0.842165 -0.377132
C24   C     C_3   0.137791 0.454039 0.900475 -0.843739
H14   H     H_    0.008938 0.461313 0.867604 0.242428
H15   H     H_    0.155876 0.461137 0.012315 0.249052
H16   H     H_    0.196867 0.535805 0.863112 0.257850
H17   H     H_    0.189711 0.332518 0.731040 0.233925
H18   H     H_    0.114710 0.251869 0.860235 0.190551
C25   C     C_3   0.457392 0.150326 0.098092 -0.392110
C26   C     C_3   0.629797 0.129389 0.077971 -0.867001
H19   H     H_    0.644616 0.134694 0.969940 0.251123
H20   H     H_    0.707706 0.200903 0.139573 0.257817
H21   H     H_    0.666758 0.033960 0.110875 0.247290
H22   H     H_    0.445787 0.140823 0.205415 0.231192
H23   H     H_    0.383933 0.073010 0.041491 0.193872
H24   H     H_    0.023497 0.532045 0.653800 0.186408
H25   H     H_    0.297576 0.889065 0.611304 0.142730
H26   H     H_    0.820643 0.108059 0.356211 0.205631

loop_
_geom_bond_atom_site_label_1
_geom_bond_atom_site_label_2
_ccdc_geom_bond_type
C7    C10   A    
O5    Zn1   S    
C21   H12   S    
C15   O8    A    
C16   H1    S    
C7    N1    A    
C17   H24   S    
C21   C22   S    
C10   N2    A    
C11   H2    S    
C9    C21   S    
C19   C20   A    
C26   H21   S    
C1    O1    A    
C25   C26   S    
C24   H16   S    
C4    C18   A    
C23   H17   S    
C2    C3    A    
C21   H13   S    
O7    Zn1   S    
C25   H22   S    
C2    H25   S    
C23   H18   S    
C11   C13   S    
C11   C23   S    
O3    Zn1   S    
C3    C14   S    
C22   H10   S    
C9    N2    A    
C5    H5    S    
C8    N1    A    
C25   H23   S    
N1    Zn2   S    
C23   C24   S    
O8    Zn2   S    
C26   H20   S    
N2    Zn1   S    
C18   C19   A    
O2    Zn2   S    
C14   O6    A    
C5    C6    S    
C6    C18   S    
O4    Zn2   S    
C1    C19   S    
C16   C17   D    
C10   C11   S    
C12   O4    A    
C5    H6    S    
C12   C16   S    
O6    Zn2   S    
C26   H19   S    
C13   H3    S    
C8    H8    S    
C24   H14   S    
C22   H9    S    
C6    H26   S    
C14   O5    A    
C15   C17   S    
C20   H4    S    
C4    C5    S    
C7    C13   S    
C13   C25   S    
C12   O3    A    
C2    C20   A    
C1    O2    A    
C15   O7    A    
C3    C4    A    
C6    H7    S    
O1    Zn1   S    
C8    C9    A    
C24   H15   S    
C22   H11   S    
