data_mof_unit_46549.cif
_audit_creation_date              2012-12-10T18:32:56-0500
_audit_creation_method            fapswitch 2.2
_symmetry_space_group_name_H-M    P1
_symmetry_Int_Tables_number       1
_space_group_crystal_system       triclinic
_cell_length_a                    14.966957
_cell_length_b                    15.217798
_cell_length_c                    15.754726
_cell_angle_alpha                 89.451657
_cell_angle_beta                  102.851453
_cell_angle_gamma                 82.420046
_cell_volume                      3465.09059452

loop_
_atom_site_label
_atom_site_type_symbol
_atom_type_description
_atom_site_fract_x
_atom_site_fract_y
_atom_site_fract_z
_atom_type_partial_charge
C1    C     C_R   0.442063 0.662849 0.490632 0.867772
C2    C     C_R   0.591335 0.244076 0.541182 -0.066780
C3    C     C_R   0.279795 0.872920 0.506107 0.181536
C4    C     C_R   0.500026 0.499952 0.661522 0.891913
C5    C     C_R   0.312284 0.785205 0.488729 -0.189943
C6    C     C_R   0.470580 0.812676 0.534499 -0.260986
C7    C     C_R   0.441995 0.899092 0.555396 0.065574
C8    C     C_R   0.345980 0.931176 0.537632 0.064758
C9    C     C_R   0.507994 0.956139 0.587071 0.048585
C10   C     C_R   0.479167 0.048346 0.580311 0.042691
C11   C     C_R   0.383715 0.079966 0.574897 0.152460
C12   C     C_3   0.378480 0.525513 0.027701 0.524149
C13   C     C_R   0.318846 0.020532 0.552939 -0.303590
C14   C     C_R   0.602309 0.924415 0.623514 -0.221198
C15   C     C_R   0.667986 0.982537 0.640540 -0.240677
C16   C     C_R   0.557836 0.337108 0.514439 0.860541
C17   C     C_R   0.642329 0.071644 0.614041 0.172218
C18   C     C_R   0.547875 0.103589 0.579362 0.088404
C19   C     C_R   0.709598 0.128493 0.617648 -0.216256
C20   C     C_R   0.683684 0.215460 0.583426 -0.197054
C21   C     C_R   0.525960 0.185807 0.535163 -0.249641
C22   C     C_R   0.848659 0.607961 0.653836 -0.247342
C23   C     C_3   0.484067 0.514655 0.080269 0.042890
C24   C     C_R   0.756551 0.599187 0.621272 -0.115691
C25   C     C_R   0.793425 0.517307 0.503174 0.644915
C26   C     C_R   0.889744 0.514629 0.539045 -0.191309
C27   C     C_R   0.916533 0.563370 0.615016 -0.094384
C28   C     C_R   0.500099 0.500347 0.338760 0.905432
C29   C     C_R   0.959459 0.468241 0.501418 0.020138
C30   C     C_R   0.052442 0.483628 0.531303 -0.144268
C31   C     C_R   0.078271 0.521116 0.613880 0.396011
C32   C     C_R   0.010648 0.564086 0.653402 0.476508
C33   C     C_R   0.941168 0.403141 0.438734 -0.138512
C34   C     C_3   0.539587 0.427132 0.059150 -0.674935
C35   C     C_R   0.008787 0.365481 0.397218 -0.255824
C36   C     C_R   0.096023 0.392713 0.415671 0.182323
C37   C     C_R   0.117894 0.454372 0.481146 0.034645
C38   C     C_R   0.162595 0.357560 0.370946 -0.335199
C39   C     C_R   0.249568 0.384879 0.390933 -0.006492
C40   C     C_3   0.380052 0.522158 0.924499 0.511236
C41   C     C_R   0.204776 0.484512 0.493510 -0.035335
C42   C     C_3   0.528987 0.595698 0.956463 -0.513490
C43   C     C_3   0.533528 0.593016 0.055999 0.435368
C44   C     C_1   0.498227 0.505536 0.249682 -0.219704
C45   C     C_3   0.551889 0.430732 0.964974 0.372455
C46   C     C_3   0.486828 0.513443 0.914854 0.022236
C47   C     C_3   0.294498 0.624781 0.115575 -0.204069
C48   C     C_3   0.367501 0.370726 0.874515 -0.419114
C49   C     C_3   0.325151 0.450995 0.057038 -0.352753
C50   C     C_3   0.222117 0.457420 0.011314 -0.811849
C51   C     C_3   0.176258 0.905368 0.491430 -0.419691
C52   C     C_3   0.111051 0.837166 0.459284 -0.888171
C53   C     C_3   0.322616 0.611851 0.877727 -0.282787
C54   C     C_3   0.315128 0.624799 0.779791 -0.786548
C55   C     C_3   0.349005 0.170884 0.604822 -0.389572
C56   C     C_1   0.492726 0.510825 0.173469 -0.014510
C57   C     C_3   0.398241 0.186803 0.698098 -0.870135
C58   C     C_3   0.046716 0.559131 0.802188 -0.328625
C59   C     C_3   0.755939 0.554797 0.359265 -0.313712
C60   C     C_3   0.200483 0.422624 0.686953 -0.298420
C61   C     C_3   0.558260 0.734603 0.101834 -0.345559
C62   C     C_3   0.699507 0.354869 0.967128 -0.338203
C63   C     C_1   0.494251 0.509227 0.824708 0.034856
C64   C     C_1   0.498505 0.504225 0.750303 -0.211820
C65   C     C_R   0.407110 0.755731 0.501795 -0.117994
H1    H     H_    0.609124 0.416201 0.104572 0.233030
H2    H     H_    0.223279 0.537477 0.536117 0.185774
H3    H     H_    0.302551 0.356512 0.358517 0.138087
H4    H     H_    0.992260 0.315711 0.349608 0.141918
H5    H     H_    0.866541 0.645714 0.711614 0.194529
H6    H     H_    0.704612 0.627669 0.654832 0.158655
H7    H     H_    0.600021 0.596579 0.946071 0.208252
H8    H     H_    0.876692 0.376239 0.423936 0.199321
H9    H     H_    0.147923 0.308779 0.321923 0.144684
H10   H     H_    0.491271 0.659128 0.924586 0.187398
H11   H     H_    0.608050 0.577646 0.090766 0.092804
H12   H     H_    0.246571 0.045490 0.546803 0.137898
H13   H     H_    0.534874 0.368664 0.933550 0.084526
H14   H     H_    0.506992 0.368221 0.070644 0.153484
H15   H     H_    0.334518 0.588812 0.175800 0.155879
H16   H     H_    0.223005 0.608091 0.100094 0.150999
H17   H     H_    0.288988 0.696201 0.130058 0.184886
H18   H     H_    0.402885 0.338002 0.937859 0.151706
H19   H     H_    0.312006 0.330133 0.848611 0.185236
H20   H     H_    0.411447 0.367738 0.826337 0.172915
H21   H     H_    0.194285 0.523625 0.979541 0.257223
H22   H     H_    0.211424 0.406857 0.961074 0.266141
H23   H     H_    0.458423 0.203771 0.493036 0.152513
H24   H     H_    0.180851 0.444188 0.059396 0.217858
H25   H     H_    0.358147 0.383462 0.049716 0.170495
H26   H     H_    0.329589 0.452113 0.128188 0.177451
H27   H     H_    0.119523 0.813655 0.394639 0.254484
H28   H     H_    0.123906 0.780201 0.507080 0.265985
H29   H     H_    0.038322 0.868617 0.452049 0.253689
H30   H     H_    0.161429 0.929410 0.553933 0.209636
H31   H     H_    0.158260 0.962045 0.442904 0.204106
H32   H     H_    0.374491 0.655920 0.767923 0.219098
H33   H     H_    0.312369 0.561220 0.746803 0.324201
H34   H     H_    0.735533 0.259800 0.589618 0.161122
H35   H     H_    0.251190 0.670399 0.750262 0.268928
H36   H     H_    0.250318 0.613889 0.885538 0.233284
H37   H     H_    0.345870 0.672463 0.908647 0.214535
H38   H     H_    0.393186 0.131626 0.742710 0.260108
H39   H     H_    0.472130 0.192888 0.702439 0.265485
H40   H     H_    0.364912 0.249554 0.719543 0.228597
H41   H     H_    0.353312 0.226337 0.560939 0.208145
H42   H     H_    0.274006 0.176070 0.604016 0.194812
H43   H     H_    0.115565 0.518147 0.818005 0.218344
H44   H     H_    0.991012 0.516277 0.797564 0.141412
H45   H     H_    0.739667 0.956619 0.668365 0.146685
H46   H     H_    0.043004 0.602994 0.857478 0.180657
H47   H     H_    0.826338 0.570290 0.358341 0.154416
H48   H     H_    0.710943 0.615977 0.370358 0.167748
H49   H     H_    0.725565 0.531726 0.293898 0.189921
H50   H     H_    0.181050 0.374419 0.635826 0.144102
H51   H     H_    0.174483 0.405225 0.744685 0.173423
H52   H     H_    0.277002 0.413439 0.704450 0.213965
H53   H     H_    0.592286 0.744048 0.047028 0.153450
H54   H     H_    0.610870 0.711390 0.162238 0.152809
H55   H     H_    0.522220 0.800095 0.114131 0.199166
H56   H     H_    0.264568 0.738836 0.465136 0.172650
H57   H     H_    0.679457 0.322611 0.903967 0.164886
H58   H     H_    0.693160 0.311040 0.021794 0.156950
H59   H     H_    0.773276 0.364270 0.976730 0.192390
H60   H     H_    0.543151 0.789388 0.540981 0.166433
H61   H     H_    0.626150 0.855097 0.641106 0.144284
H62   H     H_    0.781795 0.105660 0.646459 0.136165
N1    N     N_R   0.731690 0.552720 0.548990 -0.133614
N2    N     N_R   0.268300 0.447240 0.450950 -0.112729
O1    O     O_R   0.383120 0.605620 0.475300 -0.619235
O2    O     O_3   0.325271 0.457889 0.881288 -0.600401
O3    O     O_3   0.037160 0.612856 0.726346 -0.585836
O4    O     O_3   0.759428 0.486749 0.421907 -0.615208
O5    O     O_3   0.169266 0.512542 0.659804 -0.611272
O6    O     O_3   0.492470 0.675186 0.081330 -0.548321
O7    O     O_3   0.645908 0.438813 0.965436 -0.588196
O8    O     O_R   0.531890 0.639510 0.506740 -0.621777
O9    O     O_R   0.425580 0.483050 0.607130 -0.607414
O10   O     O_R   0.574360 0.516930 0.638570 -0.614639
O11   O     O_R   0.468110 0.360490 0.493260 -0.623203
O12   O     O_R   0.616880 0.394380 0.524700 -0.594772
O13   O     O_R   0.425640 0.483070 0.361430 -0.630324
O14   O     O_R   0.574420 0.516950 0.392870 -0.554033
O15   O     O_3   0.335557 0.612913 0.042878 -0.604961
Zn1   Zn    Zn3+2 0.400660 0.477370 0.479010 0.929002
Zn2   Zn    Zn3+2 0.599340 0.522630 0.520990 0.969730

loop_
_geom_bond_atom_site_label_1
_geom_bond_atom_site_label_2
_ccdc_geom_bond_type
O14   Zn2   S    
C57   H40   S    
O10   Zn2   S    
C8    C13   A    
C29   C33   A    
C61   H54   S    
C58   H44   S    
C39   H3    S    
C35   C36   A    
C15   H45   S    
C62   H57   S    
C49   H25   S    
C34   H1    S    
C62   H59   S    
C12   C49   S    
C11   C55   S    
C23   C56   S    
C41   H2    S    
C53   C54   S    
C40   C46   S    
C12   C23   S    
C42   H10   S    
C36   C37   A    
C25   N1    A    
C38   C39   A    
O9    Zn1   S    
C18   C21   A    
C5    H56   S    
C23   C43   S    
C15   C17   A    
C42   C46   S    
C47   H17   S    
C62   O7    S    
C49   C50   S    
C17   C19   A    
C6    C65   A    
C19   C20   A    
C53   H36   S    
C1    C65   S    
C54   H32   S    
C52   H29   S    
C45   H13   S    
C25   O4    S    
C9    C10   A    
N2    Zn1   S    
C51   H31   S    
C27   C32   A    
C21   H23   S    
O1    Zn1   S    
O13   Zn1   S    
C54   H35   S    
C16   O11   A    
C47   H15   S    
C49   H26   S    
C31   O5    S    
C62   H58   S    
C59   H47   S    
C57   H38   S    
C13   H12   S    
C55   H41   S    
C2    C20   A    
C51   C52   S    
O8    Zn2   S    
C7    C8    A    
C5    C65   A    
C1    O1    A    
C58   O3    S    
C28   O14   A    
C3    C51   S    
C39   N2    A    
C25   C26   A    
C45   C46   S    
C47   O15   S    
C28   C44   S    
C48   H19   S    
C30   C37   A    
C55   H42   S    
C12   C40   S    
C9    C14   A    
C29   C30   A    
C34   H14   S    
C44   C56   T    
C50   H24   S    
C31   C32   A    
C53   H37   S    
C59   H48   S    
C23   C34   S    
C2    C21   A    
C42   H7    S    
C17   C18   A    
C26   C27   A    
C60   H52   S    
C48   O2    S    
C34   C45   S    
C43   O6    S    
O12   Zn2   S    
C50   H22   S    
C33   H8    S    
C40   O2    S    
C3    C8    A    
C22   C27   A    
C55   C57   S    
C22   C24   A    
C60   H51   S    
C28   O13   A    
C42   C43   S    
C60   O5    S    
C32   O3    S    
C1    O8    A    
C61   O6    S    
C38   H9    S    
C43   H11   S    
C7    C9    A    
C57   H39   S    
C45   O7    S    
C61   H53   S    
C14   C15   A    
C6    H60   S    
C3    C5    A    
O11   Zn1   S    
C58   H46   S    
C6    C7    A    
C2    C16   S    
C4    C64   S    
C14   H61   S    
C48   H18   S    
C52   H28   S    
C46   C63   S    
C36   C38   A    
C16   O12   A    
C4    O10   A    
C41   N2    A    
C11   C13   A    
N1    Zn2   S    
C30   C31   A    
C20   H34   S    
C10   C18   A    
C59   H49   S    
C19   H62   S    
C33   C35   A    
C59   O4    S    
C58   H43   S    
C47   H16   S    
C37   C41   A    
C52   H27   S    
C10   C11   A    
C50   H21   S    
C4    O9    A    
C63   C64   T    
C12   O15   S    
C35   H4    S    
C26   C29   A    
C40   C53   S    
C24   N1    A    
C48   H20   S    
C54   H33   S    
C60   H50   S    
C22   H5    S    
C24   H6    S    
C51   H30   S    
C61   H55   S    
