data_mof_unit_55069.cif
_audit_creation_date              2012-12-11T15:12:24-0500
_audit_creation_method            fapswitch 2.2
_symmetry_space_group_name_H-M    P1
_symmetry_Int_Tables_number       1
_space_group_crystal_system       triclinic
_cell_length_a                    31.066439
_cell_length_b                    22.708703
_cell_length_c                    17.891547
_cell_angle_alpha                 90.00002
_cell_angle_beta                  122.306101
_cell_angle_gamma                 90.00021
_cell_volume                      10668.2631603

loop_
_atom_site_label
_atom_site_type_symbol
_atom_type_description
_atom_site_fract_x
_atom_site_fract_y
_atom_site_fract_z
_atom_type_partial_charge
C1    C     C_R   0.541564 0.589611 0.736762 -0.159183
C2    C     C_R   0.458592 0.410468 0.263296 -0.157192
C3    C     C_R   0.458434 0.589606 0.263233 -0.159197
C4    C     C_R   0.541405 0.410464 0.736698 -0.157181
C5    C     C_R   0.041565 0.089611 0.736763 -0.159186
C6    C     C_R   0.958593 0.910468 0.263297 -0.157190
C7    C     C_R   0.958434 0.089605 0.263233 -0.159198
C8    C     C_R   0.041406 0.910465 0.736700 -0.157186
C9    C     C_R   0.714542 0.319649 0.441380 0.139217
C10   C     C_R   0.303570 0.699906 0.573678 0.137647
C11   C     C_R   0.285422 0.319688 0.558592 0.139222
C12   C     C_R   0.696401 0.699940 0.426301 0.137644
C13   C     C_R   0.214551 0.819658 0.441397 0.139217
C14   C     C_R   0.803576 0.199915 0.573684 0.137647
C15   C     C_R   0.785429 0.819681 0.558598 0.139220
C16   C     C_R   0.196398 0.199943 0.426301 0.137644
C17   C     C_R   0.738357 0.274069 0.503988 0.016118
C18   C     C_R   0.280354 0.745991 0.512042 0.015381
C19   C     C_R   0.261610 0.274105 0.495989 0.016119
C20   C     C_R   0.719621 0.746020 0.487945 0.015382
C21   C     C_R   0.238359 0.774071 0.503995 0.016119
C22   C     C_R   0.780352 0.245992 0.512036 0.015382
C23   C     C_R   0.761616 0.774099 0.495992 0.016119
C24   C     C_R   0.219616 0.246025 0.487942 0.015381
C25   C     C_R   0.719919 0.256424 0.558103 0.076966
C26   C     C_R   0.298344 0.762709 0.456915 0.078522
C27   C     C_R   0.280052 0.256457 0.441881 0.076963
C28   C     C_R   0.701637 0.762731 0.543082 0.078524
C29   C     C_R   0.219916 0.756421 0.558100 0.076966
C30   C     C_R   0.798336 0.262704 0.456898 0.078523
C31   C     C_R   0.780056 0.756452 0.441881 0.076964
C32   C     C_R   0.201630 0.262736 0.543077 0.078524
C33   C     C_R   0.733868 0.338478 0.390479 -0.275298
C34   C     C_R   0.286184 0.683184 0.628244 -0.274728
C35   C     C_R   0.266090 0.338521 0.609484 -0.275300
C36   C     C_R   0.713781 0.683223 0.371726 -0.274726
C37   C     C_R   0.233884 0.838493 0.390508 -0.275296
C38   C     C_R   0.786195 0.183197 0.628258 -0.274728
C39   C     C_R   0.766099 0.838512 0.609493 -0.275299
C40   C     C_R   0.213780 0.183226 0.371728 -0.274726
C41   C     C_R   0.276149 0.810816 0.398680 0.042168
C42   C     C_R   0.744303 0.210995 0.620775 0.043270
C43   C     C_R   0.723835 0.810835 0.601322 0.042159
C44   C     C_R   0.255670 0.211026 0.379211 0.043274
C45   C     C_R   0.776134 0.310802 0.398650 0.042158
C46   C     C_R   0.244294 0.710985 0.620762 0.043270
C47   C     C_R   0.223826 0.310842 0.601314 0.042160
C48   C     C_R   0.755672 0.711023 0.379209 0.043273
C49   C     C_R   0.384680 0.649352 0.143359 0.136844
C50   C     C_R   0.618312 0.358807 0.864755 0.135052
C51   C     C_R   0.615315 0.649365 0.856627 0.136847
C52   C     C_R   0.381678 0.358824 0.135227 0.135048
C53   C     C_R   0.884681 0.149351 0.143359 0.136842
C54   C     C_R   0.118316 0.858814 0.864762 0.135047
C55   C     C_R   0.115315 0.149366 0.856628 0.136849
C56   C     C_R   0.881679 0.858822 0.135230 0.135050
C57   C     C_R   0.364271 0.681524 0.999765 -0.202813
C58   C     C_R   0.647959 0.346617 0.018786 -0.203545
C59   C     C_R   0.635711 0.681559 0.000204 -0.202812
C60   C     C_R   0.352016 0.346665 0.981184 -0.203548
C61   C     C_R   0.864273 0.181529 0.999769 -0.202812
C62   C     C_R   0.147980 0.846652 0.018805 -0.203544
C63   C     C_R   0.135711 0.181560 0.000204 -0.202811
C64   C     C_R   0.852022 0.846655 0.981190 -0.203546
C65   C     C_R   0.393292 0.646498 0.074425 -0.172762
C66   C     C_R   0.613061 0.370834 0.936117 -0.169042
C67   C     C_R   0.606695 0.646524 0.925553 -0.172763
C68   C     C_R   0.386922 0.370865 0.063862 -0.169035
C69   C     C_R   0.893294 0.146500 0.074426 -0.172763
C70   C     C_R   0.113075 0.870856 0.936130 -0.169039
C71   C     C_R   0.106695 0.146524 0.925553 -0.172765
C72   C     C_R   0.886926 0.870859 0.063866 -0.169037
C73   C     C_R   0.350430 0.689891 0.140859 -0.239810
C74   C     C_R   0.655798 0.320563 0.874699 -0.244919
C75   C     C_R   0.649567 0.689901 0.859124 -0.239811
C76   C     C_R   0.344189 0.320580 0.125276 -0.244922
C77   C     C_R   0.850430 0.189888 0.140861 -0.239807
C78   C     C_R   0.155800 0.820566 0.874706 -0.244919
C79   C     C_R   0.149567 0.189902 0.859125 -0.239811
C80   C     C_R   0.844190 0.820579 0.125278 -0.244922
C81   C     C_R   0.318124 0.722014 0.064591 0.079933
C82   C     C_R   0.695481 0.304048 0.958361 0.084277
C83   C     C_R   0.681867 0.722034 0.935386 0.079931
C84   C     C_R   0.304500 0.304083 0.041610 0.084279
C85   C     C_R   0.818118 0.222005 0.064590 0.079935
C86   C     C_R   0.195489 0.804062 0.958369 0.084277
C87   C     C_R   0.181865 0.222038 0.935384 0.079930
C88   C     C_R   0.804503 0.804078 0.041613 0.084279
C89   C     C_R   0.626814 0.608425 0.569694 -0.134601
C90   C     C_R   0.368567 0.396517 0.429935 -0.138125
C91   C     C_R   0.373179 0.608418 0.430306 -0.134610
C92   C     C_R   0.631422 0.396504 0.570064 -0.138115
C93   C     C_R   0.126813 0.108425 0.569695 -0.134600
C94   C     C_R   0.868570 0.896514 0.429935 -0.138121
C95   C     C_R   0.873179 0.108418 0.430305 -0.134610
C96   C     C_R   0.131422 0.896505 0.570064 -0.138114
C97   C     C_R   0.325500 0.717478 0.993011 0.183924
C98   C     C_R   0.689896 0.314385 0.030747 0.181588
C99   C     C_R   0.674483 0.717510 0.006958 0.183924
C100  C     C_R   0.310077 0.314435 0.969219 0.181584
C101  C     C_R   0.825499 0.217478 0.993015 0.183924
C102  C     C_R   0.189915 0.814417 0.030763 0.181586
C103  C     C_R   0.174482 0.217511 0.006958 0.183924
C104  C     C_R   0.810083 0.814426 0.969225 0.181584
C105  C     C_R   0.276587 0.754779 0.055419 0.066643
C106  C     C_R   0.740459 0.278218 0.971339 0.067928
C107  C     C_R   0.723405 0.754797 0.944559 0.066644
C108  C     C_R   0.259521 0.278255 0.028633 0.067930
C109  C     C_R   0.776575 0.254759 0.055413 0.066645
C110  C     C_R   0.240465 0.778228 0.971341 0.067930
C111  C     C_R   0.223401 0.254804 0.944556 0.066643
C112  C     C_R   0.759524 0.778251 0.028635 0.067930
C113  C     C_R   0.751177 0.277033 0.903606 -0.188633
C114  C     C_R   0.268975 0.763557 0.126232 -0.187115
C115  C     C_R   0.248806 0.277065 0.096369 -0.188636
C116  C     C_R   0.731022 0.763567 0.873751 -0.187112
C117  C     C_R   0.251175 0.777029 0.903598 -0.188632
C118  C     C_R   0.768949 0.263513 0.126214 -0.187098
C119  C     C_R   0.748806 0.777064 0.096369 -0.188636
C120  C     C_R   0.231014 0.263580 0.873744 -0.187116
C121  C     C_R   0.793267 0.247485 0.914814 -0.215870
C122  C     C_R   0.226624 0.793480 0.113914 -0.216275
C123  C     C_R   0.206714 0.247520 0.085159 -0.215867
C124  C     C_R   0.773377 0.793486 0.886074 -0.216272
C125  C     C_R   0.293264 0.747478 0.914805 -0.215871
C126  C     C_R   0.726595 0.293432 0.113892 -0.216279
C127  C     C_R   0.706714 0.747519 0.085159 -0.215868
C128  C     C_R   0.273368 0.293501 0.886066 -0.216271
C129  C     C_R   0.575426 0.607789 0.422096 -0.133671
C130  C     C_R   0.419048 0.396969 0.578251 -0.135576
C131  C     C_R   0.424565 0.607782 0.577905 -0.133674
C132  C     C_R   0.580939 0.396956 0.421749 -0.135573
C133  C     C_R   0.075425 0.107790 0.422096 -0.133672
C134  C     C_R   0.919051 0.896966 0.578251 -0.135575
C135  C     C_R   0.924565 0.107782 0.577905 -0.133672
C136  C     C_R   0.080940 0.896957 0.421749 -0.135575
C137  C     C_R   0.386054 0.587626 0.261929 0.042145
C138  C     C_R   0.613977 0.412624 0.738058 0.051731
C139  C     C_R   0.613946 0.587628 0.738069 0.042136
C140  C     C_R   0.386021 0.412627 0.261940 0.051745
C141  C     C_R   0.886054 0.087625 0.261929 0.042146
C142  C     C_R   0.113978 0.912624 0.738058 0.051732
C143  C     C_R   0.113946 0.087628 0.738070 0.042134
C144  C     C_R   0.886021 0.912627 0.261940 0.051743
C145  C     C_R   0.591153 0.609540 0.781261 0.007309
C146  C     C_R   0.408705 0.391247 0.218085 0.004732
C147  C     C_R   0.408845 0.609534 0.218734 0.007309
C148  C     C_R   0.591291 0.391242 0.781908 0.004733
C149  C     C_R   0.091153 0.109540 0.781261 0.007309
C150  C     C_R   0.908706 0.891247 0.218086 0.004732
C151  C     C_R   0.908845 0.109533 0.218733 0.007312
C152  C     C_R   0.091292 0.891243 0.781910 0.004731
C153  C     C_R   0.612680 0.638957 0.492646 0.068273
C154  C     C_R   0.379148 0.368778 0.506852 0.071924
C155  C     C_R   0.387308 0.638946 0.507355 0.068280
C156  C     C_R   0.620832 0.368757 0.493147 0.071918
C157  C     C_R   0.112678 0.138958 0.492646 0.068273
C158  C     C_R   0.879153 0.868773 0.506852 0.071921
C159  C     C_R   0.887308 0.138946 0.507355 0.068281
C160  C     C_R   0.120833 0.868758 0.493147 0.071916
C161  C     C_R   0.678270 0.285812 0.549165 -0.254836
C162  C     C_R   0.336472 0.728950 0.459165 -0.253302
C163  C     C_R   0.321705 0.285840 0.450827 -0.254834
C164  C     C_R   0.663512 0.728967 0.540839 -0.253301
C165  C     C_R   0.178267 0.785809 0.549160 -0.254837
C166  C     C_R   0.836466 0.228946 0.459150 -0.253304
C167  C     C_R   0.821708 0.785835 0.450827 -0.254836
C168  C     C_R   0.163507 0.228971 0.540835 -0.253300
C169  C     C_R   0.655840 0.331198 0.488271 0.108990
C170  C     C_R   0.356526 0.681308 0.516503 0.110237
C171  C     C_R   0.344133 0.331228 0.511720 0.108987
C172  C     C_R   0.643455 0.681328 0.483493 0.110240
C173  C     C_R   0.155842 0.831201 0.488273 0.108988
C174  C     C_R   0.856527 0.181312 0.516502 0.110240
C175  C     C_R   0.844138 0.831221 0.511722 0.108988
C176  C     C_R   0.143452 0.181330 0.483493 0.110240
C177  C     C_R   0.672761 0.347443 0.433119 -0.240563
C178  C     C_R   0.342180 0.668606 0.576466 -0.239275
C179  C     C_R   0.327206 0.347481 0.566859 -0.240570
C180  C     C_R   0.657793 0.668637 0.423516 -0.239268
C181  C     C_R   0.172770 0.847452 0.433133 -0.240563
C182  C     C_R   0.842187 0.168617 0.576476 -0.239271
C183  C     C_R   0.827213 0.847472 0.566865 -0.240567
C184  C     C_R   0.157792 0.168638 0.423517 -0.239270
H1    H     H_    0.515832 0.592201 0.759821 0.097053
H2    H     H_    0.484488 0.408329 0.240495 0.099164
H3    H     H_    0.484165 0.592192 0.240170 0.097055
H4    H     H_    0.515507 0.408320 0.759493 0.099165
H5    H     H_    0.015832 0.092200 0.759821 0.097054
H6    H     H_    0.984489 0.908328 0.240497 0.099164
H7    H     H_    0.984165 0.092191 0.240170 0.097055
H8    H     H_    0.015509 0.908323 0.759497 0.099167
H9    H     H_    0.654758 0.307274 0.815812 0.122091
H10   H     H_    0.347861 0.692564 0.198309 0.117382
H11   H     H_    0.345232 0.307281 0.184161 0.122096
H12   H     H_    0.652142 0.692564 0.801681 0.117381
H13   H     H_    0.154754 0.807269 0.815817 0.122091
H14   H     H_    0.847867 0.192565 0.198316 0.117378
H15   H     H_    0.845232 0.807282 0.184164 0.122095
H16   H     H_    0.152144 0.192563 0.801683 0.117382
H17   H     H_    0.583506 0.400108 0.928699 0.116033
H18   H     H_    0.420849 0.616020 0.076961 0.116071
H19   H     H_    0.416479 0.400140 0.071285 0.116031
H20   H     H_    0.579137 0.616049 0.923018 0.116072
H21   H     H_    0.083522 0.900134 0.928713 0.116034
H22   H     H_    0.920852 0.116025 0.076962 0.116072
H23   H     H_    0.916483 0.900132 0.071289 0.116032
H24   H     H_    0.079137 0.116049 0.923018 0.116071
H25   H     H_    0.370265 0.678239 0.945537 0.124180
H26   H     H_    0.643793 0.355631 0.074084 0.123314
H27   H     H_    0.629711 0.678283 0.054427 0.124182
H28   H     H_    0.356177 0.355692 0.925883 0.123312
H29   H     H_    0.870270 0.178249 0.945544 0.124180
H30   H     H_    0.143822 0.855679 0.074109 0.123313
H31   H     H_    0.129711 0.178283 0.054427 0.124181
H32   H     H_    0.856185 0.855678 0.925890 0.123313
H33   H     H_    0.728098 0.299532 0.841336 0.135839
H34   H     H_    0.295600 0.749479 0.193000 0.132051
H35   H     H_    0.271888 0.299561 0.158642 0.135845
H36   H     H_    0.704399 0.749486 0.806984 0.132049
H37   H     H_    0.228091 0.799520 0.841322 0.135836
H38   H     H_    0.795562 0.249416 0.192976 0.132042
H39   H     H_    0.771887 0.799562 0.158641 0.135845
H40   H     H_    0.204387 0.249505 0.806976 0.132051
H41   H     H_    0.657806 0.619108 0.635451 0.113666
H42   H     H_    0.336329 0.388757 0.364095 0.115494
H43   H     H_    0.342185 0.619098 0.364549 0.113672
H44   H     H_    0.663658 0.388738 0.635904 0.115487
H45   H     H_    0.157805 0.119110 0.635451 0.113666
H46   H     H_    0.836332 0.888753 0.364095 0.115492
H47   H     H_    0.842186 0.119098 0.364549 0.113668
H48   H     H_    0.163658 0.888738 0.635904 0.115489
H49   H     H_    0.559192 0.617166 0.353048 0.097739
H50   H     H_    0.433503 0.389817 0.647427 0.096312
H51   H     H_    0.440794 0.617155 0.646953 0.097734
H52   H     H_    0.566479 0.389797 0.352573 0.096318
H53   H     H_    0.059191 0.117167 0.353049 0.097741
H54   H     H_    0.933507 0.889812 0.647427 0.096314
H55   H     H_    0.940796 0.117156 0.646953 0.097731
H56   H     H_    0.066481 0.889798 0.352573 0.096320
H57   H     H_    0.664033 0.275392 0.591287 0.135354
H58   H     H_    0.349042 0.737422 0.414122 0.132729
H59   H     H_    0.335946 0.275415 0.408714 0.135358
H60   H     H_    0.650948 0.737432 0.585891 0.132724
H61   H     H_    0.164026 0.775385 0.591274 0.135356
H62   H     H_    0.849031 0.237412 0.414100 0.132726
H63   H     H_    0.835948 0.775411 0.408711 0.135358
H64   H     H_    0.150943 0.237436 0.585886 0.132724
H65   H     H_    0.655467 0.384256 0.387896 0.120497
H66   H     H_    0.357957 0.630903 0.620289 0.119685
H67   H     H_    0.344499 0.384295 0.612080 0.120498
H68   H     H_    0.642014 0.630937 0.379687 0.119682
H69   H     H_    0.155480 0.884269 0.387918 0.120500
H70   H     H_    0.857970 0.130919 0.620308 0.119681
H71   H     H_    0.844507 0.884285 0.612087 0.120498
H72   H     H_    0.142014 0.130937 0.379691 0.119683
H73   H     H_    0.716199 0.375020 0.344807 0.137408
H74   H     H_    0.304601 0.647501 0.675343 0.136867
H75   H     H_    0.283755 0.375067 0.655149 0.137408
H76   H     H_    0.695361 0.647544 0.324619 0.136867
H77   H     H_    0.216220 0.875040 0.344846 0.137408
H78   H     H_    0.804616 0.147519 0.675366 0.136867
H79   H     H_    0.783766 0.875057 0.655161 0.137408
H80   H     H_    0.195361 0.147545 0.324623 0.136867
H81   H     H_    0.799581 0.246448 0.860807 0.138300
H82   H     H_    0.222456 0.800099 0.169694 0.139075
H83   H     H_    0.200400 0.246482 0.139166 0.138302
H84   H     H_    0.777549 0.800099 0.830297 0.139071
H85   H     H_    0.299573 0.746433 0.860792 0.138301
H86   H     H_    0.722418 0.300034 0.169665 0.139070
H87   H     H_    0.700400 0.746483 0.139165 0.138301
H88   H     H_    0.277537 0.300119 0.830288 0.139072
N1    N     N_R   0.532970 0.559900 0.665210 -0.045878
N2    N     N_R   0.467030 0.440100 0.334790 -0.046574
N3    N     N_R   0.467030 0.559900 0.334790 -0.045877
N4    N     N_R   0.532970 0.440100 0.665210 -0.046575
N5    N     N_R   0.032970 0.059900 0.665210 -0.045878
N6    N     N_R   0.967030 0.940100 0.334790 -0.046574
N7    N     N_R   0.967030 0.059900 0.334790 -0.045877
N8    N     N_R   0.032970 0.940100 0.665210 -0.046575
N9    N     N_R   0.597900 0.559930 0.545530 -0.041314
N10   N     N_R   0.402100 0.440070 0.454470 -0.041533
N11   N     N_R   0.402100 0.559930 0.454470 -0.041313
N12   N     N_R   0.597900 0.440070 0.545530 -0.041533
N13   N     N_R   0.097900 0.059930 0.545530 -0.041314
N14   N     N_R   0.902100 0.940070 0.454470 -0.041533
N15   N     N_R   0.902100 0.059930 0.454470 -0.041313
N16   N     N_R   0.097900 0.940070 0.545530 -0.041534
N17   N     N_R   0.567170 0.559950 0.454460 -0.043660
N18   N     N_R   0.432830 0.440050 0.545540 -0.042670
N19   N     N_R   0.432830 0.559950 0.545540 -0.043658
N20   N     N_R   0.567170 0.440050 0.454460 -0.042673
N21   N     N_R   0.067170 0.059950 0.454460 -0.043660
N22   N     N_R   0.932830 0.940050 0.545540 -0.042671
N23   N     N_R   0.932830 0.059950 0.545540 -0.043658
N24   N     N_R   0.067170 0.940050 0.454460 -0.042673
N25   N     N_R   0.421470 0.559970 0.334770 -0.057649
N26   N     N_R   0.578530 0.440030 0.665230 -0.058538
N27   N     N_R   0.578530 0.559970 0.665230 -0.057648
N28   N     N_R   0.421470 0.440030 0.334770 -0.058538
N29   N     N_R   0.921470 0.059970 0.334770 -0.057649
N30   N     N_R   0.078530 0.940030 0.665230 -0.058538
N31   N     N_R   0.078530 0.059970 0.665230 -0.057648
N32   N     N_R   0.921470 0.940030 0.334770 -0.058538
Ni1   Ni    Ni4+2 0.483030 0.500000 0.604430 0.203567
Ni2   Ni    Ni4+2 0.516970 0.500000 0.395570 0.203566
Ni3   Ni    Ni4+2 0.983030 0.000000 0.604430 0.203567
Ni4   Ni    Ni4+2 0.016970 0.000000 0.395570 0.203566
Ni5   Ni    Ni4+2 0.587400 0.500000 0.604430 0.233264
Ni6   Ni    Ni4+2 0.412600 0.500000 0.395570 0.233261
Ni7   Ni    Ni4+2 0.087400 0.000000 0.604430 0.233263
Ni8   Ni    Ni4+2 0.912600 0.000000 0.395570 0.233262
C185  C     C_1   0.332130 0.578924 0.222104 0.015852
N33   N     N_1   0.288797 0.572120 0.189905 -0.072875
C186  C     C_1   0.667771 0.422331 0.777636 0.007751
N34   N     N_1   0.710993 0.430028 0.809709 -0.077938
C187  C     C_1   0.667869 0.578925 0.777898 0.015852
N35   N     N_1   0.711203 0.572120 0.810099 -0.072874
C188  C     C_1   0.332228 0.422335 0.222366 0.007744
N36   N     N_1   0.289006 0.430035 0.190296 -0.077943
C189  C     C_1   0.832130 0.078923 0.222103 0.015849
N37   N     N_1   0.788797 0.072120 0.189905 -0.072878
C190  C     C_1   0.167771 0.922330 0.777635 0.007758
N38   N     N_1   0.210994 0.930027 0.809707 -0.077935
C191  C     C_1   0.167869 0.078924 0.777899 0.015852
N39   N     N_1   0.211203 0.072119 0.810099 -0.072873
C192  C     C_1   0.832228 0.922335 0.222365 0.007744
N40   N     N_1   0.789007 0.930035 0.190295 -0.077942
C193  C     C_1   0.296835 0.833814 0.348928 0.024834
N41   N     N_1   0.313644 0.852490 0.309631 -0.082051
C194  C     C_1   0.726734 0.191159 0.676851 0.027060
N42   N     N_1   0.712613 0.175204 0.721580 -0.081644
C195  C     C_1   0.703152 0.833830 0.651082 0.024844
N43   N     N_1   0.686346 0.852503 0.690385 -0.082043
C196  C     C_1   0.273241 0.191191 0.323136 0.027056
N44   N     N_1   0.287362 0.175236 0.278408 -0.081649
C197  C     C_1   0.796811 0.333794 0.348880 0.024847
N45   N     N_1   0.813614 0.352465 0.309570 -0.082039
C198  C     C_1   0.226721 0.691147 0.676832 0.027059
N46   N     N_1   0.212598 0.675190 0.721557 -0.081646
C199  C     C_1   0.203141 0.333838 0.651070 0.024842
N47   N     N_1   0.186333 0.352513 0.690369 -0.082045
C200  C     C_1   0.773241 0.691188 0.323132 0.027058
N48   N     N_1   0.787362 0.675233 0.278402 -0.081648

loop_
_geom_bond_atom_site_label_1
_geom_bond_atom_site_label_2
_ccdc_geom_bond_type
C105  C110  A    
C90   N10   A    
C18   C21   A    
C33   C45   A    
C107  C112  A    
C30   C45   A    
C103  C123  A    
C79   C87   A    
C197  N45   T    
C140  N28   A    
C195  N43   T    
C141  N29   A    
C69   H22   S    
C133  H53   S    
C170  C178  A    
C175  C183  A    
C86   C110  A    
C183  H71   S    
C137  C185  S    
C38   H78   S    
C51   C145  S    
C4    C148  A    
C5    C149  A    
C62   C70   A    
C176  C184  A    
C66   H17   S    
N27   Ni5   S    
C56   C72   A    
C161  H57   S    
C53   C69   A    
C141  C151  A    
C73   H10   S    
C62   H30   S    
C10   C178  A    
C7    N7    A    
C73   C81   A    
C14   C182  A    
C126  H86   S    
C109  C118  A    
C57   H25   S    
C129  C153  A    
C166  C174  A    
C115  C123  A    
C41   C193  S    
C190  N38   T    
C84   C100  A    
C121  H81   S    
C54   C152  S    
C20   C28   A    
C131  H51   S    
N24   Ni4   S    
C21   C29   A    
C124  H84   S    
C23   C31   A    
C24   C32   A    
C76   H11   S    
C2    N2    A    
C54   C70   A    
C57   C97   A    
C12   C20   A    
C119  H39   S    
C13   C21   A    
C96   C160  A    
C182  H70   S    
C15   C39   A    
C144  C192  S    
C16   C40   A    
C87   C103  A    
C47   C199  S    
C31   C167  A    
C31   C48   A    
C32   C168  A    
C32   C47   A    
C49   C73   A    
C11   C179  A    
N1    Ni1   S    
C6    N6    A    
C9    C177  A    
N2    Ni2   S    
N31   Ni7   S    
C43   C195  S    
N32   Ni8   S    
C52   C146  S    
C79   H16   S    
C90   H42   S    
N9    Ni5   S    
C60   C100  A    
C3    H3    S    
N12   Ni5   S    
C16   C184  A    
C1    H1    S    
C108  C111  A    
C131  N19   A    
C17   C25   A    
C4    H4    S    
C11   C35   A    
C5    H5    S    
C80   C88   A    
N3    Ni2   S    
C10   C18   A    
N15   N23   A    
N16   N24   A    
N25   Ni6   S    
C196  N44   T    
C143  C149  A    
C89   H41   S    
N12   N20   A    
C189  N37   T    
C33   H73   S    
C55   C71   A    
N3    N25   A    
C139  C187  S    
C3    C147  A    
C118  H38   S    
C160  C173  S    
C1    C145  A    
C58   C98   A    
C174  C182  A    
C185  N33   T    
N11   Ni6   S    
C95   C159  A    
C108  C115  A    
C8    C152  A    
C8    H8    S    
C50   C74   A    
C142  C152  A    
N14   N22   A    
C135  N23   A    
C144  C150  A    
C136  N24   A    
C27   C163  A    
C27   C44   A    
N10   N18   A    
C25   C161  A    
N30   Ni7   S    
C94   H46   S    
C163  H59   S    
C34   C46   A    
C138  N26   A    
C77   H14   S    
C161  C169  A    
C75   H12   S    
C77   C85   A    
C120  H40   S    
C127  H87   S    
C128  H88   S    
C171  C179  A    
C61   H29   S    
C114  H34   S    
C169  C177  A    
C88   C104  A    
C59   H27   S    
C55   C149  S    
C81   C105  A    
C106  C113  A    
C46   C198  S    
C166  H62   S    
C92   C156  A    
N13   Ni7   S    
C80   H15   S    
N14   Ni8   S    
C6    C150  A    
C61   C101  A    
C142  C190  S    
C134  N22   A    
C20   C23   A    
C130  C154  A    
C51   C67   A    
C60   C68   A    
C42   C194  S    
C134  C158  A    
C13   C181  A    
C164  C172  A    
C90   C154  A    
C56   C150  S    
C86   C102  A    
C122  H82   S    
C167  C175  A    
C50   C148  S    
C64   C104  A    
C22   C30   A    
C12   C180  A    
C100  C128  A    
C52   C76   A    
N4    N26   A    
C3    N3    A    
C104  C124  A    
C56   C80   A    
C14   C22   A    
C92   N12   A    
C93   N13   A    
C180  H68   S    
C95   N15   A    
C153  C172  S    
C132  C156  A    
C154  C171  S    
C36   C48   A    
C133  C157  A    
C82   C106  A    
C37   C41   A    
C107  C116  A    
C157  C176  S    
C136  C160  A    
C158  C175  S    
C40   C44   A    
C113  C121  A    
C94   C158  A    
C53   C151  S    
C141  C189  S    
C54   C78   A    
C35   C47   A    
C117  C125  A    
C62   C102  A    
C106  C109  A    
C119  C127  A    
N23   Ni3   S    
C82   C98   A    
C18   C26   A    
C76   C84   A    
C138  C186  S    
C70   H21   S    
C11   C19   A    
C95   H47   S    
C85   C109  A    
C87   C111  A    
C61   C69   A    
C34   H74   S    
C168  C176  A    
C29   C165  A    
C137  N25   A    
C44   C196  S    
C45   C197  S    
C65   H18   S    
N29   Ni8   S    
C159  C174  S    
C15   C183  A    
N15   Ni8   S    
C162  H58   S    
C163  C171  A    
N16   Ni7   S    
C172  C180  A    
N8    Ni3   S    
C74   H9    S    
C173  C181  A    
C186  N34   T    
C142  N30   A    
C83   C99   A    
C9    C33   A    
C7    H7    S    
C74   C82   A    
C110  C117  A    
C135  C159  A    
C97   C125  A    
C140  C146  A    
N21   Ni4   S    
C99   C127  A    
N22   Ni3   S    
N11   N19   A    
N17   Ni2   S    
C130  H50   S    
C101  C121  A    
C53   C77   A    
C194  N42   T    
N1    N27   A    
C139  N27   A    
N4    Ni1   S    
N2    N28   A    
C55   C79   A    
C198  N46   T    
C162  C170  A    
C177  H65   S    
C181  H69   S    
C7    C151  A    
C63   C103  A    
C71   H24   S    
C164  H60   S    
N5    Ni3   S    
N20   Ni2   S    
N6    Ni4   S    
C140  C188  S    
C116  C124  A    
C91   H43   S    
C137  C147  A    
C57   C65   A    
C25   C42   A    
C112  C119  A    
C120  C128  A    
C28   C43   A    
C89   N9    A    
C17   C22   A    
C29   C46   A    
N8    N30   A    
C131  C155  A    
C19   C24   A    
C192  N40   T    
C155  C170  S    
C75   C83   A    
N7    Ni4   S    
C167  H63   S    
C84   C108  A    
C132  H52   S    
C26   C162  A    
C191  N39   T    
C37   H77   S    
C134  H54   S    
C188  N36   T    
C88   C112  A    
C123  H83   S    
C98   C126  A    
C92   H44   S    
C63   H31   S    
C102  C122  A    
N5    N31   A    
N6    N32   A    
C200  N48   T    
N7    N29   A    
C59   C99   A    
C193  N41   T    
C117  H37   S    
C48   C200  S    
C94   N14   A    
C199  N47   T    
C49   C65   A    
C51   C75   A    
C38   C42   A    
N26   Ni5   S    
C14   C38   A    
C165  C173  A    
C156  C169  S    
C179  H67   S    
C49   C147  S    
C67   H20   S    
C58   C66   A    
C83   C107  A    
C178  H66   S    
N19   Ni1   S    
C132  N20   A    
C78   H13   S    
C133  N21   A    
C12   C36   A    
C19   C27   A    
C1    N1    A    
C52   C68   A    
C143  N31   A    
C96   N16   A    
C59   C67   A    
C144  N32   A    
C184  H72   S    
C129  N17   A    
C16   C24   A    
C129  H49   S    
C68   H19   S    
C115  H35   S    
N10   Ni6   S    
C113  H33   S    
C8    N8    A    
C72   H23   S    
C58   H26   S    
C4    N4    A    
C35   H75   S    
C105  C114  A    
C96   H48   S    
C165  H61   S    
C30   C166  A    
C138  C148  A    
C39   C43   A    
C125  H85   S    
C111  C120  A    
C2    H2    S    
C91   C155  A    
C60   H28   S    
C89   C153  A    
C6    H6    S    
C10   C34   A    
C93   C157  A    
C50   C66   A    
C9    C17   A    
C168  H64   S    
C143  C191  S    
C116  H36   S    
C85   C101  A    
C28   C164  A    
C93   H45   S    
C139  C145  A    
N18   Ni1   S    
C13   C37   A    
C64   H32   S    
C63   C71   A    
C2    C146  A    
C136  H56   S    
C39   H79   S    
C91   N11   A    
C40   H80   S    
C78   C86   A    
C81   C97   A    
C15   C23   A    
C135  H55   S    
C64   C72   A    
C187  N35   T    
C114  C122  A    
N28   Ni6   S    
C26   C41   A    
N13   N21   A    
C130  N18   A    
C5    N5    A    
C118  C126  A    
C36   H76   S    
N9    N17   A    
