data_mof_unit_64320.cif
_audit_creation_date              2013-03-05T16:18:09-0500
_audit_creation_method            fapswitch 2.2
_symmetry_space_group_name_H-M    P1
_symmetry_Int_Tables_number       1
_space_group_crystal_system       triclinic
_cell_length_a                    44.401096
_cell_length_b                    38.893307
_cell_length_c                    21.620566
_cell_angle_alpha                 90.00005
_cell_angle_beta                  119.107705
_cell_angle_gamma                 90.000109
_cell_volume                      32621.3059823

loop_
_atom_site_label
_atom_site_type_symbol
_atom_site_description
_atom_site_fract_x
_atom_site_fract_y
_atom_site_fract_z
_atom_type_partial_charge
O1    O     O_R   0.050910 0.028760 0.550880 -0.619487
O2    O     O_R   0.949090 0.028760 0.449120 -0.619363
O3    O     O_R   0.550910 0.528760 0.550880 -0.619431
O4    O     O_R   0.449090 0.528760 0.449120 -0.619436
O5    O     O_R   0.050940 0.971280 0.550860 -0.601489
O6    O     O_R   0.949060 0.971280 0.449140 -0.601401
O7    O     O_R   0.550940 0.471280 0.550860 -0.601361
O8    O     O_R   0.449060 0.471280 0.449140 -0.601365
C1    C     C_R   0.067237 0.000035 0.567103 0.866502
C2    C     C_R   0.932765 0.000035 0.432898 0.866423
C3    C     C_R   0.567234 0.500035 0.567106 0.866725
C4    C     C_R   0.432765 0.500035 0.432894 0.866729
O9    O     O_R   0.000010 0.028760 0.407400 -0.587644
O10   O     O_R   0.999990 0.028760 0.592600 -0.587664
O11   O     O_R   0.500010 0.528760 0.407400 -0.587671
O12   O     O_R   0.499990 0.528760 0.592600 -0.587671
O13   O     O_R   0.000040 0.971280 0.407380 -0.604776
O14   O     O_R   0.999960 0.971280 0.592620 -0.604763
O15   O     O_R   0.500040 0.471280 0.407380 -0.604919
O16   O     O_R   0.499960 0.471280 0.592620 -0.604919
C5    C     C_R   0.002955 0.000081 0.382025 0.943302
C6    C     C_R   0.997045 0.000081 0.617975 0.943281
C7    C     C_R   0.502960 0.500082 0.382030 0.943153
C8    C     C_R   0.497040 0.500082 0.617970 0.943155
Zn1   Zn    Zn3+2 0.000000 0.038400 0.500000 1.109462
Zn2   Zn    Zn3+2 0.500000 0.538400 0.500000 1.109517
Zn3   Zn    Zn3+2 0.000000 0.961640 0.500000 1.043947
Zn4   Zn    Zn3+2 0.500000 0.461640 0.500000 1.043918
C9    C     C_3   0.026926 0.032478 0.313458 0.176197
C10   C     C_3   0.973073 0.032477 0.686542 0.176322
C11   C     C_3   0.526842 0.532542 0.313363 0.176372
C12   C     C_3   0.473158 0.532542 0.686637 0.176369
C13   C     C_3   0.028232 0.030838 0.240145 0.315871
C14   C     C_3   0.971767 0.030838 0.759855 0.315871
C15   C     C_3   0.528161 0.530894 0.240063 0.316741
C16   C     C_3   0.471839 0.530894 0.759937 0.316741
H1    H     H_    0.954443 0.028735 0.266796 0.232010
H2    H     H_    0.045556 0.028736 0.733203 0.231998
H3    H     H_    0.454369 0.528589 0.266711 0.232056
H4    H     H_    0.545631 0.528590 0.733289 0.232056
H5    H     H_    0.961044 0.038918 0.174401 0.191386
H6    H     H_    0.038955 0.038919 0.825598 0.191390
H7    H     H_    0.460940 0.538780 0.174274 0.191537
H8    H     H_    0.539060 0.538780 0.825726 0.191537
C17   C     C_3   0.964932 0.005299 0.255022 -0.197497
C18   C     C_3   0.035068 0.005300 0.744978 -0.197660
C19   C     C_3   0.464927 0.505182 0.255012 -0.197819
C20   C     C_3   0.535073 0.505182 0.744988 -0.197811
C21   C     C_3   0.016494 0.964628 0.300584 0.141219
C22   C     C_3   0.983507 0.964628 0.699416 0.141199
C23   C     C_3   0.516606 0.464662 0.300709 0.143323
C24   C     C_3   0.483394 0.464662 0.699291 0.143325
C25   C     C_3   0.003732 0.000563 0.314813 -0.206071
C26   C     C_3   0.996268 0.000564 0.685187 -0.206052
C27   C     C_3   0.503738 0.500563 0.314820 -0.206010
C28   C     C_3   0.496262 0.500563 0.685180 -0.206011
H9    H     H_    0.999088 0.944504 0.301654 0.156696
H10   H     H_    0.000913 0.944504 0.698347 0.156695
H11   H     H_    0.499250 0.444490 0.301813 0.156529
H12   H     H_    0.500750 0.444490 0.698187 0.156529
C29   C     C_3   0.000681 0.001656 0.190317 -0.282843
C30   C     C_3   0.999319 0.001656 0.809683 -0.282836
C31   C     C_3   0.500691 0.501636 0.190326 -0.281469
C32   C     C_3   0.499309 0.501636 0.809674 -0.281469
C33   C     C_3   0.964157 0.010953 0.183280 0.183457
C34   C     C_3   0.035842 0.010954 0.816720 0.183427
C35   C     C_3   0.464140 0.510825 0.183259 0.182193
C36   C     C_3   0.535860 0.510826 0.816741 0.182192
C37   C     C_3   0.013057 0.965090 0.225437 -0.121125
C38   C     C_3   0.986944 0.965089 0.774564 -0.121134
C39   C     C_3   0.513189 0.465111 0.225577 -0.126231
C40   C     C_3   0.486811 0.465111 0.774423 -0.126231
H13   H     H_    0.038173 0.960531 0.228659 0.268020
H14   H     H_    0.961828 0.960531 0.771342 0.268019
H15   H     H_    0.538326 0.460642 0.228842 0.266334
H16   H     H_    0.461674 0.460642 0.771158 0.266334
C41   C     C_R   0.377277 0.992617 0.931785 -0.170586
C42   C     C_R   0.622732 0.992845 0.068129 -0.170530
C43   C     C_R   0.877273 0.492947 0.931948 -0.172702
C44   C     C_R   0.122727 0.492938 0.068056 -0.172704
H17   H     H_    0.390766 0.984908 0.986876 0.171854
H18   H     H_    0.609248 0.985301 0.012940 0.171985
H19   H     H_    0.890761 0.485500 0.987192 0.171925
H20   H     H_    0.109238 0.485485 0.012815 0.171919
C45   C     C_R   0.341591 0.993904 0.896949 -0.205311
C46   C     C_R   0.658418 0.994140 0.102984 -0.205397
C47   C     C_R   0.841587 0.494235 0.897099 -0.205536
C48   C     C_R   0.158413 0.494226 0.102903 -0.205537
H21   H     H_    0.328093 0.986747 0.925420 0.165120
H22   H     H_    0.671919 0.987155 0.074424 0.165132
H23   H     H_    0.828094 0.487340 0.925723 0.165098
H24   H     H_    0.171906 0.487324 0.074284 0.165097
C49   C     C_R   0.323336 0.003684 0.825667 -0.000809
C50   C     C_R   0.676671 0.003707 0.174391 -0.000810
C51   C     C_R   0.823324 0.503681 0.825624 -0.000765
C52   C     C_R   0.176676 0.503680 0.174374 -0.000763
C53   C     C_R   0.341204 0.012626 0.788775 0.325497
C54   C     C_R   0.658802 0.012427 0.211395 0.325468
C55   C     C_R   0.841184 0.512284 0.788541 0.324658
C56   C     C_R   0.158816 0.512292 0.211452 0.324658
C57   C     C_R   0.377179 0.010412 0.824156 -0.245212
C58   C     C_R   0.622827 0.010216 0.175979 -0.245254
C59   C     C_R   0.877159 0.510080 0.823957 -0.242746
C60   C     C_R   0.122841 0.510088 0.176038 -0.242746
H25   H     H_    0.391125 0.017457 0.796572 0.199050
H26   H     H_    0.608884 0.017092 0.203660 0.199194
H27   H     H_    0.891093 0.516864 0.796207 0.200715
H28   H     H_    0.108907 0.516879 0.203784 0.200710
C61   C     C_R   0.395257 0.000715 0.895569 -0.097222
C62   C     C_R   0.604748 0.000727 0.104442 -0.097388
C63   C     C_R   0.895249 0.500715 0.895564 -0.098300
C64   C     C_R   0.104750 0.500715 0.104435 -0.098293
C65   C     C_R   0.267516 0.982412 0.729972 -0.083933
C66   C     C_R   0.732482 0.982236 0.269763 -0.084029
C67   C     C_R   0.767509 0.482131 0.730403 -0.084046
C68   C     C_R   0.232491 0.482139 0.269608 -0.084044
H29   H     H_    0.280986 0.967629 0.708502 0.157256
H30   H     H_    0.719006 0.967291 0.290994 0.157210
H31   H     H_    0.780980 0.467119 0.709259 0.157155
H32   H     H_    0.219019 0.467132 0.290762 0.157156
C69   C     C_R   0.231824 0.981596 0.696283 -0.212290
C70   C     C_R   0.768174 0.981421 0.303448 -0.212263
C71   C     C_R   0.731817 0.481327 0.696726 -0.212273
C72   C     C_R   0.268183 0.481334 0.303285 -0.212276
H33   H     H_    0.217927 0.966658 0.648212 0.173969
H34   H     H_    0.782066 0.966317 0.351283 0.173930
H35   H     H_    0.717921 0.466162 0.648979 0.173840
H36   H     H_    0.282078 0.466175 0.351041 0.173841
C73   C     C_R   0.214039 0.000528 0.723363 -0.039420
C74   C     C_R   0.785966 0.000565 0.276674 -0.039375
C75   C     C_R   0.714029 0.500559 0.723387 -0.039302
C76   C     C_R   0.285970 0.500557 0.276612 -0.039303
C77   C     C_R   0.232158 0.019815 0.786425 0.308458
C78   C     C_R   0.767853 0.020070 0.213920 0.308562
C79   C     C_R   0.732147 0.520142 0.786030 0.308706
C80   C     C_R   0.267852 0.520131 0.213957 0.308701
C81   C     C_R   0.268138 0.020910 0.818951 -0.215721
C82   C     C_R   0.731874 0.021157 0.181397 -0.215605
C83   C     C_R   0.768126 0.521219 0.818539 -0.215805
C84   C     C_R   0.231874 0.521209 0.181448 -0.215811
H37   H     H_    0.282619 0.035891 0.866737 0.186590
H38   H     H_    0.717402 0.036299 0.133845 0.186513
H39   H     H_    0.782601 0.536423 0.865999 0.186225
H40   H     H_    0.217398 0.536406 0.133978 0.186228
C85   C     C_R   0.285706 0.002604 0.790501 0.084801
C86   C     C_R   0.714299 0.002632 0.209548 0.084835
C87   C     C_R   0.785696 0.502608 0.790492 0.084948
C88   C     C_R   0.214304 0.502607 0.209507 0.084947
C89   C     C_R   0.158457 0.971550 0.682064 -0.152244
C90   C     C_R   0.841548 0.971638 0.317615 -0.152183
C91   C     C_R   0.658441 0.471664 0.682555 -0.152121
C92   C     C_R   0.341559 0.471660 0.317460 -0.152125
H41   H     H_    0.172110 0.949044 0.712221 0.155015
H42   H     H_    0.827894 0.949195 0.287181 0.155014
H43   H     H_    0.672089 0.449242 0.713090 0.155123
H44   H     H_    0.327911 0.449235 0.286936 0.155121
C93   C     C_R   0.122742 0.971050 0.643735 -0.157456
C94   C     C_R   0.877263 0.971127 0.355937 -0.157861
C95   C     C_R   0.622726 0.471152 0.644214 -0.157966
C96   C     C_R   0.377273 0.471148 0.355801 -0.157949
H45   H     H_    0.109172 0.948156 0.645049 0.167779
H46   H     H_    0.890836 0.948291 0.354345 0.167516
H47   H     H_    0.609147 0.448339 0.645894 0.167488
H48   H     H_    0.390852 0.448333 0.354132 0.167499
C97   C     C_R   0.104780 0.000141 0.605416 -0.063305
C98   C     C_R   0.895225 0.000143 0.394598 -0.062876
C99   C     C_R   0.604772 0.500141 0.605423 -0.062622
C100  C     C_R   0.395227 0.500141 0.394577 -0.062640
C101  C     C_R   0.122817 0.029530 0.604438 -0.155730
C102  C     C_R   0.877192 0.029460 0.395936 -0.155484
C103  C     C_R   0.622810 0.529431 0.603972 -0.155325
C104  C     C_R   0.377190 0.529433 0.396013 -0.155335
H49   H     H_    0.108852 0.051796 0.573723 0.167799
H50   H     H_    0.891162 0.051661 0.426921 0.167549
H51   H     H_    0.608844 0.551608 0.572886 0.167327
H52   H     H_    0.391155 0.551614 0.427088 0.167338
C105  C     C_R   0.158793 0.030198 0.642215 0.215029
C106  C     C_R   0.841216 0.030133 0.358190 0.215008
C107  C     C_R   0.658786 0.530102 0.641730 0.215042
C108  C     C_R   0.341214 0.530104 0.358255 0.215044
C109  C     C_R   0.176517 0.001047 0.682248 0.152082
C110  C     C_R   0.823489 0.001068 0.317797 0.151947
C111  C     C_R   0.676507 0.501065 0.682257 0.151856
C112  C     C_R   0.323493 0.501064 0.317742 0.151861
O17   O     O_R   0.028770 0.050900 0.028770 -0.612256
O18   O     O_R   0.971230 0.050900 0.971230 -0.612256
O19   O     O_R   0.528770 0.550900 0.028770 -0.612081
O20   O     O_R   0.471230 0.550900 0.971230 -0.612081
C113  C     C_R   0.000000 0.067519 1.000000 0.971092
C114  C     C_R   0.500000 0.567521 1.000000 0.971540
O21   O     O_R   0.028750 0.000000 0.121310 -0.590948
O22   O     O_R   0.971250 1.000000 0.878690 -0.590948
O23   O     O_R   0.528750 0.500000 0.121310 -0.593624
O24   O     O_R   0.471250 0.500000 0.878690 -0.593624
O25   O     O_R   0.971270 0.000040 0.063860 -0.564665
O26   O     O_R   0.028730 0.000040 0.936140 -0.564670
O27   O     O_R   0.471270 0.500040 0.063860 -0.562326
O28   O     O_R   0.528730 0.500040 0.936140 -0.562326
C115  C     C_R   0.999990 0.000881 0.121357 0.963676
C116  C     C_R   0.000010 0.000882 0.878643 0.963673
C117  C     C_R   0.499992 0.500861 0.121360 0.962676
C118  C     C_R   0.500008 0.500861 0.878640 0.962675
Zn5   Zn    Zn3+2 0.038400 0.999990 0.038350 1.126903
Zn6   Zn    Zn3+2 0.961600 0.999990 0.961650 1.126890
Zn7   Zn    Zn3+2 0.538400 0.499990 0.038350 1.126392
Zn8   Zn    Zn3+2 0.461600 0.499990 0.961650 1.126390
O29   O     O_R   0.028750 0.949090 0.028660 -0.616438
O30   O     O_R   0.971250 0.949090 0.971340 -0.616440
O31   O     O_R   0.528750 0.449090 0.028660 -0.616396
O32   O     O_R   0.471250 0.449090 0.971340 -0.616398
C119  C     C_R   1.000000 0.932784 1.000000 0.806818
C120  C     C_R   0.500000 0.432785 1.000000 0.805449
O33   O     O_R   0.500050 0.949040 0.947810 -0.615978
O34   O     O_R   0.499950 0.949040 0.052190 -0.616004
O35   O     O_R   0.000050 0.449040 0.947810 -0.615973
O36   O     O_R   0.999950 0.449040 0.052190 -0.615971
C121  C     C_R   0.500000 0.933154 0.000000 0.886011
C122  C     C_R   1.000000 0.433154 0.000000 0.886066
O37   O     O_R   0.449110 0.999950 0.896830 -0.619298
O38   O     O_R   0.550890 0.999950 0.103170 -0.619344
O39   O     O_R   0.949110 0.499950 0.896830 -0.616459
O40   O     O_R   0.050890 0.499950 0.103170 -0.616458
O41   O     O_R   0.449110 0.000020 0.001380 -0.619412
O42   O     O_R   0.550890 0.000020 0.998620 -0.619497
O43   O     O_R   0.949110 0.500020 0.001380 -0.622564
O44   O     O_R   0.050890 0.500020 0.998620 -0.622561
C123  C     C_R   0.432875 0.000001 0.932903 0.878604
C124  C     C_R   0.567126 0.000003 0.067099 0.878668
C125  C     C_R   0.932873 0.500001 0.932901 0.878790
C126  C     C_R   0.067127 0.500001 0.067099 0.878788
Zn9   Zn    Zn3+2 0.500020 0.999940 0.930180 0.987611
Zn10  Zn    Zn3+2 0.499980 0.999940 0.069820 0.987667
Zn11  Zn    Zn3+2 0.000020 0.499940 0.930180 0.987593
Zn12  Zn    Zn3+2 0.999980 0.499940 0.069820 0.987592
O45   O     O_R   0.500000 0.050860 0.947620 -0.616724
O46   O     O_R   0.500000 0.050860 0.052380 -0.616683
O47   O     O_R   0.000000 0.550860 0.947620 -0.616613
O48   O     O_R   0.000000 0.550860 0.052380 -0.616615
C127  C     C_R   0.500000 0.067048 1.000000 0.886508
C128  C     C_R   0.000000 0.567049 0.000000 0.886649
C129  C     C_R   0.469980 0.878165 0.951993 0.138905
C130  C     C_R   0.530019 0.878165 0.048008 0.138884
C131  C     C_R   0.970001 0.378161 0.951899 0.138836
C132  C     C_R   0.029998 0.378161 0.048100 0.138839
C133  C     C_R   0.470312 0.842356 0.952555 -0.153717
C134  C     C_R   0.529687 0.842356 0.047447 -0.153705
C135  C     C_R   0.970334 0.342352 0.952462 -0.153697
C136  C     C_R   0.029666 0.342352 0.047537 -0.153703
H53   H     H_    0.447308 0.828260 0.916650 0.148876
H54   H     H_    0.552690 0.828260 0.083353 0.148881
H55   H     H_    0.947345 0.328255 0.916485 0.148886
H56   H     H_    0.052654 0.328256 0.083515 0.148883
C137  C     C_R   0.499999 0.824518 0.000001 0.013683
C138  C     C_R   0.000000 0.324513 1.000000 0.013691
C139  C     C_R   0.500000 0.895998 0.000000 -0.039337
C140  C     C_R   0.000000 0.395995 1.000000 -0.039433
C141  C     C_R   0.512910 0.769097 0.064097 -0.167789
C142  C     C_R   0.487088 0.769097 0.935904 -0.167792
C143  C     C_R   0.012851 0.269092 0.064084 -0.167785
C144  C     C_R   0.987150 0.269092 0.935915 -0.167788
H57   H     H_    0.522567 0.782684 0.113907 0.147814
H58   H     H_    0.477431 0.782684 0.886095 0.147809
H59   H     H_    0.022460 0.282678 0.113883 0.147817
H60   H     H_    0.977540 0.282678 0.886116 0.147816
C145  C     C_R   0.012856 0.233431 0.064084 -0.158071
C146  C     C_R   0.987144 0.233431 0.935915 -0.158079
C147  C     C_R   0.512916 0.733437 0.064097 -0.158062
C148  C     C_R   0.487083 0.733437 0.935904 -0.158065
H61   H     H_    0.022482 0.219827 0.113870 0.157887
H62   H     H_    0.977518 0.219826 0.886129 0.157884
H63   H     H_    0.522590 0.719832 0.113893 0.157885
H64   H     H_    0.477409 0.719832 0.886108 0.157883
C149  C     C_R   0.000000 0.215502 0.999999 0.111918
C150  C     C_R   0.499999 0.715508 0.000000 0.111907
C151  C     C_R   0.499999 0.787037 0.000001 0.120283
C152  C     C_R   0.000000 0.287031 1.000000 0.120269
C153  C     C_R   0.970341 0.160260 0.953706 -0.129978
C154  C     C_R   0.029659 0.160261 0.046292 -0.129984
C155  C     C_R   0.470320 0.660268 0.953814 -0.129885
C156  C     C_R   0.529680 0.660269 0.046186 -0.129884
H65   H     H_    0.947377 0.174636 0.918553 0.147102
H66   H     H_    0.052623 0.174637 0.081445 0.147101
H67   H     H_    0.447340 0.674645 0.918742 0.147079
H68   H     H_    0.552659 0.674646 0.081258 0.147081
C157  C     C_R   0.969716 0.124434 0.952764 0.130765
C158  C     C_R   0.030284 0.124435 0.047235 0.130757
C159  C     C_R   0.469694 0.624443 0.952870 0.130876
C160  C     C_R   0.530306 0.624443 0.047129 0.130873
C161  C     C_R   1.000000 0.105730 1.000000 -0.015268
C162  C     C_R   0.500000 0.605736 1.000000 -0.015376
C163  C     C_R   0.000000 0.178020 0.999999 0.023523
C164  C     C_R   0.500000 0.678027 0.000000 0.023519
C165  C     C_R   0.513978 0.122565 0.064094 -0.181441
C166  C     C_R   0.486021 0.122565 0.935904 -0.181443
C167  C     C_R   0.986115 0.622569 0.036343 -0.180968
C168  C     C_R   0.013884 0.622569 0.963657 -0.180967
H69   H     H_    0.525059 0.108512 0.113621 0.169495
H70   H     H_    0.474940 0.108511 0.886378 0.169497
H71   H     H_    0.975108 0.608517 0.063873 0.168237
H72   H     H_    0.024892 0.608517 0.936127 0.168238
C169  C     C_R   0.514448 0.158473 0.064894 0.171212
C170  C     C_R   0.485550 0.158473 0.935103 0.171200
C171  C     C_R   0.985645 0.658476 0.036207 0.173414
C172  C     C_R   0.014355 0.658476 0.963793 0.173411
C173  C     C_R   0.499999 0.176548 0.999998 0.083331
C174  C     C_R   1.000000 0.676551 1.000000 0.083449
C175  C     C_R   0.499999 0.104615 0.999999 -0.125331
C176  C     C_R   1.000000 0.604617 1.000000 -0.124608
C177  C     C_R   0.522526 0.232016 0.983664 -0.177002
C178  C     C_R   0.477471 0.232017 0.016332 -0.176987
C179  C     C_R   0.977420 0.732018 0.938701 -0.176828
C180  C     C_R   0.022579 0.732018 0.061299 -0.176828
H73   H     H_    0.539877 0.217732 0.971253 0.153929
H74   H     H_    0.460120 0.217732 0.028742 0.153935
H75   H     H_    0.960029 0.717734 0.891659 0.154923
H76   H     H_    0.039970 0.717734 0.108340 0.154923
C181  C     C_R   0.977377 0.767913 0.937711 0.155238
C182  C     C_R   0.022623 0.767914 0.062289 0.155244
C183  C     C_R   0.522571 0.267912 0.982767 0.158827
C184  C     C_R   0.477427 0.267912 0.017229 0.158825
C185  C     C_R   1.000000 0.785994 1.000000 0.051488
C186  C     C_R   0.499999 0.285993 0.999998 0.051833
C187  C     C_R   0.499999 0.214227 0.999998 0.034821
C188  C     C_R   1.000000 0.714230 1.000000 0.035298
C189  C     C_R   0.972608 0.841545 0.999777 -0.162287
C190  C     C_R   0.027392 0.841545 0.000223 -0.162281
C191  C     C_R   0.472590 0.341545 0.945534 -0.161946
C192  C     C_R   0.527409 0.341545 0.054464 -0.161948
H77   H     H_    0.951452 0.827783 0.000014 0.147154
H78   H     H_    0.048548 0.827783 0.999986 0.147159
H79   H     H_    0.451419 0.327783 0.903060 0.148875
H80   H     H_    0.548580 0.327783 0.096937 0.148873
C193  C     C_R   0.972427 0.877301 0.999074 -0.171849
C194  C     C_R   0.027572 0.877301 0.000926 -0.171846
C195  C     C_R   0.472412 0.377301 0.945873 -0.169671
C196  C     C_R   0.527587 0.377301 0.054126 -0.169670
H81   H     H_    0.951077 0.890865 0.998901 0.173474
H82   H     H_    0.048923 0.890865 0.001098 0.173480
H83   H     H_    0.451050 0.390866 0.903417 0.171040
H84   H     H_    0.548949 0.390866 0.096581 0.171040
C197  C     C_R   1.000000 0.895314 1.000000 -0.027333
C198  C     C_R   0.500000 0.395314 0.999999 -0.028144
C199  C     C_R   1.000000 0.823650 1.000000 0.129966
C200  C     C_R   0.499999 0.323650 0.999999 0.128880
N1    N     N_R   0.011770 0.066168 0.319600 0.262314
O49   O     O_R   0.028608 0.086259 0.374126 -0.323187
O50   O     O_R   0.982741 0.078020 0.269315 -0.368861
N2    N     N_R   0.988229 0.066168 0.680399 0.262310
O51   O     O_R   0.971390 0.086258 0.625871 -0.323198
O52   O     O_R   0.017257 0.078021 0.730683 -0.368914
N3    N     N_R   0.511584 0.566194 0.319373 0.262241
O53   O     O_R   0.528368 0.586351 0.373807 -0.323044
O54   O     O_R   0.482521 0.577953 0.269041 -0.368880
N4    N     N_R   0.488415 0.566194 0.680627 0.262241
O55   O     O_R   0.471631 0.586351 0.626193 -0.323045
O56   O     O_R   0.517479 0.577953 0.730959 -0.368878
C201  C     C_3   0.993375 0.933129 0.181636 -0.799513
H85   H     H_    0.010646 0.910330 0.200662 0.244635
H86   H     H_    0.970958 0.926255 0.188088 0.271551
H87   H     H_    0.985210 0.936106 0.124646 0.250059
C202  C     C_3   0.006626 0.933129 0.818365 -0.799498
H88   H     H_    0.989356 0.910331 0.799340 0.244638
H89   H     H_    0.029044 0.926256 0.811913 0.271556
H90   H     H_    0.014791 0.936107 0.875355 0.250058
C203  C     C_3   0.493640 0.433078 0.181885 -0.796062
H91   H     H_    0.510996 0.410344 0.201033 0.240777
H92   H     H_    0.471231 0.426132 0.188313 0.273485
H93   H     H_    0.485498 0.436019 0.124897 0.254179
C204  C     C_3   0.506360 0.433078 0.818115 -0.796059
H94   H     H_    0.489004 0.410344 0.798967 0.240776
H95   H     H_    0.528769 0.426132 0.811687 0.273485
H96   H     H_    0.514501 0.436020 0.875103 0.254179
C205  C     C_3   0.938991 0.977909 0.253097 -0.755598
H97   H     H_    0.943613 0.951936 0.239056 0.254438
H98   H     H_    0.939268 0.976414 0.304549 0.217471
H99   H     H_    0.912300 0.985504 0.213773 0.282590
C206  C     C_3   0.061009 0.977911 0.746904 -0.755268
H100  H     H_    0.056388 0.951938 0.760945 0.254409
H101  H     H_    0.060733 0.976416 0.695452 0.217517
H102  H     H_    0.087700 0.985506 0.786228 0.282689
C207  C     C_3   0.439062 0.477717 0.253153 -0.755526
H103  H     H_    0.443764 0.451757 0.239191 0.254641
H104  H     H_    0.439328 0.476226 0.304594 0.217646
H105  H     H_    0.412352 0.485233 0.213793 0.282476
C208  C     C_3   0.560938 0.477717 0.746846 -0.755538
H106  H     H_    0.556236 0.451758 0.760809 0.254642
H107  H     H_    0.560671 0.476226 0.695405 0.217644
H108  H     H_    0.587648 0.485233 0.786207 0.282471
N5    N     N_R   0.933073 0.996757 0.121971 0.255233
O57   O     O_R   0.909646 0.017789 0.077869 -0.332999
O58   O     O_R   0.927768 0.963975 0.110641 -0.391114
N6    N     N_R   0.066927 0.996759 0.878029 0.255247
O59   O     O_R   0.090354 0.017792 0.922130 -0.332901
O60   O     O_R   0.072233 0.963978 0.889359 -0.391049
N7    N     N_R   0.433103 0.496524 0.122005 0.255116
O61   O     O_R   0.409590 0.517475 0.077862 -0.332722
O62   O     O_R   0.427923 0.463725 0.110764 -0.385016
N8    N     N_R   0.566897 0.496525 0.877995 0.255116
O63   O     O_R   0.590410 0.517476 0.922138 -0.332724
O64   O     O_R   0.572076 0.463725 0.889236 -0.385016
N9    N     N_R   0.323521 0.024983 0.716939 0.199786
O65   O     O_R   0.296672 0.044830 0.695411 -0.361575
O66   O     O_R   0.336671 0.020014 0.675425 -0.369680
N10   N     N_R   0.676485 0.024555 0.283400 0.199834
O67   O     O_R   0.703346 0.044407 0.305213 -0.361516
O68   O     O_R   0.663330 0.019366 0.324838 -0.369664
N11   N     N_R   0.823490 0.524288 0.716449 0.200147
O69   O     O_R   0.796635 0.544158 0.694512 -0.361157
O70   O     O_R   0.836631 0.518967 0.675026 -0.368470
N12   N     N_R   0.176509 0.524305 0.283538 0.200144
O71   O     O_R   0.203364 0.544175 0.305463 -0.361162
O72   O     O_R   0.163368 0.518993 0.324964 -0.368472
N13   N     N_R   0.214714 0.038227 0.817714 0.204676
O73   O     O_R   0.185215 0.027599 0.809577 -0.358702
O74   O     O_R   0.229728 0.064067 0.859872 -0.357536
N14   N     N_R   0.785307 0.038712 0.182944 0.204568
O75   O     O_R   0.814741 0.028101 0.190697 -0.358540
O76   O     O_R   0.770362 0.064776 0.141436 -0.357635
N15   N     N_R   0.714697 0.538870 0.816908 0.204547
O77   O     O_R   0.685264 0.528299 0.809220 -0.358308
O78   O     O_R   0.729647 0.564979 0.858270 -0.357947
N16   N     N_R   0.285302 0.538850 0.183067 0.204551
O79   O     O_R   0.314738 0.528278 0.190770 -0.358316
O80   O     O_R   0.270351 0.564950 0.141679 -0.357944
C209  C     C_3   0.064068 0.031412 0.379589 -0.660317
H109  H     H_    0.078925 0.007895 0.387021 0.279092
H110  H     H_    0.079784 0.052962 0.376721 0.266532
H111  H     H_    0.063132 0.034507 0.429647 0.218719
C210  C     C_3   0.935931 0.031410 0.620411 -0.660516
H112  H     H_    0.921074 0.007894 0.612980 0.279118
H113  H     H_    0.920215 0.052961 0.623276 0.266518
H114  H     H_    0.936868 0.034504 0.570354 0.218623
C211  C     C_3   0.563983 0.531589 0.379512 -0.660583
H115  H     H_    0.578894 0.508098 0.387082 0.279093
H116  H     H_    0.579650 0.553161 0.376551 0.266545
H117  H     H_    0.563034 0.534722 0.429549 0.218715
C212  C     C_3   0.436017 0.531589 0.620487 -0.660575
H118  H     H_    0.421106 0.508098 0.612917 0.279091
H119  H     H_    0.420349 0.553161 0.623449 0.266545
H120  H     H_    0.436966 0.534722 0.570451 0.218719
C213  C     C_3   0.177766 0.061539 0.638270 -0.805593
H121  H     H_    0.192414 0.073513 0.691321 0.266454
H122  H     H_    0.195912 0.054096 0.619002 0.256431
H123  H     H_    0.159813 0.081165 0.601484 0.242919
C214  C     C_3   0.822248 0.061381 0.362566 -0.805455
H124  H     H_    0.807605 0.073523 0.309686 0.266549
H125  H     H_    0.804098 0.053783 0.381724 0.256439
H126  H     H_    0.840204 0.080922 0.399629 0.242924
C215  C     C_3   0.677761 0.561312 0.637216 -0.805466
H127  H     H_    0.692398 0.573513 0.690037 0.266558
H128  H     H_    0.695917 0.553656 0.618112 0.256450
H129  H     H_    0.659810 0.580824 0.600051 0.242899
C216  C     C_3   0.322238 0.561318 0.362751 -0.805477
H130  H     H_    0.307602 0.573512 0.309923 0.266555
H131  H     H_    0.304083 0.553669 0.381860 0.256449
H132  H     H_    0.340190 0.580834 0.399905 0.242899
C217  C     C_3   0.437470 0.896925 0.901294 -0.873795
H133  H     H_    0.416143 0.878850 0.869127 0.243982
H134  H     H_    0.428924 0.913786 0.931279 0.231304
H135  H     H_    0.442322 0.912879 0.864476 0.257914
C218  C     C_3   0.562529 0.896925 0.098709 -0.873711
H136  H     H_    0.583855 0.878850 0.130877 0.243988
H137  H     H_    0.571075 0.913785 0.068725 0.231339
H138  H     H_    0.557676 0.912879 0.135527 0.257913
C219  C     C_3   0.937512 0.396919 0.901101 -0.873494
H139  H     H_    0.916195 0.378843 0.868881 0.243972
H140  H     H_    0.928925 0.413785 0.931009 0.231363
H141  H     H_    0.942407 0.412867 0.864334 0.257967
C220  C     C_3   0.062489 0.396919 0.098899 -0.873503
H142  H     H_    0.083805 0.378843 0.131118 0.243971
H143  H     H_    0.071075 0.413786 0.068991 0.231362
H144  H     H_    0.057593 0.412867 0.135666 0.257968
N17   N     N_R   0.063892 0.023230 0.252343 0.209661
O81   O     O_R   0.078661 0.043955 0.227920 -0.333559
O82   O     O_R   0.081587 0.996406 0.286629 -0.385322
N18   N     N_R   0.936107 0.023229 0.747657 0.209665
O83   O     O_R   0.921338 0.043954 0.772078 -0.333561
O84   O     O_R   0.918414 0.996404 0.713372 -0.385304
N19   N     N_R   0.563843 0.523373 0.252295 0.209572
O85   O     O_R   0.578541 0.544105 0.227733 -0.334031
O86   O     O_R   0.581631 0.496629 0.286771 -0.386876
N20   N     N_R   0.436157 0.523373 0.747705 0.209570
O87   O     O_R   0.421458 0.544105 0.772267 -0.334032
O88   O     O_R   0.418369 0.496629 0.713229 -0.386878
C221  C     C_3   0.936414 0.107595 0.899828 -0.690168
H145  H     H_    0.916995 0.126584 0.864310 0.223263
H146  H     H_    0.941389 0.089959 0.865695 0.301971
H147  H     H_    0.924770 0.093554 0.927701 0.254350
C222  C     C_3   0.063586 0.107595 0.100171 -0.690162
H148  H     H_    0.083005 0.126584 0.135689 0.223264
H149  H     H_    0.058611 0.089960 0.134305 0.301970
H150  H     H_    0.075230 0.093554 0.072299 0.254352
C223  C     C_3   0.436368 0.607608 0.900037 -0.690679
H151  H     H_    0.416922 0.626600 0.864611 0.223212
H152  H     H_    0.441298 0.590000 0.865802 0.301925
H153  H     H_    0.424781 0.593544 0.927993 0.254495
C224  C     C_3   0.563632 0.607609 0.099962 -0.690679
H154  H     H_    0.583078 0.626601 0.135388 0.223213
H155  H     H_    0.558702 0.590001 0.134197 0.301925
H156  H     H_    0.575218 0.593544 0.072006 0.254495
C225  C     C_3   0.530956 0.177035 0.135023 -0.865209
H157  H     H_    0.542576 0.158848 0.180314 0.244959
H158  H     H_    0.551710 0.194219 0.138571 0.251628
H159  H     H_    0.511376 0.192552 0.140347 0.243521
C226  C     C_3   0.469042 0.177033 0.864974 -0.865149
H160  H     H_    0.457421 0.158847 0.819683 0.244976
H161  H     H_    0.448287 0.194217 0.861426 0.251638
H162  H     H_    0.488621 0.192552 0.859649 0.243506
C227  C     C_3   0.969235 0.677036 0.073548 -0.869898
H163  H     H_    0.957670 0.658849 0.095739 0.243035
H164  H     H_    0.988860 0.692548 0.117933 0.244655
H165  H     H_    0.948453 0.694226 0.035723 0.251013
C228  C     C_3   0.030765 0.677036 0.926451 -0.869891
H166  H     H_    0.042329 0.658850 0.904260 0.243035
H167  H     H_    0.011139 0.692548 0.882066 0.244655
H168  H     H_    0.051547 0.694226 0.964276 0.251014
C229  C     C_3   0.953640 0.786438 0.869931 -0.858666
H169  H     H_    0.934606 0.801925 0.877187 0.247549
H170  H     H_    0.968874 0.803643 0.854609 0.251168
H171  H     H_    0.939152 0.768216 0.825632 0.243491
C230  C     C_3   0.046360 0.786438 0.130069 -0.858681
H172  H     H_    0.065393 0.801925 0.122813 0.247550
H173  H     H_    0.031126 0.803643 0.145391 0.251166
H174  H     H_    0.060848 0.768217 0.174367 0.243489
C231  C     C_3   0.546256 0.286438 0.962273 -0.865241
H175  H     H_    0.530984 0.303639 0.916528 0.250947
H176  H     H_    0.565315 0.301930 0.007514 0.247769
H177  H     H_    0.560714 0.268218 0.946843 0.242355
C232  C     C_3   0.453742 0.286439 0.037723 -0.865241
H178  H     H_    0.469014 0.303639 0.083468 0.250946
H179  H     H_    0.434683 0.301931 0.992482 0.247768
H180  H     H_    0.439284 0.268219 0.053152 0.242355
N21   N     N_R   0.019254 0.065393 0.205654 0.221945
O89   O     O_R   0.995982 0.069705 0.139738 -0.444709
O90   O     O_R   0.038236 0.091833 0.239218 -0.294508
N22   N     N_R   0.980745 0.065393 0.794345 0.221942
O91   O     O_R   0.004017 0.069706 0.860261 -0.444718
O92   O     O_R   0.961762 0.091833 0.760781 -0.294516
N23   N     N_R   0.519096 0.565422 0.205466 0.221974
O93   O     O_R   0.495802 0.569673 0.139547 -0.444374
O94   O     O_R   0.538018 0.591910 0.238941 -0.294461
N24   N     N_R   0.480904 0.565422 0.794534 0.221973
O95   O     O_R   0.504198 0.569673 0.860453 -0.444375
O96   O     O_R   0.461982 0.591910 0.761059 -0.294462
N25   N     N_R   0.051186 0.953293 0.355119 0.211186
O97   O     O_R   0.060225 0.955623 0.421935 -0.396506
O98   O     O_R   0.068274 0.931562 0.338136 -0.340809
N26   N     N_R   0.948814 0.953292 0.644883 0.211196
O99   O     O_R   0.939776 0.955623 0.578066 -0.396435
O100  O     O_R   0.931727 0.931561 0.661866 -0.340773
N27   N     N_R   0.551321 0.453423 0.355308 0.211342
O101  O     O_R   0.560316 0.455751 0.422103 -0.396589
O102  O     O_R   0.568502 0.431769 0.338409 -0.343949
N28   N     N_R   0.448679 0.453423 0.644691 0.211343
O103  O     O_R   0.439684 0.455750 0.577897 -0.396592
O104  O     O_R   0.431498 0.431769 0.661590 -0.343951

loop_
_geom_bond_atom_site_label_1
_geom_bond_atom_site_label_2
_geom_bond_distance
_ccdc_geom_bond_type
C55   C59   1.398294 A    
C77   C81   1.398380 A    
C201  H85   1.112008 S    
C47   H23   1.083769 S    
C160  C224  1.509507 S    
C217  H133  1.110793 S    
O35   Zn11  2.015905 S    
C192  H80   1.083311 S    
C43   C47   1.385402 A    
C61   C123  1.459610 S    
C212  H118  1.092890 S    
C79   C83   1.398325 A    
C154  C163  1.389506 A    
O44   Zn11  2.009870 S    
C80   N16   1.442153 S    
C102  C106  1.396440 A    
C141  H57   1.083318 S    
C171  C227  1.508674 S    
C143  H59   1.083317 S    
C102  H50   1.083882 S    
N24   O95   1.301596 A    
C165  C175  1.398632 A    
C51   C55   1.414980 A    
C212  H120  1.109653 S    
C22   N26   1.479968 S    
C9    C13   1.615345 S    
C56   C60   1.398290 A    
C219  H141  1.109931 S    
O23   C117  1.277858 A    
C30   C38   1.579628 S    
C209  H109  1.092885 S    
C19   C35   1.550279 S    
C215  H127  1.108907 S    
C89   H41   1.083652 S    
C206  H102  1.110980 S    
C16   N20   1.502620 S    
C158  C161  1.429769 A    
C92   H44   1.083661 S    
C215  H128  1.110409 S    
C38   H14   1.097418 S    
C189  H77   1.083312 S    
C14   N18   1.502594 S    
C155  H67   1.084413 S    
O4    C4    1.284227 A    
C154  C158  1.393624 A    
C77   N13   1.442265 S    
C189  C199  1.399260 A    
C144  H60   1.083314 S    
C204  H96   1.108391 S    
C218  H137  1.110680 S    
C167  C176  1.398650 A    
C159  C223  1.509507 S    
N13   O74   1.301567 A    
C21   C37   1.556320 S    
C3    C99   1.456337 S    
O27   Zn8   2.035837 S    
C74   C78   1.414759 A    
C23   C39   1.556353 S    
O42   C124  1.293579 A    
N18   O84   1.299444 A    
C192  C200  1.399258 A    
C120  C198  1.457348 S    
C97   C101  1.401697 A    
C202  H90   1.108353 S    
O48   C128  1.295758 A    
C172  C228  1.508674 S    
C141  C151  1.401071 A    
C67   C71   1.385641 A    
N6    O60   1.298057 A    
C46   H22   1.083770 S    
C205  H99   1.110982 S    
C169  C225  1.508665 S    
C229  H170  1.110424 S    
C30   C34   1.594908 S    
C213  H123  1.110774 S    
C167  H71   1.083907 S    
C178  C187  1.395553 A    
O16   Zn4   2.038144 S    
C220  H142  1.110792 S    
C133  C137  1.398438 A    
O13   C5    1.281060 A    
O7    Zn4   2.011395 S    
C132  C220  1.509354 S    
C216  H132  1.110770 S    
O15   C7    1.281089 A    
C24   C40   1.556350 S    
C227  H165  1.110423 S    
C224  H156  1.109841 S    
C42   H18   1.083171 S    
C169  C173  1.413750 A    
C211  H117  1.109653 S    
C44   C64   1.399297 A    
O22   Zn6   2.036772 S    
O9    C5    1.277514 A    
C143  C152  1.401074 A    
C130  C134  1.392768 A    
C106  C110  1.411168 A    
C73   C77   1.414828 A    
C232  H179  1.109332 S    
C31   C39   1.579665 S    
C201  H87   1.108353 S    
N20   O88   1.299448 A    
N21   O90   1.303616 A    
C137  C151  1.457776 S    
C207  H103  1.102452 S    
O8    Zn4   2.011397 S    
C217  H135  1.109934 S    
C129  C133  1.392772 A    
O42   Zn9   2.009870 S    
H1    C17   1.108093 S    
C71   H35   1.083777 S    
C105  C213  1.507572 S    
O41   Zn10  2.009867 S    
H3    C19   1.108101 S    
C178  H74   1.084094 S    
C220  H144  1.109931 S    
H4    C20   1.108103 S    
O40   Zn12  2.010937 S    
C138  C152  1.457803 S    
C108  C216  1.507591 S    
C173  C187  1.465461 S    
C182  C185  1.414585 A    
C230  H174  1.110831 S    
O3    Zn2   2.010250 S    
C7    C27   1.470351 S    
C134  C137  1.398438 A    
C8    C28   1.470349 S    
C99   C103  1.401614 A    
N14   O75   1.301235 A    
N26   O100  1.302248 A    
C22   C38   1.556318 S    
C44   C48   1.385405 A    
C62   C124  1.459752 S    
C203  H91   1.112057 S    
C191  H79   1.083314 S    
C229  H169  1.109329 S    
Zn5   O29   2.014757 S    
C21   C25   1.593353 S    
N2    O51   1.304532 A    
C95   C99   1.399875 A    
C19   C207  1.554562 S    
C23   C27   1.593361 S    
C96   C100  1.399878 A    
C214  H124  1.108914 S    
O3    C3    1.284227 A    
C157  C221  1.509561 S    
C29   C33   1.594908 S    
C13   C29   1.631896 S    
C132  C140  1.410363 A    
C148  C150  1.400837 A    
C122  C140  1.445201 S    
C59   H27   1.083258 S    
C149  C163  1.457783 S    
C228  H167  1.109351 S    
C16   C32   1.631845 S    
C174  C188  1.465438 S    
C108  C112  1.411192 A    
C184  C186  1.414580 A    
C208  H107  1.108001 S    
C153  H65   1.084413 S    
C15   N19   1.502620 S    
C190  C194  1.390705 A    
N15   O77   1.301243 A    
C141  C147  1.386947 A    
C142  C148  1.386947 A    
C29   C115  1.476570 S    
N9    O65   1.301447 A    
C6    C26   1.470340 S    
C210  H112  1.092887 S    
O5    C1    1.284706 A    
C10   C26   1.622196 S    
O43   Zn12  2.009867 S    
C12   C16   1.615365 S    
N22   O92   1.303619 A    
C32   C36   1.594892 S    
O41   C123  1.293539 A    
C131  C219  1.509351 S    
C146  C149  1.400847 A    
C157  C161  1.429767 A    
Zn10  O46   2.016104 S    
C21   H9    1.108077 S    
C72   C76   1.399425 A    
O20   C114  1.289787 A    
C14   N22   1.493994 S    
Zn11  O47   2.016103 S    
C24   H12   1.108064 S    
O5    Zn3   2.011395 S    
C83   H39   1.083518 S    
C148  H64   1.083374 S    
C47   C51   1.400499 A    
O28   C118  1.276872 A    
C207  H105  1.110977 S    
O33   Zn9   2.015905 S    
C2    C98   1.456398 S    
C128  C176  1.461152 S    
C172  C174  1.413744 A    
C17   C25   1.583100 S    
C231  H175  1.110425 S    
O29   C119  1.283008 A    
C130  C139  1.410344 A    
C103  C107  1.396445 A    
C142  H58   1.083317 S    
C54   N10   1.439901 S    
C11   N3    1.508130 S    
C101  C105  1.396447 A    
C15   N23   1.493992 S    
C185  C199  1.464597 S    
O25   C115  1.276814 A    
C226  H161  1.110423 S    
O23   Zn7   2.036769 S    
C10   C14   1.615345 S    
O13   Zn3   2.038144 S    
Zn6   O30   2.014760 S    
C51   C87   1.461283 S    
N10   O67   1.301445 A    
C203  H93   1.108391 S    
C93   C97   1.399936 A    
C60   C64   1.401737 A    
O22   C116  1.277937 A    
O44   C126  1.293566 A    
C153  C157  1.393620 A    
C68   H32   1.083397 S    
C224  H155  1.105629 S    
C160  C162  1.429807 A    
C214  H126  1.110769 S    
C69   H33   1.083767 S    
C221  H145  1.111028 S    
C222  H149  1.105674 S    
Zn8   O32   2.014760 S    
C21   N25   1.479968 S    
C16   N24   1.493990 S    
C76   C80   1.414762 A    
C74   C110  1.457896 S    
O19   Zn7   2.014993 S    
C232  H178  1.110427 S    
C41   C61   1.399231 A    
O15   Zn4   2.038144 S    
C230  H173  1.110424 S    
N12   O71   1.301443 A    
C11   C211  1.572192 S    
C65   H29   1.083428 S    
C145  C149  1.400847 A    
C98   C102  1.401646 A    
O32   C120  1.283003 A    
C17   C33   1.550347 S    
N16   O79   1.301239 A    
C63   C125  1.459823 S    
C180  C182  1.396230 A    
C165  C169  1.396718 A    
C49   C53   1.415012 A    
C167  C171  1.396703 A    
C218  H138  1.109934 S    
C168  C172  1.396699 A    
C133  H53   1.083995 S    
C31   C117  1.476541 S    
O39   Zn11  2.010933 S    
O14   C6    1.281060 A    
C79   N15   1.442147 S    
C13   N17   1.502594 S    
O37   Zn9   2.010933 S    
C155  C159  1.393616 A    
C15   C31   1.631843 S    
C18   C206  1.554526 S    
O17   C113  1.289746 A    
C153  C163  1.389504 A    
C135  H55   1.083998 S    
N17   O82   1.299443 A    
C10   C210  1.572156 S    
C67   H31   1.083398 S    
C91   H43   1.083664 S    
O46   C127  1.295743 A    
C11   C27   1.622269 S    
O10   C6    1.277513 A    
C225  H158  1.110419 S    
C183  C231  1.508225 S    
C181  C229  1.508229 S    
N24   O96   1.303615 A    
C150  C164  1.457752 S    
C82   C86   1.400209 A    
C105  C109  1.411121 A    
C52   C56   1.414985 A    
N25   O98   1.302251 A    
N8    O64   1.298047 A    
N11   O70   1.301435 A    
C158  C222  1.509559 S    
H2    C18   1.108096 S    
H8    C36   1.101436 S    
C191  C200  1.399257 A    
C144  C152  1.401072 A    
C135  C138  1.398434 A    
C136  H56   1.083995 S    
C65   C69   1.385636 A    
O40   C126  1.294214 A    
H7    C35   1.101437 S    
C155  C164  1.389464 A    
O47   C128  1.295759 A    
N23   O93   1.301596 A    
C101  H49   1.083884 S    
Zn9   O45   2.016103 S    
C213  H122  1.110411 S    
C223  H151  1.111029 S    
C55   N11   1.439894 S    
C104  H52   1.083888 S    
C204  H95   1.103117 S    
C50   C86   1.461273 S    
C48   C52   1.400501 A    
N13   O73   1.301230 A    
O36   Zn12  2.015905 S    
N19   O85   1.302050 A    
C44   H20   1.083168 S    
O34   Zn10  2.015905 S    
C191  C195  1.390735 A    
N27   O102  1.302256 A    
C202  H89   1.103069 S    
O20   Zn8   2.014992 S    
C22   C26   1.593355 S    
N28   O104  1.302251 A    
C232  H180  1.110830 S    
C96   H48   1.083227 S    
C81   C85   1.400208 A    
N15   O78   1.301533 A    
C18   C34   1.550347 S    
C221  H147  1.109843 S    
C179  H75   1.084094 S    
C205  H98   1.108020 S    
C182  C230  1.508226 S    
C186  C200  1.464617 S    
C227  H163  1.110790 S    
C210  H114  1.109664 S    
C50   C54   1.414985 A    
C57   C61   1.401670 A    
O24   C118  1.277858 A    
C67   C87   1.397658 A    
C14   C30   1.631895 S    
O31   C120  1.283006 A    
C64   C126  1.459819 S    
O38   C124  1.294167 A    
C59   C63   1.401739 A    
Zn12  O48   2.016104 S    
C65   C85   1.397635 A    
C216  H131  1.110409 S    
C145  H61   1.083369 S    
O19   C114  1.289783 A    
C32   C118  1.476541 S    
C147  H63   1.083373 S    
C80   C84   1.398326 A    
N3    O53   1.304528 A    
C211  H116  1.111449 S    
C38   C202  1.549360 S    
C190  H78   1.083317 S    
C37   H13   1.097421 S    
C129  C139  1.410340 A    
C37   C201  1.549362 S    
O8    C4    1.284651 A    
N1    O50   1.300922 A    
O26   C116  1.276815 A    
C72   H36   1.083776 S    
C104  C108  1.396441 A    
C220  H143  1.110677 S    
C201  H86   1.103067 S    
N21   O89   1.301603 A    
O28   Zn7   2.035839 S    
C89   C109  1.398574 A    
C209  H110  1.111452 S    
C39   C203  1.549260 S    
N18   O83   1.302087 A    
C171  C174  1.413742 A    
C212  H119  1.111448 S    
O12   Zn2   2.037084 S    
C52   C88   1.461279 S    
C207  H104  1.108001 S    
C22   H10   1.108079 S    
O1    C1    1.284277 A    
C82   H38   1.083515 S    
C68   C88   1.397654 A    
C45   H21   1.083745 S    
O25   Zn6   2.035837 S    
C180  C188  1.395545 A    
O43   C125  1.293567 A    
C131  C140  1.410367 A    
C132  C136  1.392783 A    
N14   O76   1.301532 A    
C156  C160  1.393616 A    
C4    C100  1.456345 S    
C54   C58   1.398295 A    
C194  H82   1.083307 S    
C130  C218  1.509350 S    
C41   H17   1.083175 S    
O21   C115  1.277942 A    
C215  H129  1.110773 S    
C18   C26   1.583097 S    
N2    O52   1.300921 A    
C159  C162  1.429809 A    
C13   N21   1.493995 S    
C20   C36   1.550279 S    
O26   Zn5   2.035839 S    
C91   C111  1.398620 A    
C131  C135  1.392784 A    
C100  C104  1.401618 A    
C11   C15   1.615365 S    
C58   C62   1.401733 A    
N28   O103  1.300808 A    
C93   H45   1.083226 S    
C60   H28   1.083260 S    
C94   C98   1.399889 A    
C227  H164  1.109348 S    
C208  H106  1.102450 S    
C24   N28   1.479934 S    
C113  C161  1.486164 S    
C81   H37   1.083526 S    
C177  H73   1.084088 S    
C90   C94   1.386850 A    
C71   C75   1.399431 A    
C142  C151  1.401072 A    
O45   C127  1.295744 A    
C84   H40   1.083519 S    
C69   C73   1.399420 A    
N6    O59   1.302071 A    
O6    C2    1.284673 A    
C229  H171  1.110831 S    
O4    Zn2   2.010252 S    
N7    O61   1.302070 A    
N3    O54   1.300918 A    
C36   N8    1.478777 S    
C166  C175  1.398634 A    
C184  C232  1.508224 S    
C35   N7    1.478776 S    
C23   N27   1.479934 S    
O17   Zn5   2.014993 S    
O18   C113  1.289750 A    
C1    C97   1.456521 S    
C30   C116  1.476572 S    
C192  C196  1.390739 A    
C168  C176  1.398648 A    
C76   C112  1.457895 S    
C127  C175  1.461093 S    
C114  C162  1.486300 S    
C178  C184  1.396248 A    
O30   C119  1.283004 A    
C179  C181  1.396230 A    
C119  C197  1.457356 S    
C91   C95   1.386833 A    
O2    Zn1   2.010252 S    
O10   Zn1   2.037084 S    
C165  H69   1.083922 S    
C33   N5    1.478797 S    
C166  C170  1.396719 A    
C181  C185  1.414584 A    
C168  H72   1.083908 S    
N20   O87   1.302056 A    
C223  H153  1.109842 S    
O39   C125  1.294216 A    
N5    O58   1.298056 A    
C106  C214  1.507589 S    
N16   O80   1.301533 A    
O37   C123  1.294142 A    
C89   C93   1.386824 A    
C40   C204  1.549259 S    
C12   C28   1.622269 S    
C39   H15   1.097392 S    
C92   C96   1.386837 A    
C147  C150  1.400841 A    
N23   O94   1.303611 A    
C177  C183  1.396248 A    
C189  C193  1.390709 A    
C196  H84   1.083280 S    
C84   C88   1.400215 A    
C179  C188  1.395544 A    
C219  H139  1.110792 S    
O7    C3    1.284649 A    
O21   Zn5   2.036769 S    
C170  C173  1.413749 A    
C83   C87   1.400210 A    
C226  H160  1.110794 S    
C156  C164  1.389463 A    
C34   N6    1.478797 S    
N26   O99   1.300812 A    
N10   O68   1.301441 A    
C224  H154  1.111029 S    
O36   C122  1.287420 A    
C75   C79   1.414759 A    
C225  H159  1.109352 S    
C203  H92   1.103117 S    
C107  C215  1.507594 S    
C136  C138  1.398435 A    
C20   C208  1.554560 S    
C195  H83   1.083280 S    
C56   N12   1.439892 S    
C75   C111  1.457899 S    
C228  H166  1.110790 S    
C121  C139  1.445131 S    
C217  H134  1.110679 S    
C214  H125  1.110407 S    
C46   C50   1.400512 A    
C219  H140  1.110681 S    
C53   N9    1.439882 S    
C68   C72   1.385645 A    
O16   C8    1.281090 A    
C43   H19   1.083167 S    
C196  C198  1.402173 A    
N11   O69   1.301447 A    
O27   C117  1.276872 A    
C193  H81   1.083302 S    
C92   C112  1.398616 A    
C230  H172  1.109328 S    
N12   O72   1.301443 A    
C208  H108  1.110980 S    
C42   C46   1.385410 A    
O11   C7    1.277503 A    
C183  C186  1.414577 A    
C193  C197  1.402203 A    
O12   C8    1.277502 A    
O1    Zn1   2.010250 S    
O9    Zn1   2.037079 S    
C45   C49   1.400541 A    
C190  C199  1.399257 A    
C9    N1    1.508121 S    
N9    O66   1.301451 A    
C12   N4    1.508127 S    
C107  C111  1.411188 A    
C210  H113  1.111453 S    
C57   H25   1.083283 S    
O24   Zn8   2.036772 S    
C31   C35   1.594891 S    
C206  H101  1.108019 S    
O38   Zn10  2.010937 S    
C48   H24   1.083763 S    
N22   O91   1.301601 A    
C66   C86   1.397654 A    
C146  H62   1.083370 S    
N27   O101  1.300807 A    
O33   C121  1.287404 A    
O11   Zn2   2.037079 S    
H5    C33   1.101429 S    
C9    C209  1.572161 S    
N17   O81   1.302088 A    
C103  H51   1.083887 S    
C129  C217  1.509351 S    
C180  H76   1.084094 S    
C70   H34   1.083773 S    
C78   N14   1.442154 S    
C170  C226  1.508664 S    
C218  H136  1.110793 S    
C143  C145  1.386959 A    
O6    Zn3   2.011397 S    
Zn7   O31   2.014757 S    
N25   O97   1.300813 A    
O18   Zn6   2.014992 S    
C40   H16   1.097397 S    
C42   C62   1.399269 A    
C49   C85   1.461312 S    
C206  H100  1.102403 S    
C66   H30   1.083397 S    
C194  C197  1.402206 A    
N4    O55   1.304529 A    
N4    O56   1.300915 A    
C231  H176  1.109332 S    
C154  H66   1.084412 S    
C95   H47   1.083231 S    
C231  H177  1.110829 S    
C23   H11   1.108060 S    
C17   C205  1.554524 S    
O2    C2    1.284236 A    
C19   C27   1.583044 S    
C204  H94   1.112060 S    
C134  H54   1.083997 S    
C29   C37   1.579626 S    
C20   C28   1.583044 S    
C73   C109  1.457853 S    
C226  H162  1.109353 S    
O35   C122  1.287421 A    
O14   Zn3   2.038144 S    
C156  H68   1.084412 S    
C90   C110  1.398616 A    
O34   C121  1.287403 A    
C78   C82   1.398326 A    
N19   O86   1.299448 A    
C228  H168  1.110422 S    
C202  H88   1.112007 S    
C43   C63   1.399301 A    
C222  H148  1.111029 S    
C223  H152  1.105630 S    
C221  H146  1.105671 S    
C166  H70   1.083920 S    
C205  H97   1.102402 S    
C5    C25   1.470342 S    
N7    O62   1.298046 A    
C213  H121  1.108928 S    
N5    O57   1.302070 A    
C9    C25   1.622194 S    
C209  H111  1.109672 S    
C58   H26   1.083270 S    
C32   C40   1.579662 S    
C216  H130  1.108906 S    
C177  C187  1.395552 A    
C222  H150  1.109839 S    
C94   H46   1.083227 S    
C41   C45   1.385410 A    
C66   C70   1.385653 A    
C12   C212  1.572192 S    
C10   N2    1.508120 S    
C211  H115  1.092884 S    
C90   H42   1.083660 S    
H6    C34   1.101430 S    
N8    O63   1.302072 A    
N1    O49   1.304530 A    
C225  H157  1.110795 S    
C144  C146  1.386959 A    
C70   C74   1.399430 A    
C195  C198  1.402176 A    
C53   C57   1.398308 A    
C24   C28   1.593363 S    
