data_mof_unit_25836.cif
_audit_creation_date              2012-10-26T18:53:18-0400
_audit_creation_method            fapswitch 2.2
_symmetry_space_group_name_H-M    P1
_symmetry_Int_Tables_number       1
_space_group_crystal_system       triclinic
_cell_length_a                    14.708239
_cell_length_b                    14.720841
_cell_length_c                    15.86574
_cell_angle_alpha                 76.823477
_cell_angle_beta                  103.027063
_cell_angle_gamma                 114.926731
_cell_volume                      3000.48010759

loop_
_atom_site_label
_atom_site_type_symbol
_atom_type_description
_atom_site_fract_x
_atom_site_fract_y
_atom_site_fract_z
_atom_type_partial_charge
C1    C     C_R   0.880227 0.312261 0.513541 0.545398
C2    C     C_R   0.187575 0.795136 0.469367 -0.005026
C3    C     C_R   0.784315 0.028124 0.530287 -0.135390
C4    C     C_R   0.999881 0.499891 0.659771 0.553128
C5    C     C_R   0.850619 0.128912 0.532164 -0.138619
C6    C     C_R   0.707768 0.179014 0.496645 -0.134221
C7    C     C_R   0.639622 0.078649 0.490581 0.031961
C8    C     C_R   0.679326 0.002367 0.510274 0.049410
C9    C     C_R   0.533200 0.051914 0.467800 0.030589
C10   C     C_R   0.467205 0.947800 0.476207 0.028892
C11   C     C_R   0.509813 0.873986 0.494393 -0.142141
C12   C     C_3   0.096521 0.481324 0.073130 0.189176
C13   C     C_R   0.613962 0.901206 0.509971 -0.136072
C14   C     C_R   0.490746 0.125632 0.435008 -0.150582
C15   C     C_R   0.386593 0.098389 0.417211 -0.147736
C16   C     C_R   0.119776 0.687740 0.484506 0.544480
C17   C     C_R   0.321104 0.997400 0.433715 0.048991
C18   C     C_R   0.360687 0.921144 0.464337 0.027421
C19   C     C_R   0.216106 0.971785 0.419955 -0.134937
C20   C     C_R   0.149623 0.871096 0.436989 -0.138921
C21   C     C_R   0.292293 0.820885 0.484267 -0.141292
C22   C     C_R   0.718786 0.673903 0.361172 -0.162265
C23   C     C_3   0.002219 0.498586 0.083701 0.088849
C24   C     C_R   0.798967 0.642274 0.381629 0.040074
C25   C     C_R   0.713417 0.506821 0.486158 0.033727
C26   C     C_R   0.628260 0.534219 0.467537 0.003187
C27   C     C_R   0.633825 0.620963 0.404501 0.040111
C28   C     C_R   0.000116 0.500006 0.340313 0.550392
C29   C     C_R   0.539560 0.480488 0.509899 0.006852
C30   C     C_R   0.459596 0.516713 0.490281 0.015880
C31   C     C_R   0.470863 0.605408 0.428605 -0.153958
C32   C     C_R   0.555533 0.655397 0.386054 -0.137269
C33   C     C_R   0.528296 0.391610 0.570735 -0.147037
C34   C     C_3   0.006373 0.601611 0.028912 -0.263562
C35   C     C_R   0.444051 0.340696 0.614440 -0.010787
C36   C     C_R   0.365085 0.375936 0.596290 0.030891
C37   C     C_R   0.371231 0.463271 0.533045 -0.011541
C38   C     C_R   0.278393 0.323806 0.638363 -0.162985
C39   C     C_R   0.199564 0.357129 0.617864 0.035815
C40   C     C_3   0.094672 0.480614 0.974748 -0.159700
C41   C     C_R   0.286910 0.492093 0.514285 0.032796
C42   C     C_3   0.904146 0.413637 0.949667 -0.220037
C43   C     C_3   0.904268 0.413761 0.047248 -0.196003
C44   C     C_1   0.000361 0.499786 0.250785 -0.046567
C45   C     C_3   0.006297 0.601823 0.931289 -0.234856
C46   C     C_3   0.001471 0.498813 0.917947 0.034838
C47   C     C_3   0.166953 0.399001 0.199239 0.007472
C48   C     C_3   0.268840 0.408451 0.181256 -0.279859
C49   C     C_3   0.345834 0.417748 0.264735 -0.475714
C50   C     C_R   0.440689 0.248703 0.677909 0.022379
C51   C     C_R   0.452124 0.249207 0.768098 -0.103779
C52   C     C_R   0.450839 0.162585 0.827603 -0.117485
C53   C     C_R   0.438733 0.075414 0.797456 -0.104615
C54   C     C_R   0.428019 0.074750 0.707752 -0.107572
C55   C     C_R   0.429211 0.161178 0.648163 -0.098863
C56   C     C_1   0.000977 0.499376 0.175445 -0.065402
C57   C     C_1   0.000623 0.499162 0.825461 -0.077613
C58   C     C_1   0.999895 0.499594 0.749597 -0.034636
C59   C     C_R   0.812497 0.204852 0.515526 -0.003473
Cu1   Cu    Cu3+1 0.081750 0.475690 0.522550 0.925158
Cu2   Cu    Cu3+1 0.918250 0.524310 0.477450 0.930668
H1    H     H_    0.165629 0.540577 0.952556 0.072518
H2    H     H_    0.680789 0.238429 0.488796 0.117804
H3    H     H_    0.092756 0.407038 0.965521 0.152077
H4    H     H_    0.464676 0.794310 0.494265 0.102386
H5    H     H_    0.536082 0.205249 0.419815 0.105840
H6    H     H_    0.185435 0.029711 0.395799 0.104474
H7    H     H_    0.560206 0.722634 0.338703 0.108780
H8    H     H_    0.283297 0.554573 0.464997 0.116286
H9    H     H_    0.132768 0.315916 0.649704 0.125502
H10   H     H_    0.723725 0.740156 0.312520 0.088950
H11   H     H_    0.865219 0.683951 0.349136 0.122137
H12   H     H_    0.166473 0.547127 0.093217 0.080407
H13   H     H_    0.718078 0.444885 0.535669 0.119172
H14   H     H_    0.835905 0.424651 0.909687 0.117469
H15   H     H_    0.415326 0.638698 0.411236 0.087360
H16   H     H_    0.584451 0.359093 0.586169 0.096803
H17   H     H_    0.269823 0.256372 0.686102 0.108903
H18   H     H_    0.899351 0.338674 0.941145 0.124121
H19   H     H_    0.898275 0.338521 0.085502 0.158903
H20   H     H_    0.836469 0.425674 0.053880 0.101389
H21   H     H_    0.076014 0.664260 0.909253 0.117998
H22   H     H_    0.940143 0.616746 0.891010 0.127267
H23   H     H_    0.940005 0.616061 0.035442 0.123900
H24   H     H_    0.075815 0.664346 0.053622 0.104046
H25   H     H_    0.137548 0.330111 0.247838 0.159803
H26   H     H_    0.177033 0.464193 0.229996 0.124717
H27   H     H_    0.257794 0.340509 0.154349 0.172669
H28   H     H_    0.299174 0.476441 0.132054 0.149059
H29   H     H_    0.358851 0.486142 0.291768 0.159260
H30   H     H_    0.418975 0.424787 0.249877 0.151973
H31   H     H_    0.318270 0.349670 0.314564 0.146598
H32   H     H_    0.462079 0.316536 0.792087 0.105945
H33   H     H_    0.459452 0.163097 0.897086 0.103260
H34   H     H_    0.643449 0.842330 0.523252 0.115572
H35   H     H_    0.437842 0.008487 0.843599 0.104143
H36   H     H_    0.418889 0.007386 0.684362 0.117453
H37   H     H_    0.420901 0.160063 0.578943 0.120000
H38   H     H_    0.318996 0.761416 0.513403 0.121305
H39   H     H_    0.068810 0.852786 0.424772 0.124360
H40   H     H_    0.357199 0.157226 0.392253 0.104925
H41   H     H_    0.815118 0.970218 0.544386 0.106062
H42   H     H_    0.931432 0.147290 0.546676 0.126232
N1    N     N_R   0.795410 0.560790 0.443550 -0.231701
N2    N     N_R   0.204590 0.439170 0.556520 -0.230969
O1    O     O_R   0.977910 0.338120 0.529720 -0.507383
O2    O     O_R   0.839850 0.379180 0.491640 -0.512241
O3    O     O_R   0.069060 0.479460 0.639610 -0.494595
O4    O     O_R   0.931000 0.520530 0.601530 -0.494634
O5    O     O_R   0.160150 0.620820 0.508360 -0.511620
O6    O     O_R   0.022090 0.661880 0.470280 -0.506229
O7    O     O_R   0.069000 0.479470 0.398470 -0.501588
O8    O     O_R   0.930940 0.520540 0.360390 -0.493717
O9    O     O_3   0.095235 0.386854 0.121899 -0.581167

loop_
_geom_bond_atom_site_label_1
_geom_bond_atom_site_label_2
_ccdc_geom_bond_type
C47   O9    S    
C4    O4    A    
C5    H42   S    
C8    C13   A    
C18   C21   A    
C45   H21   S    
C49   H29   S    
Cu2   O4    S    
C57   C58   T    
C16   O5    A    
C7    C8    A    
C53   C54   A    
C28   O7    A    
C40   C46   S    
C4    O3    A    
C12   C23   S    
C42   H14   S    
C41   N2    A    
C13   H34   S    
C36   C37   A    
C1    C59   S    
C30   C31   A    
C21   H38   S    
C29   C33   A    
C40   H1    S    
C7    C9    A    
C25   H13   S    
C42   C46   S    
C17   C19   A    
C19   C20   A    
C48   H27   S    
C54   H36   S    
C52   H33   S    
C2    C16   S    
C9    C10   A    
Cu1   O3    S    
C1    O1    A    
C32   H7    S    
C42   H18   S    
C12   H12   S    
C53   H35   S    
C45   H22   S    
C34   H23   S    
C49   H30   S    
C50   C51   A    
C35   C50   S    
C12   O9    S    
C14   H5    S    
C5    C59   A    
C2    C20   A    
C51   C52   A    
C47   H25   S    
C23   C56   S    
Cu2   N1    S    
C3    C8    A    
C28   O8    A    
C38   H17   S    
C43   H19   S    
C45   C46   S    
C28   C44   S    
C30   C37   A    
Cu1   Cu2   S    
C24   N1    A    
C34   H24   S    
C47   H26   S    
C6    H2    S    
C12   C40   S    
C9    C14   A    
C29   C30   A    
Cu1   O7    S    
C44   C56   T    
C47   C48   S    
C20   H39   S    
C23   C34   S    
C2    C21   A    
C17   C18   A    
C26   C27   A    
C34   C45   S    
C15   H40   S    
C19   H6    S    
C51   H32   S    
C3    H41   S    
C48   C49   S    
C1    O2    A    
C48   H28   S    
C46   C57   S    
Cu2   O8    S    
C43   H20   S    
C22   C24   A    
C42   C43   S    
C49   H31   S    
Cu2   O6    S    
C22   H10   S    
Cu1   O1    S    
C52   C53   A    
C24   H11   S    
C41   H8    S    
C39   N2    A    
C54   C55   A    
C27   C32   A    
C23   C43   S    
C6    C59   A    
C31   C32   A    
C3    C5    A    
C25   N1    A    
C15   C17   A    
C6    C7    A    
C50   C55   A    
C40   H3    S    
C22   C27   A    
C36   C38   A    
C25   C26   A    
C11   C13   A    
C33   H16   S    
C31   H15   S    
C38   C39   A    
C10   C18   A    
C55   H37   S    
C33   C35   A    
C39   H9    S    
C37   C41   A    
Cu2   O2    S    
Cu1   O5    S    
C10   C11   A    
C26   C29   A    
C4    C58   S    
C14   C15   A    
C35   C36   A    
Cu1   N2    S    
C11   H4    S    
C16   O6    A    
