data_mof_unit_35945.cif
_audit_creation_date              2012-12-11T15:23:32-0500
_audit_creation_method            fapswitch 2.2
_symmetry_space_group_name_H-M    P1
_symmetry_Int_Tables_number       1
_space_group_crystal_system       triclinic
_cell_length_a                    6.920556
_cell_length_b                    17.536046
_cell_length_c                    19.387123
_cell_angle_alpha                 109.634704
_cell_angle_beta                  90.162455
_cell_angle_gamma                 90.539857
_cell_volume                      2215.85615597

loop_
_atom_site_label
_atom_site_type_symbol
_atom_type_description
_atom_site_fract_x
_atom_site_fract_y
_atom_site_fract_z
_atom_type_partial_charge
O1    O     O_R   0.505810 0.439670 0.562310 -0.528872
O2    O     O_R   0.169070 0.404920 0.411210 -0.517894
O3    O     O_R   0.005550 0.560330 0.437690 -0.538407
C1    C     C_R   0.338848 0.381557 0.383315 0.737840
O4    O     O_R   0.175650 0.430000 0.560110 -0.525285
O5    O     O_R   0.012170 0.585580 0.587650 -0.547741
C2    C     C_R   0.344437 0.414375 0.581317 0.691352
O6    O     O_R   0.499180 0.414420 0.412350 -0.541246
O7    O     O_3   0.341430 0.551020 0.508860 -0.369341
V1    V     V_3+5 0.063930 0.490540 0.498360 1.539656
O8    O     O_R   0.682850 0.595080 0.588790 -0.534741
C3    C     C_R   0.852616 0.617901 0.617246 0.677876
O9    O     O_R   0.676280 0.570000 0.439890 -0.522748
C4    C     C_R   0.844942 0.585106 0.418480 0.768550
V2    V     V_3+5 0.564760 0.509460 0.501640 1.519261
O10   O     O_3   0.837130 0.448980 0.491140 -0.358696
C5    C     C_R   0.050024 0.875856 0.187359 0.155671
C6    C     C_R   0.914502 0.864004 0.129826 -0.192451
C7    C     C_R   0.767239 0.804170 0.119037 0.166374
C8    C     C_R   0.748386 0.759708 0.168206 0.033397
C9    C     C_R   0.886882 0.771325 0.224978 -0.097116
C10   C     C_R   0.038899 0.828290 0.233166 0.124061
C11   C     C_R   0.593835 0.704120 0.162000 0.303284
C12   C     C_R   0.573179 0.663809 0.213788 0.227470
C13   C     C_R   0.720254 0.669777 0.266555 -0.014177
C14   C     C_R   0.875274 0.725635 0.273406 -0.152796
C15   C     C_R   0.017427 0.737214 0.329523 0.102323
C16   C     C_R   0.171747 0.792733 0.334830 0.213045
C17   C     C_R   0.179625 0.837286 0.287449 -0.228048
C18   C     C_R   0.716109 0.622007 0.313335 0.186795
C19   C     C_R   0.853556 0.635301 0.370066 -0.216198
C20   C     C_R   0.999433 0.695027 0.380036 0.293723
H1    H     H_    0.299926 0.879092 0.293618 0.170013
C21   C     C_3   0.757600 0.807702 0.750659 -0.109323
C22   C     C_3   0.920616 0.775597 0.693472 -0.179278
H2    H     H_    0.949928 0.796368 0.646333 0.121745
H3    H     H_    0.650291 0.854596 0.751279 0.125919
C23   C     C_3   0.867857 0.687969 0.687878 -0.025145
C24   C     C_3   0.710087 0.720019 0.744826 0.257778
C25   C     C_3   0.850445 0.724211 0.807529 -0.208049
C26   C     C_3   0.012710 0.692373 0.750021 -0.135731
C27   C     C_3   0.065945 0.780701 0.756120 -0.094253
C28   C     C_3   0.903068 0.811656 0.812499 -0.065744
H4    H     H_    0.819104 0.703193 0.854378 0.118922
H5    H     H_    0.116688 0.644353 0.749357 0.126062
H6    H     H_    0.213796 0.807129 0.761136 0.132415
C29   C     C_3   0.555664 0.280994 0.276403 0.311021
C30   C     C_3   0.492801 0.192902 0.262113 0.273730
C31   C     C_3   0.413124 0.188458 0.186818 -0.160708
C32   C     C_3   0.477969 0.277469 0.200358 -0.243920
C33   C     C_3   0.280392 0.305776 0.237220 0.188324
C34   C     C_3   0.211529 0.217425 0.222092 -0.108050
C35   C     C_3   0.296840 0.222680 0.297442 0.089522
C36   C     C_3   0.358555 0.311485 0.313088 -0.145423
H7    H     H_    0.552900 0.301223 0.161126 0.138566
H8    H     H_    0.067063 0.192421 0.200454 0.164552
C37   C     C_R   0.570219 0.129127 0.817048 0.310132
C38   C     C_R   0.419139 0.131983 0.866781 -0.110370
C39   C     C_R   0.258650 0.180795 0.868447 -0.291814
C40   C     C_R   0.246543 0.227028 0.822010 0.094921
C41   C     C_R   0.391759 0.222091 0.769931 0.053871
C42   C     C_R   0.552489 0.171623 0.766317 -0.053521
C43   C     C_R   0.089543 0.277871 0.827092 -0.277083
C44   C     C_R   0.075565 0.325968 0.782503 0.256754
C45   C     C_R   0.219584 0.321850 0.729089 0.089564
C46   C     C_R   0.375587 0.267397 0.721447 -0.167132
C47   C     C_R   0.515825 0.258111 0.665921 -0.023491
C48   C     C_R   0.667298 0.201713 0.659215 0.403436
C49   C     C_R   0.686918 0.161847 0.710070 -0.231494
C50   C     C_R   0.214964 0.372380 0.685222 0.344236
C51   C     C_R   0.353355 0.362917 0.629052 -0.277348
C52   C     C_R   0.500936 0.304484 0.618641 0.318287
H9    H     H_    0.144079 0.184216 0.907407 0.147584
H10   H     H_    0.977024 0.281374 0.866848 0.126882
H11   H     H_    0.805085 0.119891 0.702213 0.164872
O11   O     O_R   0.271890 0.085690 0.087580 -0.552743
O12   O     O_R   0.595690 0.070020 0.939870 -0.516216
O13   O     O_R   0.758900 0.914390 0.912370 -0.537027
C53   C     C_R   0.427314 0.084281 0.917446 0.748689
O14   O     O_R   0.602020 0.095100 0.088770 -0.530409
O15   O     O_R   0.765280 0.939660 0.062330 -0.543367
C54   C     C_R   0.432400 0.118378 0.116713 0.749973
O16   O     O_R   0.265520 0.060430 0.937620 -0.546604
O17   O     O_3   0.429560 0.949050 0.991100 -0.381735
V3    V     V_3+5 0.707160 0.009450 0.001650 1.462995
O18   O     O_R   0.094540 0.929890 0.060190 -0.545473
C55   C     C_R   0.925504 0.914437 0.081409 0.716971
O19   O     O_R   0.088200 0.904800 0.911290 -0.543825
C56   C     C_R   0.918362 0.881822 0.882969 0.713709
V4    V     V_3+5 0.206300 0.990390 0.998440 1.412964
O20   O     O_3   0.934030 0.050940 0.008900 -0.366486
N1    N     N_3   0.196996 0.937937 0.201765 -0.669761
H12   H     H_    0.133398 0.993143 0.205887 0.233457
H13   H     H_    0.297434 0.922034 0.159318 0.253132
N2    N     N_3   0.515012 0.686685 0.738803 -0.671691
H14   H     H_    0.447765 0.714947 0.788984 0.216649
H15   H     H_    0.526530 0.625549 0.733343 0.219929
O21   O     O_3   0.606202 0.133447 0.275013 -0.636346
H16   H     H_    0.631788 0.153100 0.328477 0.285368
O22   O     O_3   0.737973 0.312693 0.303099 -0.604913
H17   H     H_    0.759959 0.297785 0.347463 0.302199
N3    N     N_3   0.161305 0.367342 0.223721 -0.609574
H18   H     H_    0.133698 0.348648 0.167438 0.224959
H19   H     H_    0.244779 0.420328 0.236739 0.227293
N4    N     N_3   0.640384 0.786270 0.056615 -0.583268
H20   H     H_    0.544677 0.834022 0.064095 0.253553
H21   H     H_    0.721461 0.777081 0.009112 0.207489
N5    N     N_3   0.198649 0.192512 0.349557 -0.635601
H22   H     H_    0.183548 0.129815 0.325064 0.253164
H23   H     H_    0.290868 0.202633 0.394608 0.208537
O23   O     O_3   0.728722 0.081952 0.817235 -0.646367
H24   H     H_    0.845687 0.110720 0.809191 0.283262
N6    N     N_3   0.912636 0.378347 0.792006 -0.581533
H25   H     H_    0.915203 0.418681 0.845837 0.221011
H26   H     H_    0.786549 0.343273 0.785234 0.227163
O24   O     O_3   0.078036 0.432493 0.699683 -0.602789
H27   H     H_    0.137691 0.481173 0.693177 0.272990
O25   O     O_3   0.634554 0.293471 0.563500 -0.610184
H28   H     H_    0.565566 0.294537 0.518966 0.271339
O26   O     O_3   0.800029 0.183613 0.603566 -0.611549
H29   H     H_    0.725012 0.161424 0.557337 0.312852
O27   O     O_3   0.460676 0.690288 0.105728 -0.623602
H30   H     H_    0.412647 0.633653 0.091729 0.300045
O28   O     O_3   0.405044 0.621217 0.214988 -0.664474
H31   H     H_    0.295365 0.647517 0.199203 0.302824
N7    N     N_3   0.581795 0.555740 0.301881 -0.626697
H32   H     H_    0.586480 0.517354 0.247382 0.258188
H33   H     H_    0.442918 0.577938 0.316831 0.285298
O29   O     O_3   0.123220 0.714147 0.439682 -0.608671
H34   H     H_    0.052611 0.708542 0.482130 0.274877
N8    N     N_3   0.324420 0.804101 0.387655 -0.581167
H35   H     H_    0.327859 0.865084 0.420689 0.229039
H36   H     H_    0.455601 0.791084 0.359736 0.226003

loop_
_geom_bond_atom_site_label_1
_geom_bond_atom_site_label_2
_ccdc_geom_bond_type
C53   O16   A    
C9    C14   A    
C18   N7    S    
N7    H32   S    
C10   C17   A    
C21   H3    S    
C26   C27   S    
C7    C8    A    
C4    C19   S    
C1    O6    A    
V3    O20   S    
C37   C42   A    
C37   O23   S    
C35   C36   S    
O24   H27   S    
C33   N3    S    
N4    H21   S    
C14   C15   A    
C28   C56   S    
C40   C43   A    
C16   C17   A    
C47   C52   A    
O5    C3    A    
C23   C24   S    
C21   C22   S    
C45   C50   A    
O21   H16   S    
C17   H1    S    
C12   O28   S    
N5    H22   S    
C6    C7    A    
C27   H6    S    
C22   C27   S    
O25   H28   S    
N1    H12   S    
N6    H25   S    
O8    V2    S    
C21   C24   S    
C25   C28   S    
C29   C30   S    
C48   C49   A    
C32   H7    S    
C11   C12   A    
C50   C51   A    
O1    V2    S    
C11   O27   S    
O7    V1    S    
C39   H9    S    
C46   C47   A    
O12   V3    S    
C39   C40   A    
C9    C10   A    
C3    C23   S    
N3    H18   S    
C5    N1    S    
O17   V4    S    
C41   C46   A    
C20   O29   S    
C5    C6    A    
C29   C32   S    
O12   C53   A    
O13   C56   A    
C30   C35   S    
C47   C48   A    
C22   C23   S    
C12   C13   A    
C23   C26   S    
O14   C54   A    
O18   V4    S    
O11   C54   A    
C24   C25   S    
O4    C2    A    
O18   C55   A    
C50   O24   S    
C38   C39   A    
C29   O22   S    
C33   C34   S    
C42   C49   A    
C40   C41   A    
C22   H2    S    
C31   C54   S    
O2    C1    A    
O14   V3    S    
C19   C20   A    
C8    C11   A    
C31   C34   S    
C8    C9    A    
N1    H13   S    
C32   C33   S    
O17   V3    S    
N3    H19   S    
C24   N2    S    
O15   C55   A    
O3    C4    A    
C38   C53   S    
C29   C36   S    
C7    N4    S    
O13   V3    S    
C30   C31   S    
O19   V4    S    
C45   C46   A    
O6    V2    S    
O9    V2    S    
C27   C28   S    
V4    O20   S    
N8    H35   S    
O2    V1    S    
C15   C16   A    
C34   C35   S    
O29   H34   S    
C13   C18   A    
O16   V4    S    
C25   C26   S    
N7    H33   S    
C44   N6    S    
O23   H24   S    
C1    C36   S    
C15   C20   A    
O1    C2    A    
C21   C28   S    
C5    C10   A    
N8    H36   S    
O5    V1    S    
O8    C3    A    
N2    H15   S    
C43   H10   S    
C30   O21   S    
N4    H20   S    
C6    C55   S    
C33   C36   S    
C44   C45   A    
C16   N8    S    
C13   C14   A    
O4    V1    S    
O3    V1    S    
V1    O10   S    
C48   O26   S    
C2    C51   S    
C35   N5    S    
C37   C38   A    
C18   C19   A    
O22   H17   S    
N5    H23   S    
C49   H11   S    
O7    V2    S    
C41   C42   A    
C43   C44   A    
C34   H8    S    
C25   H4    S    
C51   C52   A    
O19   C56   A    
C31   C32   S    
C52   O25   S    
N2    H14   S    
C26   H5    S    
O26   H29   S    
O27   H30   S    
O9    C4    A    
O15   V3    S    
V2    O10   S    
O11   V4    S    
O28   H31   S    
N6    H26   S    
