data_mof_unit_39140.cif
_audit_creation_date              2012-10-26T19:25:58-0400
_audit_creation_method            fapswitch 2.2
_symmetry_space_group_name_H-M    P1
_symmetry_Int_Tables_number       1
_space_group_crystal_system       triclinic
_cell_length_a                    15.060341
_cell_length_b                    13.982845
_cell_length_c                    11.670336
_cell_angle_alpha                 89.972997
_cell_angle_beta                  86.830767
_cell_angle_gamma                 89.985961
_cell_volume                      2453.85518907

loop_
_atom_site_label
_atom_site_type_symbol
_atom_type_description
_atom_site_fract_x
_atom_site_fract_y
_atom_site_fract_z
_atom_type_partial_charge
C1    C     C_R   0.329295 0.500195 0.503201 0.565241
C2    C     C_R   0.559257 0.205985 0.428535 0.186705
C3    C     C_R   0.551130 0.794489 0.419416 0.185530
C4    C     C_R   0.440723 0.205951 0.571412 0.186406
C5    C     C_R   0.559795 0.896624 0.426279 -0.046270
C6    C     C_R   0.441095 0.102763 0.576809 -0.053413
C7    C     C_R   0.440232 0.896594 0.573871 -0.045381
C8    C     C_R   0.558978 0.102783 0.423270 -0.053922
C9    C     C_R   0.500024 0.948456 0.500077 -0.004561
C10   C     C_R   0.500037 0.051449 0.500058 -0.006472
C11   C     C_R   0.624295 0.948176 0.357976 0.034498
C12   C     C_R   0.670720 0.500165 0.497277 0.565773
C13   C     C_R   0.382002 0.048543 0.652795 0.033449
C14   C     C_R   0.375825 0.948176 0.642294 0.033873
C15   C     C_R   0.618157 0.048554 0.347419 0.033706
C16   C     C_R   0.499869 0.500032 0.284431 0.533599
C17   C     C_R   0.500104 0.500003 0.715571 0.533174
C18   C     C_1   0.499729 0.500103 0.162620 0.011005
C19   C     C_1   0.499903 0.500023 0.837404 0.008799
C20   C     C_1   0.499702 0.500132 0.059983 -0.021896
C21   C     C_1   0.499758 0.500093 0.940053 -0.024318
C22   C     C_R   0.818792 0.514536 0.394503 0.099263
C23   C     C_R   0.911857 0.505663 0.394467 0.013583
C24   C     C_R   0.181215 0.513221 0.606168 0.099472
C25   C     C_R   0.767346 0.500419 0.497836 0.062402
C26   C     C_R   0.232719 0.500679 0.502594 0.064080
C27   C     C_R   0.808026 0.490874 0.603179 0.104766
C28   C     C_R   0.192051 0.490191 0.397405 0.103774
C29   C     C_R   0.901290 0.493515 0.604477 0.050736
C30   C     C_R   0.098851 0.494291 0.396036 0.048632
C31   C     C_R   0.953188 0.497872 0.499814 0.017784
C32   C     C_R   0.046921 0.497285 0.500678 0.018380
C33   C     C_3   0.740934 0.478609 0.222309 -0.270497
C34   C     C_R   0.088301 0.503073 0.606113 0.013316
C35   C     C_3   0.260267 0.477730 0.777628 -0.270536
C36   C     C_3   0.732874 0.571413 0.764408 -0.295537
C37   C     C_3   0.258260 0.384391 0.252912 -0.280146
C38   C     C_2   0.413138 0.745122 0.684632 0.635784
C39   C     C_2   0.628519 0.259750 0.363196 0.629428
C40   C     C_2   0.586570 0.745405 0.315177 0.637202
C41   C     C_2   0.371249 0.259643 0.636392 0.627921
C42   C     C_2   0.705380 0.899354 0.307889 0.614281
C43   C     C_2   0.329875 0.092010 0.750973 0.631596
C44   C     C_2   0.294780 0.899462 0.692620 0.614699
C45   C     C_R   0.943928 0.491517 0.708416 -0.099387
C46   C     C_2   0.670482 0.092011 0.249379 0.630975
C47   C     C_R   0.056483 0.497239 0.291992 -0.101257
C48   C     C_R   0.035797 0.499147 0.709323 -0.133930
C49   C     C_R   0.964582 0.504856 0.291236 -0.132592
C50   C     C_R   0.448813 0.794411 0.580590 0.185532
Cu1   Cu    Cu3+1 0.500000 0.597420 0.500000 1.062119
Cu2   Cu    Cu3+1 0.500000 0.402580 0.500000 1.031955
H1    H     H_    0.906584 0.486285 0.790127 0.154185
H2    H     H_    0.210699 0.422198 0.804644 0.137548
H3    H     H_    0.284745 0.512725 0.855257 0.153892
H4    H     H_    0.317786 0.444981 0.730527 0.208204
H5    H     H_    0.701629 0.436510 0.704398 0.275379
H6    H     H_    0.687402 0.613621 0.712297 0.182769
H7    H     H_    0.793647 0.614102 0.777607 0.166560
H8    H     H_    0.699087 0.556998 0.849628 0.148372
H9    H     H_    0.302100 0.521676 0.287392 0.260716
H10   H     H_    0.298012 0.343886 0.313984 0.196688
H11   H     H_    0.294786 0.384911 0.167609 0.153082
H12   H     H_    0.094176 0.496150 0.210260 0.154744
H13   H     H_    0.193480 0.347867 0.244233 0.168339
H14   H     H_    0.421237 0.725152 0.854849 0.347012
H15   H     H_    0.757586 0.299579 0.350551 0.335757
H16   H     H_    0.578445 0.726165 0.144867 0.344464
H17   H     H_    0.242160 0.299459 0.648378 0.336709
H18   H     H_    0.814060 0.820683 0.337309 0.355083
H19   H     H_    0.330215 0.143207 0.912372 0.357469
H20   H     H_    0.185758 0.821335 0.663509 0.355563
H21   H     H_    0.670516 0.143079 0.087842 0.361613
H22   H     H_    0.065263 0.499544 0.791778 0.120829
H23   H     H_    0.935352 0.507905 0.208713 0.120324
H24   H     H_    0.813982 0.601562 0.250258 0.273394
H25   H     H_    0.791753 0.424463 0.194951 0.139371
H26   H     H_    0.715977 0.513629 0.144926 0.150369
H27   H     H_    0.683975 0.444144 0.268742 0.208132
H28   H     H_    0.184311 0.598908 0.751601 0.273473
N1    N     N_R   0.500000 0.743810 0.500000 -0.294961
N2    N     N_R   0.500000 0.256190 0.500000 -0.295609
N3    N     N_2   0.778051 0.549646 0.295256 -0.479667
N4    N     N_2   0.221420 0.548440 0.705721 -0.479269
N5    N     N_2   0.755471 0.481672 0.708276 -0.533538
N6    N     N_2   0.244553 0.481645 0.292188 -0.537704
O1    O     O_R   0.370260 0.582280 0.500020 -0.456447
O2    O     O_R   0.451778 0.761899 0.788925 -0.675530
O3    O     O_2   0.614440 0.289639 0.267554 -0.516018
O4    O     O_R   0.713334 0.266437 0.405730 -0.663899
O5    O     O_2   0.651125 0.693128 0.318690 -0.469670
O6    O     O_R   0.548014 0.762789 0.210945 -0.669964
O7    O     O_2   0.385083 0.289639 0.732020 -0.514187
O8    O     O_R   0.286538 0.266196 0.593506 -0.675799
O9    O     O_2   0.722050 0.899369 0.204094 -0.452335
O10   O     O_R   0.761712 0.852217 0.380670 -0.657907
O11   O     O_2   0.249745 0.104264 0.746030 -0.460634
O12   O     O_R   0.629740 0.417720 0.499980 -0.500167
O13   O     O_R   0.372509 0.115179 0.850634 -0.622807
O14   O     O_2   0.278429 0.899216 0.796478 -0.450167
O15   O     O_R   0.238076 0.852793 0.619990 -0.654635
O16   O     O_2   0.750580 0.104277 0.254625 -0.458983
O17   O     O_R   0.628091 0.115086 0.149473 -0.623215
O18   O     O_R   0.629740 0.582280 0.499980 -0.462796
O19   O     O_R   0.370260 0.417720 0.500020 -0.505659
O20   O     O_R   0.500010 0.582270 0.337200 -0.485109
O21   O     O_R   0.499990 0.417730 0.662800 -0.474319
O22   O     O_R   0.499990 0.582270 0.662800 -0.492799
O23   O     O_R   0.500010 0.417730 0.337200 -0.479751
O24   O     O_2   0.348385 0.693163 0.680908 -0.465822

loop_
_geom_bond_atom_site_label_1
_geom_bond_atom_site_label_2
_ccdc_geom_bond_type
C1    O1    A    
C27   C29   A    
H28   N4    S    
C36   H7    S    
C37   H10   S    
C47   C49   A    
C46   O16   D    
C42   O10   S    
C19   C21   T    
C43   O13   S    
C5    C11   A    
C36   H6    S    
C17   O21   A    
H14   O2    S    
C33   H26   S    
C23   C49   A    
H20   O15   S    
C11   C42   S    
C27   N5    S    
C17   C19   S    
C11   C15   A    
C2    C39   S    
C7    C14   A    
C41   O7    D    
C41   O8    S    
Cu2   O21   S    
Cu1   O22   S    
C22   C25   A    
C37   H13   S    
C3    N1    A    
C49   H23   S    
C38   O24   D    
C9    C10   A    
Cu1   N1    S    
C39   O4    S    
C12   O12   A    
C16   O20   A    
C45   H1    S    
C13   C14   A    
C35   H2    S    
H24   N3    S    
C37   H11   S    
C1    O19   A    
C16   O23   A    
C35   H3    S    
C42   O9    D    
C48   H22   S    
C30   C47   A    
C4    C6    A    
H17   O8    S    
H9    N6    S    
C17   O22   A    
Cu1   O1    S    
C47   H12   S    
C33   H27   S    
C3    C5    A    
Cu1   O18   S    
H19   O13   S    
H15   O4    S    
C24   C34   A    
Cu1   Cu2   S    
C29   C45   A    
C32   C34   A    
H18   O10   S    
C5    C9    A    
C37   N6    S    
C31   C32   A    
C44   O15   S    
C40   O6    S    
Cu2   N2    S    
C33   N3    S    
C16   C18   S    
Cu2   O19   S    
C8    C15   A    
C28   N6    S    
C1    C26   S    
C2    N2    A    
C34   C48   A    
C13   C43   S    
C14   C44   S    
C45   C48   A    
C7    C9    A    
C35   H4    S    
C2    C8    A    
C43   O11   D    
C7    C50   A    
C24   C26   A    
C36   H8    S    
C3    C40   S    
C35   N4    S    
C12   O18   A    
C38   C50   S    
C36   N5    S    
C25   C27   A    
C46   O17   S    
C26   C28   A    
C12   C25   S    
C22   N3    S    
C28   C30   A    
C24   N4    S    
C29   C31   A    
C6    C13   A    
C30   C32   A    
C44   O14   D    
C33   H25   S    
Cu2   O23   S    
Cu1   O20   S    
Cu2   O12   S    
H16   O6    S    
H5    N5    S    
C18   C20   T    
C40   O5    D    
C6    C10   A    
H21   O17   S    
C4    N2    A    
C20   C21   S    
C8    C10   A    
C4    C41   S    
C38   O2    S    
C22   C23   A    
C15   C46   S    
C39   O3    D    
C50   N1    A    
C23   C31   A    
