data_mof_unit_25566.cif
_audit_creation_date              2012-12-11T14:46:08-0500
_audit_creation_method            fapswitch 2.2
_symmetry_space_group_name_H-M    P1
_symmetry_Int_Tables_number       1
_space_group_crystal_system       triclinic
_cell_length_a                    10.897484
_cell_length_b                    10.959595
_cell_length_c                    18.838836
_cell_angle_alpha                 89.989486
_cell_angle_beta                  90.307639
_cell_angle_gamma                 119.618645
_cell_volume                      1955.93102776

loop_
_atom_site_label
_atom_site_type_symbol
_atom_type_description
_atom_site_fract_x
_atom_site_fract_y
_atom_site_fract_z
_atom_type_partial_charge
C1    C     C_R   0.865960 0.636235 0.604174 0.530267
C2    C     C_R   0.958811 0.175448 0.712039 -0.033756
C3    C     C_R   0.939824 0.172202 0.785912 -0.011723
C4    C     C_R   0.271759 0.632443 0.603379 0.547830
C5    C     C_R   0.703313 0.074789 0.694186 -0.053642
C6    C     C_R   0.683219 0.069478 0.767474 -0.056439
C7    C     C_R   0.585389 0.022561 0.648304 -0.090387
C8    C     C_R   0.454230 0.998297 0.670910 0.311539
C9    C     C_R   0.432496 0.002771 0.744793 0.277239
C10   C     C_R   0.545166 0.031523 0.791301 -0.138741
C11   C     C_R   0.840822 0.141172 0.666667 -0.025554
C12   C     C_R   0.503626 0.719560 0.763231 -0.134965
C13   C     C_R   0.748993 0.528033 0.717299 -0.122092
C14   C     C_R   0.737757 0.540368 0.790063 -0.125748
C15   C     C_R   0.805769 0.673459 0.820864 0.022789
C16   C     C_R   0.861733 0.221698 0.600796 0.536131
C17   C     C_R   0.875077 0.794046 0.778149 -0.130923
C18   C     C_R   0.880580 0.781955 0.705683 -0.151908
C19   C     C_R   0.823422 0.649208 0.675214 0.011387
C20   C     C_R   0.247139 0.538078 0.275259 -0.134263
C21   C     C_R   0.263438 0.554544 0.202812 -0.137425
C22   C     C_R   0.335640 0.689267 0.173923 0.030500
C23   C     C_R   0.461246 0.699959 0.692592 -0.140684
C24   C     C_R   0.378906 0.807600 0.217850 -0.132084
C25   C     C_R   0.358769 0.790589 0.290936 -0.136773
C26   C     C_R   0.298165 0.655733 0.319937 0.036719
C27   C     C_R   0.759853 0.220272 0.278035 -0.128748
C28   C     C_R   0.864479 0.639200 0.398050 0.548855
C29   C     C_R   0.761341 0.211001 0.205517 -0.127696
C30   C     C_R   0.848786 0.167997 0.172956 0.023805
C31   C     C_R   0.946823 0.149999 0.213777 -0.148206
C32   C     C_R   0.948949 0.164520 0.287350 -0.151791
C33   C     C_R   0.852460 0.196173 0.319794 0.033755
C34   C     C_R   0.323538 0.667108 0.675361 0.046042
C35   C     C_R   0.907677 0.784581 0.293611 -0.150975
C36   C     C_R   0.904039 0.790627 0.221179 -0.176093
C37   C     C_R   0.806828 0.674038 0.181348 0.053220
C38   C     C_R   0.707650 0.550143 0.215653 0.263948
C39   C     C_R   0.718260 0.542702 0.289785 -0.128548
C40   C     C_R   0.265849 0.630704 0.394867 0.545655
C41   C     C_R   0.821329 0.658424 0.328012 -0.010639
C42   C     C_R   0.775212 0.054952 0.887365 0.524769
C43   C     C_R   0.455082 0.722216 0.889423 0.533030
C44   C     C_R   0.795361 0.694849 0.895824 0.533314
C45   C     C_R   0.801425 0.105180 0.813593 -0.001796
C46   C     C_R   0.809296 0.108628 0.102042 0.557164
C47   C     C_R   0.394763 0.705049 0.103381 0.554344
C48   C     C_R   0.796005 0.697903 0.106245 0.580818
C49   C     C_R   0.863593 0.233072 0.394429 0.543639
C50   C     C_R   0.227709 0.651868 0.728708 -0.077904
C51   C     C_R   0.270239 0.670893 0.799410 -0.072189
C52   C     C_R   0.408944 0.706315 0.816396 0.028712
C53   C     C_3   0.237672 0.979254 0.635519 -0.051248
C54   C     C_3   0.295374 0.039751 0.827431 -0.130529
C55   C     C_3   0.478396 0.363465 0.206215 -0.122492
C56   C     C_R   0.060348 0.242977 0.829898 -0.154541
C57   C     C_3   0.391240 0.350653 0.643379 -0.101426
C58   C     C_R   0.195430 0.294994 0.802771 -0.098707
C59   C     C_R   0.216016 0.277006 0.731571 0.281228
C60   C     C_R   0.095988 0.215565 0.686145 -0.083561
Cr1   Cr    Cr6+3 0.791660 0.390250 0.499930 1.006737
Cr2   Cr    Cr6+3 0.098520 0.708290 0.500540 1.034849
Cr3   Cr    Cr6+3 0.109770 0.401430 0.499480 0.988432
Cr4   Cr    Cr6+3 0.874790 0.925890 0.000070 0.994153
Cr5   Cr    Cr6+3 0.574120 0.948670 0.999300 0.999972
Cr6   Cr    Cr6+3 0.551420 0.625320 0.000920 1.032208
H1    H     H_    0.119672 0.622875 0.715592 0.122132
H2    H     H_    0.195776 0.657920 0.840603 0.137865
H3    H     H_    0.393783 0.881915 0.324763 0.119154
H4    H     H_    0.687030 0.249090 0.301103 0.133592
H5    H     H_    0.685947 0.227677 0.175415 0.175935
H6    H     H_    0.017066 0.119326 0.189288 0.112852
H7    H     H_    0.024940 0.150905 0.318678 0.110132
H8    H     H_    0.986606 0.876160 0.321988 0.139253
H9    H     H_    0.977956 0.888848 0.196569 0.140249
H10   H     H_    0.652551 0.445037 0.317022 0.117213
H11   H     H_    0.610397 0.746912 0.776573 0.111286
H12   H     H_    0.596935 0.007955 0.592300 0.149182
H13   H     H_    0.535288 0.710665 0.651613 0.099539
H14   H     H_    0.285288 0.344006 0.838480 0.147623
H15   H     H_    0.052339 0.262524 0.885415 0.156661
H16   H     H_    0.106027 0.189561 0.632248 0.111085
H17   H     H_    0.517776 0.022284 0.845670 0.180768
H18   H     H_    0.266913 0.073534 0.667379 0.173077
H19   H     H_    0.161305 0.884573 0.664659 0.203053
H20   H     H_    0.186575 0.988584 0.586354 0.117303
H21   H     H_    0.376282 0.152578 0.821754 0.143054
H22   H     H_    0.308108 0.998241 0.879053 0.128612
H23   H     H_    0.706876 0.423870 0.694902 0.149006
H24   H     H_    0.190357 0.032704 0.828039 0.152446
H25   H     H_    0.399450 0.304867 0.164043 0.140482
H26   H     H_    0.447013 0.435645 0.231563 0.124223
H27   H     H_    0.474132 0.285244 0.245057 0.093734
H28   H     H_    0.318745 0.279074 0.602205 0.089022
H29   H     H_    0.493590 0.355727 0.633171 0.141052
H30   H     H_    0.409706 0.458041 0.637353 0.166170
H31   H     H_    0.681306 0.447100 0.822277 0.130927
H32   H     H_    0.922814 0.898603 0.800661 0.141051
H33   H     H_    0.935507 0.876164 0.673985 0.108503
H34   H     H_    0.193964 0.432529 0.296332 0.138342
H35   H     H_    0.227786 0.461892 0.169858 0.126614
H36   H     H_    0.435704 0.912900 0.196466 0.133875
O1    O     O_R   0.766500 0.250040 0.579790 -0.516871
O2    O     O_R   0.413330 0.603360 0.920440 -0.518330
O3    O     O_R   0.676110 0.626250 0.926750 -0.515585
O4    O     O_R   0.798570 0.516780 0.574780 -0.512595
O5    O     O_R   0.895350 0.809870 0.080950 -0.538993
O6    O     O_R   0.872490 0.049760 0.073800 -0.503560
O7    O     O_R   0.691680 0.088070 0.079070 -0.516398
O8    O     O_R   0.451720 0.825250 0.074050 -0.501959
O9    O     O_R   0.413580 0.606370 0.080960 -0.511791
O10   O     O_R   0.676340 0.629040 0.075550 -0.444962
O11   O     O_3   0.666780 0.833290 0.000090 -0.281356
O12   O     O_R   0.218690 0.701900 0.425960 -0.492766
O13   O     O_R   0.984000 0.732950 0.581090 -0.545255
O14   O     O_R   0.218600 0.700890 0.574760 -0.449298
O15   O     O_R   0.249390 0.515350 0.579940 -0.547279
O16   O     O_R   0.982790 0.280900 0.573700 -0.512760
O17   O     O_R   0.766600 0.251130 0.419260 -0.528389
O18   O     O_R   0.798660 0.517790 0.425980 -0.510636
O19   O     O_R   0.984100 0.734040 0.420570 -0.520760
O20   O     O_3   0.355155 0.966489 0.616749 -0.575330
O21   O     O_3   0.297214 0.955661 0.771084 -0.600906
O22   O     O_3   0.613191 0.435806 0.174798 -0.563317
O23   O     O_R   0.249490 0.516440 0.419420 -0.532656
O24   O     O_3   0.351070 0.303633 0.713539 -0.604565
O25   O     O_R   0.982880 0.281910 0.424890 -0.511365
O26   O     O_3   0.999980 0.499990 0.499980 -0.244664
O27   O     O_R   0.895110 0.806860 0.920430 -0.526892
O28   O     O_R   0.872260 0.046970 0.925000 -0.512237
O29   O     O_R   0.691430 0.085060 0.918550 -0.537532
O30   O     O_R   0.451490 0.822460 0.925250 -0.524914

loop_
_geom_bond_atom_site_label_1
_geom_bond_atom_site_label_2
_ccdc_geom_bond_type
Cr2   O26   S    
C54   O21   S    
C35   H8    S    
Cr6   O11   S    
Cr1   O17   S    
C10   H17   S    
C35   C36   A    
C55   H27   S    
C26   C40   S    
C56   H15   S    
C39   C41   A    
C49   O17   A    
C54   H21   S    
C27   C33   A    
C59   O24   S    
C12   C23   A    
C29   C30   A    
C14   H31   S    
C53   H18   S    
C43   O30   A    
Cr1   O1    S    
C15   C44   S    
C54   H24   S    
C53   O20   S    
C30   C31   A    
Cr3   O15   S    
C2    C60   A    
C43   C52   S    
C48   O5    A    
C27   C29   A    
C33   C49   S    
C28   C41   S    
C18   C19   A    
C3    C56   A    
C43   O2    A    
C55   H25   S    
C12   C52   A    
C60   H16   S    
C40   O12   A    
C8    C9    A    
C57   H30   S    
C46   O6    A    
C42   O29   A    
Cr6   O9    S    
C9    C10   A    
Cr2   O12   S    
Cr3   O26   S    
C58   H14   S    
C1    O4    A    
C21   H35   S    
C22   C47   S    
C59   C60   A    
C13   C14   A    
Cr1   O18   S    
C2    C11   A    
Cr5   O29   S    
C4    O14   A    
Cr4   O6    S    
C38   C39   A    
C49   O25   A    
C4    C34   S    
C34   C50   A    
C1    C19   S    
C13   C19   A    
C6    C45   A    
C51   C52   A    
Cr6   O2    S    
C7    C8    A    
C24   C25   A    
C28   O18   A    
C32   H7    S    
C5    C7    A    
Cr3   O16   S    
C28   O19   A    
C50   C51   A    
C44   O27   A    
C44   O3    A    
C3    C45   A    
C50   H1    S    
C42   C45   S    
Cr2   O14   S    
C37   C38   A    
C36   H9    S    
C16   O16   A    
C11   C16   S    
C16   O1    A    
C31   C32   A    
C20   H34   S    
C23   C34   A    
C12   H11   S    
C17   C18   A    
C42   O28   A    
C39   H10   S    
Cr4   O27   S    
C37   C48   S    
Cr1   O4    S    
Cr5   O7    S    
Cr3   O23   S    
C27   H4    S    
C7    H12   S    
C31   H6    S    
C48   O10   A    
C55   H26   S    
Cr4   O28   S    
C57   H28   S    
C22   C24   A    
C4    O15   A    
C58   C59   A    
C25   H3    S    
C18   H33   S    
Cr6   O3    S    
C57   O24   S    
Cr5   O30   S    
Cr4   O5    S    
C17   H32   S    
C15   C17   A    
C55   O22   S    
C36   C37   A    
Cr4   O11   S    
C13   H23   S    
Cr5   O11   S    
C30   C46   S    
C6    C10   A    
C53   H20   S    
C5    C11   A    
C47   O8    A    
C23   H13   S    
C32   C33   A    
C2    C3    A    
C25   C26   A    
Cr2   O13   S    
C54   H22   S    
C8    O20   S    
C5    C6    A    
C20   C26   A    
C47   O9    A    
C40   O23   A    
C9    O21   S    
C56   C58   A    
Cr1   O26   S    
C24   H36   S    
C51   H2    S    
C35   C41   A    
Cr3   O25   S    
Cr5   O8    S    
C20   C21   A    
C57   H29   S    
C46   O7    A    
C14   C15   A    
C53   H19   S    
C1    O13   A    
Cr6   O10   S    
C21   C22   A    
Cr2   O19   S    
C38   O22   S    
C29   H5    S    
