data_mof_unit_65667.cif
_audit_creation_date              2012-12-10T21:21:41-0500
_audit_creation_method            fapswitch 2.2
_symmetry_space_group_name_H-M    P1
_symmetry_Int_Tables_number       1
_space_group_crystal_system       triclinic
_cell_length_a                    17.503984
_cell_length_b                    16.946429
_cell_length_c                    23.40582
_cell_angle_alpha                 89.999504
_cell_angle_beta                  94.199451
_cell_angle_gamma                 89.999472
_cell_volume                      6924.22854197

loop_
_atom_site_label
_atom_site_type_symbol
_atom_type_description
_atom_site_fract_x
_atom_site_fract_y
_atom_site_fract_z
_atom_type_partial_charge
C1    C     C_R   0.354738 0.499952 0.507795 0.945236
C2    C     C_R   0.646051 0.499983 0.494171 0.944551
C3    C     C_R   0.551348 0.430434 0.245575 -0.143937
C4    C     C_R   0.448045 0.431277 0.754443 -0.147512
C5    C     C_R   0.552335 0.440509 0.304423 -0.121642
C6    C     C_R   0.447145 0.441215 0.695591 -0.131070
C7    C     C_R   0.504485 0.496523 0.327534 -0.123704
C8    C     C_R   0.495507 0.496690 0.672447 -0.107880
C9    C     C_R   0.456956 0.543635 0.291170 -0.189747
C10   C     C_R   0.543343 0.543561 0.708765 -0.196673
C11   C     C_R   0.459586 0.537430 0.232186 0.716652
C12   C     C_R   0.540654 0.537520 0.767756 0.708680
C13   C     C_R   0.505367 0.479128 0.208973 0.122717
C14   C     C_R   0.494430 0.479643 0.791009 0.131197
C15   C     C_R   0.847696 0.574607 0.494922 -0.176059
C16   C     C_R   0.152933 0.432123 0.529011 -0.218401
C17   C     C_R   0.157086 0.574000 0.534910 -0.175642
C18   C     C_R   0.850563 0.432429 0.500291 -0.218125
C19   C     C_R   0.768971 0.573163 0.481647 0.422670
C20   C     C_R   0.232327 0.428438 0.529283 0.358440
C21   C     C_R   0.236550 0.572984 0.535196 0.422318
C22   C     C_R   0.771944 0.428965 0.486863 0.362703
C23   C     C_R   0.728872 0.500389 0.485702 -0.322777
C24   C     C_R   0.274578 0.500210 0.524477 -0.334972
C25   C     C_R   0.887099 0.504845 0.506785 -0.021418
C26   C     C_R   0.116068 0.504323 0.529567 -0.022543
C27   C     C_R   0.500376 0.499628 0.389337 0.950910
C28   C     C_R   0.499670 0.499648 0.610662 0.941342
C29   C     C_1   0.967400 0.506649 0.517635 0.050452
C30   C     C_1   0.035313 0.506482 0.524480 0.048184
C31   C     C_R   0.460918 0.834976 0.456857 -0.278812
C32   C     C_R   0.537453 0.165730 0.544165 -0.236604
C33   C     C_R   0.539081 0.834925 0.543238 -0.242687
C34   C     C_R   0.462379 0.165708 0.455954 -0.236808
C35   C     C_R   0.460225 0.751339 0.456761 0.492312
C36   C     C_R   0.538594 0.249299 0.544122 0.535300
C37   C     C_R   0.539721 0.751281 0.543306 0.555075
C38   C     C_R   0.461298 0.249279 0.455943 0.530439
C39   C     C_R   0.500000 0.877436 0.500057 -0.021352
C40   C     C_R   0.499919 0.123288 0.500067 -0.031718
C41   C     C_1   0.499978 0.964247 0.500075 0.074973
C42   C     C_1   0.499946 0.036484 0.500074 0.080046
C43   C     C_R   0.564317 0.458371 0.882766 0.610138
C44   C     C_R   0.435362 0.458410 0.117196 0.610955
C45   C     C_R   0.427920 0.471105 0.877981 0.538492
C46   C     C_R   0.571852 0.470037 0.122016 0.540216
C47   C     C_R   0.428121 0.463133 0.937408 -0.025168
C48   C     C_R   0.571593 0.462283 0.062570 -0.025570
C49   C     C_R   0.498878 0.459334 0.969934 -0.013700
C50   C     C_R   0.500810 0.459191 0.030034 -0.013737
C51   C     C_R   0.567735 0.457265 0.942544 -0.041037
C52   C     C_R   0.431938 0.457547 0.057418 -0.041180
C53   C     C_R   0.359622 0.461093 0.965062 -0.124973
C54   C     C_R   0.640075 0.459821 0.034910 -0.124139
C55   C     C_R   0.361530 0.456821 0.024567 -0.117570
C56   C     C_R   0.638135 0.455835 0.975393 -0.119365
H1    H     H_    0.304465 0.462946 0.940889 0.201958
H2    H     H_    0.695244 0.461133 0.059086 0.202405
H3    H     H_    0.307785 0.455562 0.044728 0.204514
H4    H     H_    0.691869 0.454233 0.955227 0.203801
H5    H     H_    0.586122 0.384507 0.228459 0.200388
H6    H     H_    0.412875 0.385715 0.771590 0.198413
H7    H     H_    0.588842 0.402934 0.331979 0.222117
H8    H     H_    0.410225 0.404012 0.668077 0.217796
H9    H     H_    0.415610 0.582797 0.307919 0.247487
H10   H     H_    0.584893 0.582458 0.691963 0.235149
H11   H     H_    0.878837 0.629880 0.494397 0.208469
H12   H     H_    0.119311 0.378361 0.528601 0.207323
H13   H     H_    0.126781 0.629234 0.539153 0.210628
H14   H     H_    0.883996 0.378537 0.503808 0.206853
H15   H     H_    0.431568 0.867953 0.422229 0.216607
H16   H     H_    0.565805 0.132878 0.579288 0.222424
H17   H     H_    0.568443 0.867872 0.577875 0.223818
H18   H     H_    0.434000 0.132841 0.420849 0.222539
N1    N     N_R   0.495491 0.469059 0.851822 -0.341272
N2    N     N_R   0.504260 0.468486 0.148164 -0.341469
N3    N     N_R   0.500000 0.707230 0.500000 -0.190517
N4    N     N_R   0.500000 0.292770 0.500000 -0.203683
O1    O     O_R   0.389110 0.566570 0.500000 -0.539249
O2    O     O_R   0.610890 0.433430 0.500000 -0.547562
O3    O     O_R   0.610890 0.566570 0.500000 -0.545030
O4    O     O_R   0.389110 0.433430 0.500000 -0.542609
O5    O     O_R   0.499970 0.566560 0.416150 -0.556160
O6    O     O_R   0.500030 0.433440 0.583850 -0.569088
O7    O     O_R   0.500030 0.566560 0.583850 -0.550739
O8    O     O_R   0.499970 0.433440 0.416150 -0.570645
O9    O     O_2   0.629250 0.449163 0.855716 -0.498821
O10   O     O_2   0.370362 0.449618 0.144228 -0.495741
O11   O     O_2   0.360909 0.482512 0.846753 -0.532577
O12   O     O_2   0.638947 0.480777 0.153272 -0.529716
Zn1   Zn    Zn3+2 0.500000 0.588860 0.500000 1.174260
Zn2   Zn    Zn3+2 0.500000 0.411140 0.500000 1.162031
S1    S     S_3+6 0.412048 0.712028 0.394065 0.092608
O13   O     O_2   0.471351 0.699654 0.351727 -0.251326
O14   O     O_2   0.370031 0.636661 0.403589 -0.279032
O15   O     O_3   0.347778 0.777376 0.365332 -0.503272
H19   H     H_    0.308192 0.781332 0.393353 0.379085
S2    S     S_3+6 0.588450 0.289587 0.606512 0.091529
O16   O     O_2   0.630804 0.364400 0.596005 -0.254306
O17   O     O_2   0.531787 0.303563 0.650590 -0.305675
O18   O     O_3   0.653213 0.223562 0.633604 -0.528445
H20   H     H_    0.673005 0.245930 0.670898 0.398655
S3    S     S_3+6 0.587768 0.711927 0.606035 0.073618
O19   O     O_2   0.528405 0.699579 0.648368 -0.296494
O20   O     O_2   0.629906 0.636760 0.596163 -0.284448
O21   O     O_3   0.652249 0.777498 0.634172 -0.531216
H21   H     H_    0.669432 0.755908 0.672300 0.400848
S4    S     S_3+6 0.411488 0.289502 0.393514 0.093372
O22   O     O_2   0.369556 0.364651 0.403780 -0.244328
O23   O     O_2   0.468137 0.302846 0.349333 -0.310086
O24   O     O_3   0.346343 0.223663 0.366720 -0.526423
H22   H     H_    0.326815 0.245721 0.329261 0.399962
F1    F     F_    0.416368 0.587092 0.197701 -0.595023
F2    F     F_    0.584222 0.586921 0.802206 -0.607911
S5    S     S_3+6 0.727223 0.661022 0.452201 0.065033
O25   O     O_2   0.661962 0.642098 0.409000 -0.278419
O26   O     O_2   0.698981 0.710784 0.499338 -0.250740
O27   O     O_3   0.793717 0.712435 0.419505 -0.530660
H23   H     H_    0.767229 0.761203 0.405634 0.401608
S6    S     S_3+6 0.272651 0.333039 0.541757 0.066402
O28   O     O_2   0.284966 0.294505 0.485495 -0.180042
O29   O     O_2   0.347317 0.336709 0.577645 -0.319959
O30   O     O_3   0.211688 0.276425 0.576093 -0.504610
H24   H     H_    0.209203 0.301351 0.614199 0.359009
S7    S     S_3+6 0.283448 0.662593 0.555987 0.050813
O31   O     O_2   0.354722 0.646162 0.593884 -0.272506
O32   O     O_2   0.303599 0.706739 0.503571 -0.297604
O33   O     O_3   0.224776 0.719231 0.592406 -0.533475
H25   H     H_    0.254106 0.768258 0.601271 0.399795
S8    S     S_3+6 0.735137 0.335882 0.463246 0.074116
O34   O     O_2   0.713143 0.288745 0.513726 -0.185485
O35   O     O_2   0.666822 0.344664 0.420989 -0.317966
O36   O     O_3   0.803420 0.285709 0.431609 -0.499004
H26   H     H_    0.814001 0.317657 0.397632 0.360426

loop_
_geom_bond_atom_site_label_1
_geom_bond_atom_site_label_2
_ccdc_geom_bond_type
C18   H14   S    
C17   H13   S    
O18   H20   S    
C55   H3    S    
C28   O6    A    
S5    O26   D    
C41   C42   T    
S8    O35   D    
O24   H22   S    
C20   S6    S    
O33   H25   S    
C46   N2    A    
O7    Zn1   S    
O4    Zn2   S    
O30   H24   S    
C39   C41   S    
C15   C19   A    
S1    O13   D    
C10   H10   S    
C34   C40   A    
C17   C26   A    
C32   C36   A    
C15   C25   A    
O21   H21   S    
C3    H5    S    
S5    O25   D    
S2    O16   D    
C4    H6    S    
C7    C27   S    
S4    O22   D    
C5    H7    S    
C51   C56   A    
C45   C47   A    
C6    H8    S    
C44   N2    A    
O27   H23   S    
C20   C24   A    
C31   C39   A    
C49   C51   A    
S7    O33   S    
C50   C52   A    
C16   H12   S    
C45   O11   S    
O1    Zn1   S    
C3    C13   A    
S6    O30   S    
C47   C53   A    
C44   C52   A    
C35   S1    S    
S1    O14   D    
C34   C38   A    
C22   S8    S    
C43   N1    A    
C18   C25   A    
S6    O29   D    
C54   C56   A    
C53   C55   A    
C25   C29   S    
C46   C48   A    
C48   C54   A    
C4    C6    A    
C5    C7    A    
C53   H1    S    
C6    C8    A    
C38   N4    A    
N4    Zn2   S    
C1    O4    A    
C37   N3    A    
C35   N3    A    
C33   C37   A    
C56   H4    S    
O2    Zn2   S    
C27   O8    A    
C19   C23   A    
C29   C30   T    
C13   N2    S    
C19   S5    S    
C16   C20   A    
S5    O27   S    
C15   H11   S    
O15   H19   S    
S3    O20   D    
C33   C39   A    
C48   C50   A    
C9    C11   A    
C10   C12   A    
C34   H18   S    
C12   F2    S    
C33   H17   S    
C12   C14   A    
C26   C30   S    
S1    O15   S    
S2    O17   D    
S7    O31   D    
C1    O1    A    
C31   C35   A    
S8    O36   S    
C21   S7    S    
S3    O19   D    
S6    O28   D    
C37   S3    S    
C54   H2    S    
C7    C9    A    
N3    Zn1   S    
C18   C22   A    
C3    C5    A    
C16   C26   A    
C36   S2    S    
C52   C55   A    
C46   O12   S    
C47   C49   A    
S2    O18   S    
O5    Zn1   S    
S4    O24   S    
C45   N1    A    
C43   O9    S    
C14   N1    S    
C27   O5    A    
S8    O34   D    
C4    C14   A    
C36   N4    A    
C11   C13   A    
C43   C51   A    
O36   H26   S    
C8    C28   S    
C40   C42   S    
S4    O23   D    
S3    O21   S    
C32   C40   A    
C38   S4    S    
C11   F1    S    
C9    H9    S    
C28   O7    A    
C2    O2    A    
O3    Zn1   S    
C1    C24   S    
C8    C10   A    
C49   C50   A    
C21   C24   A    
C2    C23   S    
S7    O32   D    
C22   C23   A    
C2    O3    A    
O8    Zn2   S    
O6    Zn2   S    
C44   O10   S    
C31   H15   S    
C32   H16   S    
C17   C21   A    
