data_mof_unit_13994.cif
_audit_creation_date              2012-12-11T16:37:20-0500
_audit_creation_method            fapswitch 2.2
_symmetry_space_group_name_H-M    P1
_symmetry_Int_Tables_number       1
_space_group_crystal_system       triclinic
_cell_length_a                    19.450835
_cell_length_b                    7.001256
_cell_length_c                    17.878342
_cell_angle_alpha                 90.24289
_cell_angle_beta                  108.436179
_cell_angle_gamma                 89.902731
_cell_volume                      2309.7004645

loop_
_atom_site_label
_atom_site_type_symbol
_atom_type_description
_atom_site_fract_x
_atom_site_fract_y
_atom_site_fract_z
_atom_type_partial_charge
O1    O     O_R   0.561710 0.369960 0.440200 -0.541099
O2    O     O_R   0.061710 0.630040 0.940200 -0.540268
O3    O     O_R   0.412630 0.033330 0.406330 -0.545769
O4    O     O_R   0.912630 0.966670 0.906330 -0.548905
O5    O     O_R   0.438290 0.869790 0.559800 -0.531728
O6    O     O_R   0.938290 0.130210 0.059800 -0.536301
C1    C     C_R   0.384266 0.204976 0.382920 0.715300
C2    C     C_R   0.884227 0.795082 0.882977 0.693862
O7    O     O_R   0.559570 0.039810 0.430640 -0.549965
O8    O     O_R   0.059570 0.960190 0.930640 -0.549298
O9    O     O_R   0.586280 0.876320 0.584290 -0.541711
O10   O     O_R   0.086280 0.123680 0.084290 -0.539326
C3    C     C_R   0.581646 0.208399 0.416397 0.678479
C4    C     C_R   0.081551 0.790821 0.916686 0.681063
O11   O     O_R   0.413720 0.363440 0.415710 -0.539019
O12   O     O_R   0.913720 0.636560 0.915710 -0.540107
O13   O     O_3   0.508590 0.205630 0.550380 -0.369840
O14   O     O_3   0.008590 0.794370 0.050380 -0.356148
V1    V     V_3+5 0.498410 0.928130 0.490650 1.382346
V2    V     V_3+5 0.998410 0.071870 0.990650 1.378675
O15   O     O_R   0.587370 0.546990 0.593670 -0.547398
O16   O     O_R   0.087370 0.453010 0.093670 -0.548192
C5    C     C_R   0.614888 0.718848 0.615859 0.686035
C6    C     C_R   0.114824 0.281482 0.116025 0.685004
O17   O     O_R   0.440430 0.540520 0.569360 -0.522644
O18   O     O_R   0.940430 0.459480 0.069360 -0.518124
C7    C     C_R   0.422622 0.708695 0.588777 0.722358
C8    C     C_R   0.922842 0.290533 0.088599 0.710945
V3    V     V_3+5 0.501590 0.428960 0.509350 1.420182
V4    V     V_3+5 0.001590 0.571040 0.009350 1.421815
O19   O     O_3   0.491410 0.701330 0.449620 -0.400364
O20   O     O_3   0.991410 0.298670 0.949620 -0.398910
C9    C     C_R   0.320138 0.899928 0.723484 -0.135844
C10   C     C_R   0.792284 0.097780 0.189228 -0.148451
H1    H     H_    0.311939 0.038984 0.745969 0.110321
H2    H     H_    0.757692 0.973504 0.181665 0.103517
C11   C     C_R   0.366319 0.884824 0.677654 -0.131024
C12   C     C_R   0.837100 0.114004 0.141947 -0.128355
H3    H     H_    0.394962 0.004329 0.668868 0.175428
H4    H     H_    0.835091 0.001361 0.099647 0.166201
C13   C     C_R   0.379554 0.713025 0.645975 -0.133001
C14   C     C_R   0.879778 0.277658 0.144645 -0.135031
C15   C     C_R   0.352554 0.547119 0.671557 0.024837
C16   C     C_R   0.881049 0.419681 0.202177 -0.002976
C17   C     C_R   0.305154 0.558548 0.716550 -0.224179
C18   C     C_R   0.835398 0.402034 0.249259 -0.183596
H5    H     H_    0.282770 0.427879 0.731327 0.101139
H6    H     H_    0.836689 0.511994 0.292540 0.118758
C19   C     C_R   0.286515 0.736780 0.741210 0.064716
C20   C     C_R   0.788894 0.244411 0.241686 0.062672
C21   C     C_R   0.228666 0.605721 0.838222 -0.144307
C22   C     C_R   0.701510 0.401121 0.301717 -0.149119
H7    H     H_    0.263810 0.482114 0.848003 0.108783
H8    H     H_    0.712485 0.538423 0.280278 0.098641
C23   C     C_R   0.178508 0.618026 0.879294 -0.172784
C24   C     C_R   0.651130 0.392434 0.342921 -0.162448
H9    H     H_    0.176136 0.502813 0.918664 0.118023
H10   H     H_    0.625819 0.523703 0.353033 0.117646
C25   C     C_R   0.133271 0.778528 0.871229 -0.045854
C26   C     C_R   0.633380 0.216880 0.370207 -0.051356
C27   C     C_R   0.139204 0.926594 0.820883 -0.165320
C28   C     C_R   0.667524 0.050292 0.355155 -0.173697
H11   H     H_    0.104935 0.051828 0.813275 0.113809
H12   H     H_    0.655849 0.912725 0.375844 0.116569
C29   C     C_R   0.188587 0.912804 0.778580 -0.147134
C30   C     C_R   0.718322 0.059182 0.314456 -0.139892
H13   H     H_    0.190207 0.027152 0.738612 0.103418
H14   H     H_    0.744395 0.928270 0.305470 0.103146
C31   C     C_R   0.234166 0.752148 0.786725 0.104901
C32   C     C_R   0.736108 0.234764 0.287068 0.102714
C33   C     C_R   0.756237 0.653308 0.816086 0.023559
C34   C     C_R   0.256574 0.349118 0.316307 0.022630
C35   C     C_R   0.814694 0.773810 0.813836 -0.119895
C36   C     C_R   0.314920 0.227563 0.313662 -0.124986
C37   C     C_R   0.803852 0.876864 0.743618 -0.165468
C38   C     C_R   0.303977 0.124220 0.243174 -0.170902
H15   H     H_    0.847837 0.957586 0.735619 0.147627
H16   H     H_    0.347787 0.042145 0.235099 0.147934
C39   C     C_R   0.738079 0.865723 0.680486 -0.172900
C40   C     C_R   0.238126 0.135426 0.180203 -0.170722
H17   H     H_    0.733528 0.942080 0.626573 0.124422
H18   H     H_    0.233429 0.058494 0.126130 0.123778
C41   C     C_R   0.680776 0.747211 0.684749 -0.085269
C42   C     C_R   0.180818 0.254109 0.184868 -0.084346
C43   C     C_R   0.688511 0.655746 0.755514 0.048031
C44   C     C_R   0.188669 0.346328 0.255910 0.053555
C45   C     C_3   0.671283 0.453381 0.760408 -0.440605
C46   C     C_3   0.171320 0.548888 0.261292 -0.441733
C47   C     C_3   0.749682 0.435068 0.811143 0.015553
C48   C     C_3   0.249855 0.567566 0.311227 0.012441
H19   H     H_    0.655599 0.365450 0.706161 0.175822
H20   H     H_    0.154993 0.636048 0.207126 0.175604
H21   H     H_    0.630453 0.440373 0.791999 0.183900
H22   H     H_    0.131156 0.562565 0.293715 0.203488
C49   C     C_R   0.799242 0.356267 0.765517 0.066616
C50   C     C_R   0.868925 0.303519 0.809068 -0.073389
C51   C     C_R   0.922756 0.269420 0.773760 -0.120736
C52   C     C_R   0.906076 0.283450 0.692259 -0.154660
C53   C     C_R   0.835929 0.331509 0.646467 -0.130373
C54   C     C_R   0.783095 0.369620 0.682389 -0.105965
H23   H     H_    0.879071 0.292461 0.871014 0.169275
H24   H     H_    0.976944 0.228848 0.808853 0.136431
H25   H     H_    0.947243 0.255678 0.664647 0.122087
H26   H     H_    0.822716 0.343115 0.583118 0.119343
H27   H     H_    0.731101 0.415457 0.644017 0.110084
C55   C     C_R   0.298988 0.644257 0.264902 0.071997
C56   C     C_R   0.369103 0.694948 0.307922 -0.077297
C57   C     C_R   0.422503 0.727360 0.272042 -0.125286
C58   C     C_R   0.404944 0.713703 0.190381 -0.152400
C59   C     C_R   0.334347 0.667795 0.145080 -0.133963
C60   C     C_R   0.281913 0.631421 0.181623 -0.105191
H28   H     H_    0.379882 0.705795 0.369936 0.172061
H29   H     H_    0.477053 0.765871 0.306930 0.135488
H30   H     H_    0.445783 0.739996 0.162268 0.119349
H31   H     H_    0.320454 0.656521 0.081613 0.115186
H32   H     H_    0.229493 0.587341 0.143571 0.108287
C61   C     C_R   0.749356 0.331642 0.885800 0.072569
C62   C     C_R   0.749831 0.434226 0.953999 -0.125732
C63   C     C_R   0.722792 0.350622 0.009792 -0.112565
C64   C     C_R   0.698046 0.162010 0.000043 -0.095471
C65   C     C_R   0.702653 0.054393 0.936028 -0.135755
C66   C     C_R   0.727395 0.139250 0.878871 -0.131196
H33   H     H_    0.765785 0.582840 0.961569 0.102690
H34   H     H_    0.720213 0.432905 0.060240 0.120235
H35   H     H_    0.675988 0.098553 0.042603 0.110622
H36   H     H_    0.683708 0.908088 0.928623 0.112821
H37   H     H_    0.722795 0.061046 0.825409 0.135261
C67   C     C_R   0.250745 0.673837 0.386154 0.061197
C68   C     C_R   0.234398 0.869881 0.380872 -0.139084
C69   C     C_R   0.218045 0.965634 0.441801 -0.081158
C70   C     C_R   0.214173 0.864617 0.507335 -0.056769
C71   C     C_R   0.227719 0.668608 0.512212 -0.118991
C72   C     C_R   0.248633 0.574725 0.453756 -0.114503
H38   H     H_    0.228928 0.944599 0.326813 0.135794
H39   H     H_    0.204462 0.115761 0.436181 0.111407
H40   H     H_    0.198855 0.937004 0.553298 0.118598
H41   H     H_    0.220739 0.588342 0.560732 0.133419
H42   H     H_    0.258160 0.422722 0.459152 0.132612
C73   C     C_2   0.378960 0.362320 0.657192 0.718687
O21   O     O_2   0.344564 0.270123 0.599262 -0.583720
O22   O     O_R   0.449874 0.313272 0.702006 -0.671064
H43   H     H_    0.473477 0.216923 0.675578 0.292410
C74   C     C_2   0.932696 0.580557 0.219630 0.733240
O23   O     O_2   0.981016 0.586379 0.282988 -0.568117
O24   O     O_R   0.924462 0.729464 0.165894 -0.655300
H44   H     H_    0.962771 0.832027 0.185517 0.297577

loop_
_geom_bond_atom_site_label_1
_geom_bond_atom_site_label_2
_ccdc_geom_bond_type
C30   H14   S    
C45   H19   S    
C61   C62   A    
O13   V3    S    
C56   H28   S    
C46   C48   S    
C49   C50   A    
O4    C2    A    
V1    O19   S    
C67   C68   A    
C51   C52   A    
C3    C26   S    
C63   H34   S    
C4    C25   S    
O9    V1    S    
C54   H27   S    
C36   C38   A    
C12   H4    S    
C42   C44   A    
C12   C14   A    
C23   C25   A    
O24   H44   S    
C44   C46   S    
C74   O23   D    
C55   C56   A    
C9    C19   A    
C52   H25   S    
C57   C58   A    
C26   C28   A    
C8    C14   S    
C66   H37   S    
C27   H11   S    
O7    C3    A    
C62   C63   A    
C28   H12   S    
O13   V1    S    
C33   C43   A    
O7    V1    S    
O6    C8    A    
C46   H20   S    
O8    V2    S    
C71   C72   A    
C29   H13   S    
C56   C57   A    
O3    V1    S    
C60   H32   S    
O14   V4    S    
C21   C23   A    
C51   H24   S    
C40   C42   A    
C17   H5    S    
C53   H26   S    
C72   H42   S    
C2    O12   A    
O5    C7    A    
C50   H23   S    
C11   C13   A    
C13   C15   A    
C14   C16   A    
C22   H8    S    
O11   V3    S    
C1    C36   S    
C46   H22   S    
C55   C60   A    
C43   C45   S    
O17   V3    S    
C18   H6    S    
C10   C20   A    
C25   C27   A    
C28   C30   A    
C48   C55   S    
C34   C36   A    
C70   H40   S    
O8    C4    A    
C59   C60   A    
C39   H17   S    
C64   H35   S    
C1    O11   A    
C16   C18   A    
C71   H41   S    
O15   V3    S    
C9    C11   A    
C24   C26   A    
C21   H7    S    
C10   C12   A    
C57   H29   S    
C47   C49   S    
C61   C66   A    
C34   C48   S    
C7    C13   S    
C53   C54   A    
C33   C47   S    
C17   C19   A    
C63   C64   A    
C50   C51   A    
O10   V2    S    
O1    V3    S    
C15   C73   S    
C15   C17   A    
C65   C66   A    
C5    C41   S    
C58   H30   S    
C40   H18   S    
C41   C43   A    
C69   H39   S    
C47   C61   S    
O18   V4    S    
C23   H9    S    
O16   C6    A    
O1    C3    A    
C35   C37   A    
C70   C71   A    
C64   C65   A    
C33   C35   A    
C68   C69   A    
V2    O20   S    
C74   O24   S    
C18   C20   A    
O16   V4    S    
C49   C54   A    
O18   C8    A    
C38   C40   A    
C38   H16   S    
C34   C44   A    
C73   O21   D    
O5    V1    S    
O4    V2    S    
O17   C7    A    
O6    V2    S    
O10   C6    A    
O3    C1    A    
O2    V4    S    
O15   C5    A    
C69   C70   A    
C20   C32   S    
C65   H36   S    
V3    O19   S    
O22   H43   S    
V4    O20   S    
C73   O22   S    
C30   C32   A    
C37   C39   A    
C16   C74   S    
C29   C31   A    
C45   H21   S    
O9    C5    A    
C2    C35   S    
C9    H1    S    
C10   H2    S    
C24   H10   S    
O14   V2    S    
C62   H33   S    
C6    C42   S    
O2    C4    A    
C22   C32   A    
C68   H38   S    
C39   C41   A    
C27   C29   A    
C11   H3    S    
C52   C53   A    
C37   H15   S    
C58   C59   A    
C45   C47   S    
C48   C67   S    
C19   C31   S    
C21   C31   A    
C67   C72   A    
O12   V4    S    
C59   H31   S    
C22   C24   A    
