data_mof_unit_35638.cif
_audit_creation_date              2012-12-10T16:48:46-0500
_audit_creation_method            fapswitch 2.2
_symmetry_space_group_name_H-M    P1
_symmetry_Int_Tables_number       1
_space_group_crystal_system       triclinic
_cell_length_a                    17.190962
_cell_length_b                    8.667671
_cell_length_c                    7.511924
_cell_angle_alpha                 103.351245
_cell_angle_beta                  89.942617
_cell_angle_gamma                 93.876003
_cell_volume                      1086.4525505

loop_
_atom_site_label
_atom_site_type_symbol
_atom_type_description
_atom_site_fract_x
_atom_site_fract_y
_atom_site_fract_z
_atom_type_partial_charge
C1    C     C_R   0.497337 0.199821 0.453439 0.879656
C2    C     C_R   0.502650 0.800178 0.546564 0.879512
C3    C     C_2   0.495965 0.031346 0.427874 -0.271796
C4    C     C_2   0.504007 0.968652 0.572133 -0.271834
C5    C     C_R   0.351731 0.502556 0.526662 0.816936
C6    C     C_R   0.648267 0.497407 0.473333 0.816968
C7    C     C_R   0.268081 0.507157 0.548081 -0.119446
C8    C     C_R   0.731901 0.492426 0.451871 -0.119405
C9    C     C_R   0.219223 0.366099 0.493728 0.072808
C10   C     C_R   0.780889 0.633351 0.505668 0.072572
C11   C     C_R   0.138294 0.378090 0.505743 -0.120594
C12   C     C_R   0.861794 0.621006 0.493679 -0.120623
C13   C     C_R   0.107263 0.526306 0.569260 0.066492
C14   C     C_R   0.892672 0.472573 0.430813 0.066443
C15   C     C_R   0.156627 0.662454 0.632286 -0.200324
C16   C     C_R   0.843187 0.336517 0.368364 -0.200257
C17   C     C_R   0.236867 0.653952 0.621352 0.341141
C18   C     C_R   0.762967 0.345376 0.379223 0.341105
C19   C     C_2   0.023087 0.542714 0.567546 -0.191043
C20   C     C_2   0.976822 0.455915 0.432594 -0.191159
Cu1   Cu    Cu3+1 0.508700 0.517250 0.683000 1.125892
Cu2   Cu    Cu3+1 0.491300 0.482750 0.317000 1.125732
H1    H     H_    0.000383 0.365721 0.324819 0.152224
H2    H     H_    0.999490 0.632884 0.675297 0.152257
H3    H     H_    0.132659 0.776540 0.683843 0.161383
H4    H     H_    0.867042 0.222262 0.317301 0.161398
H5    H     H_    0.901398 0.725618 0.532911 0.144834
H6    H     H_    0.098801 0.273360 0.466037 0.144741
H7    H     H_    0.488395 0.958717 0.289376 0.211197
H8    H     H_    0.511577 0.041281 0.710631 0.211198
N1    N     N_2   0.478180 0.456750 0.041980 0.115363
N2    N     N_2   0.521820 0.543250 0.958020 0.115394
O1    O     O_R   0.505650 0.286040 0.618880 -0.556848
O2    O     O_R   0.494350 0.713960 0.381120 -0.556882
O3    O     O_R   0.490960 0.256910 0.309800 -0.555738
O4    O     O_R   0.509040 0.743090 0.690200 -0.555699
O5    O     O_R   0.394600 0.516230 0.672450 -0.526221
O6    O     O_R   0.605400 0.483770 0.327550 -0.526322
O7    O     O_R   0.379910 0.487100 0.363380 -0.570522
O8    O     O_R   0.620090 0.512900 0.636620 -0.570302
C21   C     C_3   0.255318 0.207305 0.424782 -0.360275
C22   C     C_3   0.198458 0.059501 0.383602 -0.755203
H9    H     H_    0.165433 0.049095 0.507966 0.253437
H10   H     H_    0.157639 0.063685 0.270576 0.237713
H11   H     H_    0.231674 0.951915 0.339905 0.274872
H12   H     H_    0.287951 0.211102 0.297900 0.232485
H13   H     H_    0.297884 0.191708 0.529545 0.234223
C23   C     C_3   0.744956 0.792384 0.573983 -0.360131
C24   C     C_3   0.801987 0.939934 0.615197 -0.755550
H14   H     H_    0.842684 0.935641 0.728420 0.237717
H15   H     H_    0.835139 0.950056 0.490910 0.253098
H16   H     H_    0.768901 0.047726 0.658639 0.275042
H17   H     H_    0.702565 0.807966 0.468850 0.234855
H18   H     H_    0.712150 0.788990 0.700731 0.232077
Cl1   Cl    Cl    0.702951 0.168468 0.307739 -0.624872
Cl2   Cl    Cl    0.296716 0.831017 0.693460 -0.624591
Cl3   Cl    Cl    0.406285 0.323465 0.924429 -0.467615
Cl4   Cl    Cl    0.593713 0.676538 0.075571 -0.467515

loop_
_geom_bond_atom_site_label_1
_geom_bond_atom_site_label_2
_ccdc_geom_bond_type
C2    C4    S    
C21   H12   S    
C5    C7    S    
C5    O5    A    
C8    C18   A    
C11   C13   A    
C21   C22   S    
C9    C21   S    
C19   C20   D    
C20   H1    S    
N2    Cl4   S    
C24   H16   S    
N1    Cl3   S    
C5    O7    A    
C19   H2    S    
C21   H13   S    
C1    O1    A    
Cu1   O4    S    
Cu1   Cu2   S    
C23   H18   S    
Cu2   O3    S    
C9    C11   A    
C17   Cl2   S    
C2    O2    A    
Cu1   O8    S    
C22   H10   S    
C11   H6    S    
C18   Cl1   S    
Cu2   O7    S    
C10   C12   A    
C16   C18   A    
C23   C24   S    
C12   C14   A    
C10   C23   S    
C6    O8    A    
C13   C15   A    
C16   H4    S    
C23   H17   S    
Cu2   O2    S    
Cu1   N2    S    
C14   C16   A    
C15   H3    S    
Cu1   O1    S    
Cu2   N1    S    
C13   C19   S    
C12   H5    S    
C3    C4    D    
Cu2   O6    S    
C7    C9    A    
C3    H7    S    
Cu1   O5    S    
C1    O3    A    
C14   C20   S    
C8    C10   A    
C24   H14   S    
C22   H9    S    
C2    O4    A    
C1    C3    S    
C15   C17   A    
C6    C8    S    
C7    C17   A    
C6    O6    A    
C4    H8    S    
N1    N2    D    
C24   H15   S    
C22   H11   S    
