data_mof_unit_24784.cif
_audit_creation_date              2012-12-11T14:08:27-0500
_audit_creation_method            fapswitch 2.2
_symmetry_space_group_name_H-M    P1
_symmetry_Int_Tables_number       1
_space_group_crystal_system       triclinic
_cell_length_a                    10.946636
_cell_length_b                    10.955458
_cell_length_c                    18.720542
_cell_angle_alpha                 91.192445
_cell_angle_beta                  90.514002
_cell_angle_gamma                 60.382358
_cell_volume                      1951.30939461

loop_
_atom_site_label
_atom_site_type_symbol
_atom_type_description
_atom_site_fract_x
_atom_site_fract_y
_atom_site_fract_z
_atom_type_partial_charge
C1    C     C_R   0.241149 0.645242 0.609950 0.538519
C2    C     C_2   0.766030 0.185048 0.712029 -0.193817
C3    C     C_2   0.206532 0.663438 0.686130 0.239342
C4    C     C_R   0.656022 0.625260 0.599779 0.532961
C5    C     C_2   0.213087 0.645533 0.846894 -0.093376
C6    C     C_2   0.192001 0.561337 0.801037 -0.158405
C7    C     C_2   0.212791 0.556224 0.723032 -0.136923
C8    C     C_2   0.652988 0.647972 0.319129 -0.078597
C9    C     C_2   0.630112 0.670971 0.159368 0.247643
C10   C     C_2   0.702315 0.552266 0.195764 -0.141614
C11   C     C_2   0.680345 0.543263 0.271751 -0.132305
C12   C     C_3   0.641940 0.580041 0.798903 -0.253602
C13   C     C_2   0.632491 0.195525 0.318782 -0.105405
C14   C     C_2   0.637861 0.201943 0.164705 -0.118241
C15   C     C_2   0.522873 0.230767 0.201165 -0.159297
C16   C     C_R   0.627558 0.229925 0.602570 0.547131
C17   C     C_2   0.517009 0.257130 0.277215 -0.148784
C18   C     C_2   0.123737 0.673220 0.344149 0.241619
C19   C     C_2   0.123371 0.689755 0.188303 -0.062718
C20   C     C_2   0.042162 0.796634 0.233457 -0.120307
C21   C     C_2   0.074414 0.792468 0.308804 -0.147951
C22   C     C_R   0.701304 0.104240 0.898499 0.543024
C23   C     C_3   0.703980 0.677470 0.810798 0.057872
C24   C     C_R   0.726195 0.689720 0.887345 0.540514
C25   C     C_R   0.123350 0.702605 0.909649 0.532874
C26   C     C_R   0.673452 0.114115 0.101574 0.557520
C27   C     C_R   0.692065 0.689606 0.094709 0.558346
C28   C     C_R   0.215824 0.649965 0.404344 0.551678
C29   C     C_R   0.090734 0.712025 0.113982 0.522784
C30   C     C_R   0.642190 0.621627 0.393477 0.522664
C31   C     C_R   0.614017 0.232987 0.393513 0.547675
C32   C     C_3   0.603250 0.824009 0.777676 -0.222850
C33   C     C_3   0.590278 0.809319 0.696385 -0.248651
C34   C     C_3   0.673611 0.652092 0.674784 0.064779
C35   C     C_3   0.847908 0.615379 0.771798 -0.229856
C36   C     C_3   0.100104 0.900524 0.711572 -0.000445
C37   C     C_3   0.140216 0.011261 0.732678 -0.368703
C38   C     C_3   0.391748 0.803880 0.164316 0.008359
C39   C     C_3   0.271294 0.936150 0.197651 -0.362661
C40   C     C_3   0.025130 0.531843 0.348495 0.010504
C41   C     C_3   0.038166 0.395864 0.318198 -0.366107
C42   C     C_3   0.830919 0.596392 0.692022 -0.245713
C43   C     C_3   0.616659 0.571486 0.718924 -0.212076
C44   C     C_2   0.673302 0.165508 0.672703 -0.128084
C45   C     C_2   0.678470 0.175685 0.830611 -0.122738
C46   C     C_2   0.785494 0.156504 0.789253 -0.190434
Cr1   Cr    Cr6+3 0.393010 0.398050 0.501480 1.008007
Cr2   Cr    Cr6+3 0.398820 0.707980 0.501630 1.014866
Cr3   Cr    Cr6+3 0.708140 0.393940 0.496850 0.992845
Cr4   Cr    Cr6+3 0.937950 0.938450 0.008940 1.002698
Cr5   Cr    Cr6+3 0.626180 0.937030 0.994750 1.017103
Cr6   Cr    Cr6+3 0.937790 0.625760 0.001410 1.011976
H1    H     H_    0.643893 0.897858 0.788345 0.134459
H2    H     H_    0.216570 0.467142 0.694383 0.104075
H3    H     H_    0.278475 0.690447 0.834080 0.164165
H4    H     H_    0.497079 0.870341 0.802438 0.135205
H5    H     H_    0.786471 0.458846 0.170193 0.101045
H6    H     H_    0.636750 0.749853 0.303861 0.151162
H7    H     H_    0.718118 0.221732 0.187791 0.090969
H8    H     H_    0.737595 0.129657 0.297486 0.080761
H9    H     H_    0.477501 0.855015 0.682158 0.148554
H10   H     H_    0.070541 0.885248 0.333150 0.099831
H11   H     H_    0.212995 0.591993 0.204984 0.136378
H12   H     H_    0.667976 0.459923 0.701754 0.135259
H13   H     H_    0.632034 0.868905 0.667637 0.104070
H14   H     H_    0.715472 0.473252 0.818994 0.132202
H15   H     H_    0.541114 0.621001 0.828560 0.113119
H16   H     H_    0.502127 0.616032 0.709317 0.171508
H17   H     H_    0.014238 0.910151 0.746385 0.143606
H18   H     H_    0.062258 0.918423 0.655325 0.144478
H19   H     H_    0.229936 0.997263 0.699566 0.154623
H20   H     H_    0.052141 0.118485 0.724096 0.083142
H21   H     H_    0.171054 0.000806 0.789877 0.151539
H22   H     H_    0.700001 0.441589 0.290113 0.138112
H23   H     H_    0.924043 0.511108 0.793620 0.130255
H24   H     H_    0.379743 0.712269 0.178820 0.128673
H25   H     H_    0.385606 0.815124 0.105176 0.137099
H26   H     H_    0.284073 0.028331 0.186243 0.155916
H27   H     H_    0.169541 0.954936 0.175217 0.125297
H28   H     H_    0.270055 0.924738 0.256423 0.157942
H29   H     H_    0.438421 0.218541 0.177507 0.162202
H30   H     H_    0.412857 0.322668 0.299885 0.190665
H31   H     H_    0.957785 0.895354 0.213620 0.137064
H32   H     H_    0.916697 0.619214 0.339241 0.133746
H33   H     H_    0.045414 0.519482 0.407023 0.136787
H34   H     H_    0.895192 0.482717 0.677850 0.137732
H35   H     H_    0.147669 0.308628 0.324561 0.152060
H36   H     H_    0.966749 0.368856 0.346756 0.130571
H37   H     H_    0.010911 0.407454 0.260517 0.155870
H38   H     H_    0.892336 0.686741 0.779773 0.123743
H39   H     H_    0.872201 0.653532 0.660691 0.103601
H40   H     H_    0.889383 0.116148 0.812117 0.150101
H41   H     H_    0.827093 0.226263 0.687487 0.145489
H42   H     H_    0.572789 0.224029 0.808686 0.117259
H43   H     H_    0.615452 0.119525 0.696343 0.101903
H44   H     H_    0.138127 0.507020 0.819146 0.132512
O1    O     O_R   0.507110 0.256280 0.580300 -0.517773
O2    O     O_R   0.837080 0.593860 0.915300 -0.530735
O3    O     O_R   0.064770 0.636080 0.932550 -0.504174
O4    O     O_R   0.280830 0.527190 0.577940 -0.534317
O5    O     O_R   0.068250 0.829200 0.092940 -0.538385
O6    O     O_R   0.799650 0.057040 0.080330 -0.509790
O7    O     O_R   0.586130 0.079760 0.077080 -0.503600
O8    O     O_R   0.627700 0.809630 0.066580 -0.476280
O9    O     O_R   0.816140 0.597180 0.075920 -0.538840
O10   O     O_R   0.045360 0.639170 0.081440 -0.483806
O11   O     O_3   0.833980 0.833750 0.001700 -0.245374
O12   O     O_R   0.524640 0.695370 0.425100 -0.483689
O13   O     O_R   0.261360 0.738990 0.584270 -0.503873
O14   O     O_R   0.532590 0.694780 0.574370 -0.503905
O15   O     O_R   0.744470 0.503750 0.577000 -0.534212
O16   O     O_R   0.698520 0.277230 0.571620 -0.501074
O17   O     O_R   0.498530 0.256920 0.419280 -0.510439
O18   O     O_R   0.272880 0.527780 0.428680 -0.488664
O19   O     O_R   0.252780 0.739630 0.423250 -0.540756
O20   O     O_3   0.219183 0.768477 0.721819 -0.589565
O21   O     O_3   0.519142 0.788532 0.191004 -0.564786
O22   O     O_3   0.122825 0.557482 0.313071 -0.579687
O23   O     O_R   0.735890 0.504390 0.415980 -0.536811
O24   O     O_R   0.690560 0.277820 0.422350 -0.504309
O25   O     O_3   0.499990 0.499990 0.499980 -0.245556
O26   O     O_R   0.089190 0.825870 0.932320 -0.517913
O27   O     O_R   0.819070 0.053960 0.931440 -0.494878
O28   O     O_R   0.607070 0.076440 0.916460 -0.528311
O29   O     O_R   0.647110 0.806550 0.917690 -0.516887

loop_
_geom_bond_atom_site_label_1
_geom_bond_atom_site_label_2
_ccdc_geom_bond_type
Cr1   O18   S    
Cr2   O14   S    
C18   C21   D    
C9    O21   S    
C40   H32   S    
C41   H37   S    
C19   C20   D    
Cr4   O26   S    
C33   H13   S    
C22   O27   A    
C15   H29   S    
C13   H8    S    
C38   H24   S    
C45   C46   D    
C2    C46   S    
C14   H7    S    
C12   C23   S    
C35   H23   S    
C24   O2    A    
C36   C37   S    
C40   O22   S    
C42   H39   S    
C12   C43   S    
C3    C7    D    
C3    O20   S    
C5    C6    D    
C16   O1    A    
Cr1   O25   S    
Cr3   O24   S    
C46   H40   S    
C30   O23   A    
C27   O9    A    
Cr5   O7    S    
C27   O8    A    
C15   C17   S    
C17   H30   S    
Cr3   O23   S    
C35   C42   S    
C37   H21   S    
C8    H6    S    
C38   O21   S    
C25   O3    A    
Cr6   O11   S    
C19   H11   S    
C43   H16   S    
C34   C42   S    
C23   C24   S    
C42   H34   S    
C9    C10   D    
C16   C44   S    
Cr3   O15   S    
C1    O13   A    
Cr2   O13   S    
Cr6   O10   S    
Cr5   O28   S    
C5    H3    S    
C45   H42   S    
C1    O4    A    
C36   H18   S    
C43   H12   S    
C41   H35   S    
C12   H15   S    
C4    C34   S    
C34   C43   S    
Cr5   O29   S    
C39   H26   S    
C10   H5    S    
C18   C28   S    
C2    C44   D    
Cr2   O25   S    
Cr5   O8    S    
C12   H14   S    
Cr1   O4    S    
C1    C3    S    
C39   H27   S    
C40   H33   S    
C4    O14   A    
C39   H28   S    
C28   O19   A    
C26   O7    A    
C16   O16   A    
Cr3   O25   S    
C33   C34   S    
C29   O5    A    
C14   C26   S    
C21   H10   S    
Cr2   O12   S    
C28   O18   A    
Cr3   O16   S    
C5    C25   S    
Cr5   O11   S    
C40   C41   S    
C4    O15   A    
Cr6   O9    S    
Cr4   O6    S    
C23   C35   S    
Cr2   O19   S    
Cr4   O11   S    
C29   O10   A    
C20   H31   S    
C19   C29   S    
C32   H1    S    
C36   H17   S    
C9    C27   S    
C25   O26   A    
Cr1   O17   S    
C41   H36   S    
C18   O22   S    
C30   O12   A    
C13   C31   S    
C2    H41   S    
Cr4   O27   S    
C11   H22   S    
C22   O28   A    
C6    C7    S    
C38   H25   S    
Cr6   O3    S    
C6    H44   S    
Cr1   O1    S    
C13   C17   D    
C8    C30   S    
C32   C33   S    
C37   H19   S    
C44   H43   S    
C23   C32   S    
C38   C39   S    
C8    C11   D    
Cr6   O2    S    
C31   O17   A    
C31   O24   A    
C10   C11   S    
C35   H38   S    
C22   C45   S    
C20   C21   S    
Cr4   O5    S    
C33   H9    S    
C37   H20   S    
C14   C15   D    
C7    H2    S    
C24   O29   A    
C32   H4    S    
C26   O6    A    
C36   O20   S    
