data_mof_unit_58729.cif
_audit_creation_date              2012-12-10T17:57:23-0500
_audit_creation_method            fapswitch 2.2
_symmetry_space_group_name_H-M    P1
_symmetry_Int_Tables_number       1
_space_group_crystal_system       triclinic
_cell_length_a                    9.552422
_cell_length_b                    10.823329
_cell_length_c                    13.458979
_cell_angle_alpha                 91.099331
_cell_angle_beta                  72.896713
_cell_angle_gamma                 90.184708
_cell_volume                      1329.72344454

loop_
_atom_site_label
_atom_site_type_symbol
_atom_type_description
_atom_site_fract_x
_atom_site_fract_y
_atom_site_fract_z
_atom_type_partial_charge
C1    C     C_R   0.501216 0.737608 0.498120 0.861430
C2    C     C_R   0.445455 0.441034 0.974526 0.079715
C3    C     C_R   0.490547 0.438783 0.864214 0.082024
C4    C     C_R   0.553086 0.460937 0.027392 0.077868
C5    C     C_R   0.702370 0.471217 0.969141 0.159243
C6    C     C_R   0.745726 0.444209 0.863260 -0.227029
C7    C     C_R   0.641442 0.421885 0.812566 -0.182059
C8    C     C_R   0.517049 0.475769 0.135635 -0.226554
C9    C     C_R   0.770287 0.522362 0.124767 -0.028127
C10   C     C_R   0.383160 0.452439 0.810259 -0.094684
C11   C     C_R   0.630106 0.937525 0.448592 0.390971
C12   C     C_R   0.423457 0.485043 0.698746 0.792599
C13   C     C_R   0.626605 0.065344 0.453070 -0.244137
C14   C     C_R   0.497028 0.128431 0.503930 -0.172460
C15   C     C_R   0.368942 0.062344 0.553285 0.400228
C16   C     C_R   0.372532 0.934271 0.549402 -0.246327
C17   C     C_R   0.502123 0.871407 0.497737 -0.180623
C18   C     C_R   0.898435 0.575352 0.566713 0.000704
C19   C     C_R   0.047058 0.575696 0.566391 -0.016268
C20   C     C_R   0.101526 0.422930 0.433925 0.060894
C21   C     C_R   0.953009 0.424437 0.432791 0.056197
C22   C     C_R   0.498467 0.262346 0.502521 0.861845
C23   C     C_R   0.578444 0.502792 0.299941 0.821423
C24   C     C_R   0.807645 0.506636 0.017216 -0.231720
C25   C     C_R   0.624345 0.501080 0.185396 -0.084686
C26   C     C_R   0.234937 0.437096 0.865163 -0.164961
C27   C     C_R   0.193118 0.416230 0.971495 -0.128018
C28   C     C_R   0.295227 0.423455 0.026641 -0.144295
Cu1   Cu    Cu3+1 0.359340 0.499980 0.500000 0.999092
Cu2   Cu    Cu3+1 0.640660 0.500020 0.500000 0.996262
H1    H     H_    0.725111 0.115404 0.414697 0.211986
H2    H     H_    0.274390 0.883621 0.588717 0.192702
H3    H     H_    0.820775 0.635867 0.620319 0.142420
H4    H     H_    0.080984 0.636534 0.619678 0.128566
H5    H     H_    0.860791 0.439809 0.819399 0.151768
H6    H     H_    0.918805 0.523973 0.970081 0.129921
H7    H     H_    0.405271 0.468595 0.183028 0.163572
H8    H     H_    0.151218 0.439661 0.825697 0.159919
H9    H     H_    0.253322 0.411634 0.109423 0.140552
H10   H     H_    0.080098 0.397314 0.012615 0.151210
H11   H     H_    0.682698 0.388344 0.733447 0.192411
N1    N     N_R   0.147940 0.499970 0.499970 -0.181510
N2    N     N_R   0.852060 0.500060 0.499990 -0.185647
O1    O     O_R   0.381250 0.680340 0.500010 -0.589154
O2    O     O_R   0.618820 0.680370 0.500010 -0.532413
O3    O     O_R   0.323240 0.499950 0.650980 -0.578643
O4    O     O_R   0.560810 0.499980 0.650980 -0.609765
O5    O     O_R   0.381180 0.319630 0.499990 -0.532849
O6    O     O_R   0.618750 0.319660 0.499990 -0.603193
O7    O     O_R   0.439190 0.500020 0.349020 -0.591836
O8    O     O_R   0.676760 0.500050 0.349020 -0.565600
C29   C     C_1   0.883189 0.563810 0.169194 0.303603
N3    N     N_1   0.973970 0.597271 0.204353 -0.238009
Cl1   Cl    Cl    0.204174 0.134536 0.625722 -0.607567
C30   C     C_1   0.203140 0.337408 0.365940 0.311734
N4    N     N_1   0.283253 0.268078 0.311348 -0.272287
C31   C     C_1   0.909918 0.347471 0.358047 0.293295
N5    N     N_1   0.877726 0.286119 0.296882 -0.286983
Cl2   Cl    Cl    0.795029 0.865882 0.375659 -0.566753

loop_
_geom_bond_atom_site_label_1
_geom_bond_atom_site_label_2
_ccdc_geom_bond_type
C20   N1    A    
C22   O5    A    
C30   N4    T    
C9    C24   A    
C21   C31   S    
C6    C7    A    
Cu1   N1    S    
C16   H2    S    
Cu1   O3    S    
C1    O1    A    
C23   O8    A    
C19   N1    A    
C27   H10   S    
C4    C8    A    
C26   H8    S    
C14   C22   S    
C5    C24   A    
C2    C3    A    
C31   N5    T    
C9    C25   A    
C3    C10   A    
C24   H6    S    
C13   C14   A    
C20   C21   A    
C8    C25   A    
C11   C13   A    
C1    O2    A    
C26   C27   A    
Cu1   Cu2   S    
C9    C29   S    
C10   C12   S    
C12   O4    A    
C11   Cl2   S    
C2    C4    A    
Cu2   O8    S    
C13   H1    S    
C3    C7    A    
Cu1   O7    S    
C22   O6    A    
Cu1   O1    S    
C5    C6    A    
C18   H3    S    
Cu2   N2    S    
C20   C30   S    
C8    H7    S    
Cu1   O5    S    
C15   C16   A    
C15   Cl1   S    
Cu2   O4    S    
C4    C5    A    
C23   C25   S    
C6    H5    S    
C12   O3    A    
C18   C19   A    
C27   C28   A    
C14   C15   A    
C11   C17   A    
C23   O7    A    
C2    C28   A    
Cu2   O2    S    
C28   H9    S    
C18   N2    A    
C1    C17   S    
Cu2   O6    S    
C10   C26   A    
C21   N2    A    
C7    H11   S    
C29   N3    T    
C16   C17   A    
C19   H4    S    
