data_mof_unit_61245.cif
_audit_creation_date              2012-12-10T19:04:18-0500
_audit_creation_method            fapswitch 2.2
_symmetry_space_group_name_H-M    P1
_symmetry_Int_Tables_number       1
_space_group_crystal_system       triclinic
_cell_length_a                    10.683646
_cell_length_b                    13.043085
_cell_length_c                    13.621772
_cell_angle_alpha                 85.730642
_cell_angle_beta                  90.033875
_cell_angle_gamma                 93.050345
_cell_volume                      1890.20265553

loop_
_atom_site_label
_atom_site_type_symbol
_atom_type_description
_atom_site_fract_x
_atom_site_fract_y
_atom_site_fract_z
_atom_type_partial_charge
C1    C     C_R   0.498774 0.481197 0.685186 0.899629
C2    C     C_3   0.121775 0.503431 0.498809 0.038441
C3    C     C_3   0.066615 0.450293 0.409141 -0.348702
C4    C     C_3   0.079675 0.617133 0.498590 -0.229952
C5    C     C_1   0.502435 0.533779 0.211643 -0.165887
C6    C     C_2   0.503398 0.544663 0.020445 -0.150997
C7    C     C_2   0.498212 0.455386 0.979539 -0.154525
C8    C     C_1   0.498020 0.457374 0.875782 0.031791
C9    C     C_1   0.503133 0.542662 0.124206 0.026490
C10   C     C_1   0.498219 0.466238 0.788348 -0.151109
C11   C     C_2   0.463147 0.032815 0.474211 -0.237645
C12   C     C_R   0.742750 0.499719 0.502925 0.817561
C13   C     C_2   0.536921 0.967159 0.525765 -0.233098
C14   C     C_1   0.526330 0.854877 0.519107 0.229105
C15   C     C_1   0.473702 0.145114 0.480884 0.168330
C16   C     C_R   0.501345 0.518807 0.314811 0.891759
C17   C     C_R   0.257517 0.501037 0.498030 0.831009
C18   C     C_3   0.927702 0.433840 0.595076 -0.169770
C19   C     C_3   0.072434 0.442240 0.594750 -0.446176
C20   C     C_3   0.924276 0.459934 0.406634 -0.379329
C21   C     C_3   0.935966 0.615859 0.506640 -0.243824
C22   C     C_3   0.879404 0.501316 0.504281 -0.031005
H1    H     H_    0.899649 0.513551 0.342969 0.188605
H2    H     H_    0.109744 0.483723 0.338933 0.190664
H3    H     H_    0.493973 0.382002 0.023190 0.165987
H4    H     H_    0.507574 0.618047 0.976794 0.167713
H5    H     H_    0.607725 0.997697 0.574548 0.182010
H6    H     H_    0.392352 0.002252 0.425430 0.175953
H7    H     H_    0.894201 0.465526 0.663165 0.169739
H8    H     H_    0.106113 0.482222 0.659999 0.187241
H9    H     H_    0.111482 0.364532 0.602269 0.203718
H10   H     H_    0.877195 0.384206 0.393375 0.220861
H11   H     H_    0.087332 0.367334 0.415157 0.223248
H12   H     H_    0.898791 0.659927 0.440477 0.168357
H13   H     H_    0.121987 0.650098 0.564996 0.176667
N1    N     N_1   0.479840 0.234530 0.484780 -0.084924
N2    N     N_1   0.520150 0.765470 0.515220 -0.061572
O1    O     O_R   0.492620 0.402510 0.634760 -0.590659
O2    O     O_R   0.505570 0.572960 0.644530 -0.603225
O3    O     O_R   0.678730 0.414780 0.495130 -0.600970
O4    O     O_R   0.691680 0.585220 0.504900 -0.603297
O5    O     O_R   0.494430 0.427040 0.355470 -0.610998
O6    O     O_R   0.507380 0.597490 0.365240 -0.601525
O7    O     O_R   0.308320 0.414780 0.495100 -0.620131
O8    O     O_R   0.321270 0.585220 0.504870 -0.605448
Zn1   Zn    Zn3+2 0.491360 0.386190 0.493470 1.004018
Zn2   Zn    Zn3+2 0.508640 0.613810 0.506530 1.027853
C23   C     C_2   0.878960 0.321894 0.600830 0.948539
O9    O     O_2   0.805486 0.289856 0.666294 -0.622401
O10   O     O_R   0.918983 0.254942 0.533160 -0.812861
H14   H     H_    0.879379 0.182740 0.545313 0.348384
C24   C     C_2   0.127037 0.688248 0.411089 0.930478
O11   O     O_2   0.093436 0.673064 0.327326 -0.644791
O12   O     O_R   0.207884 0.773080 0.427559 -0.789113
H15   H     H_    0.233369 0.815023 0.364405 0.339221
C25   C     C_2   0.897974 0.672580 0.595230 0.928034
O13   O     O_2   0.833547 0.747215 0.582754 -0.608193
O14   O     O_R   0.940635 0.643177 0.689716 -0.831472
H16   H     H_    0.909588 0.687944 0.741349 0.352194

loop_
_geom_bond_atom_site_label_1
_geom_bond_atom_site_label_2
_ccdc_geom_bond_type
C12   O3    A    
C21   C25   S    
C2    C4    S    
N1    Zn1   S    
C6    C7    D    
C21   H12   S    
C16   O5    A    
N2    Zn2   S    
C7    H3    S    
C20   H1    S    
C19   H9    S    
C24   O12   S    
C6    C9    S    
C23   O10   S    
C2    C3    S    
O4    Zn2   S    
C4    H13   S    
C7    C8    S    
C18   H7    S    
C18   C22   S    
C13   C14   S    
C25   O13   D    
C14   N2    T    
O3    Zn1   S    
C4    C21   S    
C11   C13   D    
C16   O6    A    
C3    H2    S    
C6    H4    S    
C11   C15   S    
C11   H6    S    
C4    C24   S    
C1    O1    A    
C8    C10   T    
C23   O9    D    
C20   C22   S    
O10   H14   S    
O8    Zn2   S    
C20   H10   S    
O1    Zn1   S    
C3    H11   S    
C12   C22   S    
C15   N1    T    
C3    C20   S    
C24   O11   D    
C12   O4    A    
O2    Zn2   S    
C18   C19   S    
O5    Zn1   S    
C2    C19   S    
C1    O2    A    
O12   H15   S    
C13   H5    S    
C5    C16   S    
C5    C9    T    
O7    Zn1   S    
C17   O7    A    
O14   H16   S    
C21   C22   S    
C19   H8    S    
O6    Zn2   S    
C1    C10   S    
C17   O8    A    
C25   O14   S    
C2    C17   S    
C18   C23   S    
