data_mof_unit_8412.cif
_audit_creation_date              2012-12-11T16:26:06-0500
_audit_creation_method            fapswitch 2.2
_symmetry_space_group_name_H-M    P1
_symmetry_Int_Tables_number       1
_space_group_crystal_system       triclinic
_cell_length_a                    14.008359
_cell_length_b                    14.008638
_cell_length_c                    31.941181
_cell_angle_alpha                 90.001934
_cell_angle_beta                  89.998094
_cell_angle_gamma                 119.999869
_cell_volume                      5428.31886099

loop_
_atom_site_label
_atom_site_type_symbol
_atom_type_description
_atom_site_fract_x
_atom_site_fract_y
_atom_site_fract_z
_atom_type_partial_charge
C1    C     C_R   0.567514 0.444176 0.810368 0.513586
C2    C     C_R   0.876654 0.432475 0.689635 0.513489
C3    C     C_R   0.555827 0.123354 0.810371 0.513567
C4    C     C_R   0.567525 0.444171 0.689631 0.513527
C5    C     C_R   0.876645 0.432474 0.810370 0.513536
C6    C     C_R   0.555827 0.123347 0.689631 0.513550
C7    C     C_R   0.444166 0.567535 0.310373 0.513534
C8    C     C_R   0.432473 0.876642 0.189629 0.513562
C9    C     C_R   0.123368 0.555837 0.310375 0.513529
C10   C     C_R   0.444174 0.567523 0.189629 0.513543
C11   C     C_R   0.432469 0.876640 0.310372 0.513536
C12   C     C_R   0.123358 0.555830 0.189629 0.513570
C13   C     C_1   0.006548 0.540836 0.018608 0.072232
C14   C     C_1   0.534251 0.993371 0.481399 0.072193
C15   C     C_1   0.459078 0.465739 0.018596 0.071811
C16   C     C_1   0.007152 0.541209 0.481456 0.071897
C17   C     C_1   0.534338 0.993536 0.018615 0.072188
C18   C     C_1   0.459065 0.465790 0.481411 0.072203
C19   C     C_1   0.540730 0.006337 0.518628 0.072199
C20   C     C_1   0.993582 0.534353 0.981379 0.072260
C21   C     C_1   0.465560 0.459305 0.518639 0.072289
C22   C     C_1   0.540820 0.006502 0.981386 0.072174
C23   C     C_1   0.994151 0.534694 0.518683 0.072264
C24   C     C_1   0.465551 0.459273 0.981364 0.071884
C25   C     C_R   0.927562 0.468084 0.852082 -0.024476
C26   C     C_R   0.540504 0.072384 0.647925 -0.024596
C27   C     C_R   0.531827 0.459521 0.852065 -0.024603
C28   C     C_R   0.927631 0.468107 0.647937 -0.024421
C29   C     C_R   0.540520 0.072431 0.852082 -0.024547
C30   C     C_R   0.531898 0.459488 0.647924 -0.024451
C31   C     C_R   0.468054 0.927517 0.352091 -0.024541
C32   C     C_R   0.072455 0.540530 0.147914 -0.024533
C33   C     C_R   0.459433 0.531972 0.352099 -0.024444
C34   C     C_R   0.468080 0.927548 0.147915 -0.024477
C35   C     C_R   0.072565 0.540599 0.352111 -0.024628
C36   C     C_R   0.459479 0.531905 0.147915 -0.024609
C37   C     C_R   0.982721 0.580117 0.865060 -0.040215
C38   C     C_R   0.597487 0.017338 0.634938 -0.040232
C39   C     C_R   0.419805 0.402371 0.865061 -0.040224
C40   C     C_R   0.983166 0.580188 0.635022 -0.040215
C41   C     C_R   0.597478 0.017363 0.865069 -0.040219
C42   C     C_R   0.419854 0.402656 0.634959 -0.040230
C43   C     C_R   0.580080 0.982648 0.365077 -0.040243
C44   C     C_R   0.017369 0.597469 0.134926 -0.040236
C45   C     C_R   0.402594 0.419947 0.365084 -0.040235
C46   C     C_R   0.580113 0.982699 0.134935 -0.040224
C47   C     C_R   0.017692 0.597719 0.365140 -0.040165
C48   C     C_R   0.402421 0.419892 0.134911 -0.040185
C49   C     C_R   0.008976 0.605767 0.908215 0.029252
C50   C     C_R   0.596895 0.991100 0.591783 0.029160
C51   C     C_R   0.394152 0.402950 0.908217 0.029053
C52   C     C_R   0.009646 0.605950 0.591886 0.029373
C53   C     C_R   0.596907 0.991160 0.908227 0.029205
C54   C     C_R   0.394178 0.403299 0.591809 0.029294
C55   C     C_R   0.605701 0.008827 0.408238 0.029156
C56   C     C_R   0.991166 0.596895 0.091768 0.029200
C57   C     C_R   0.403150 0.394330 0.408245 0.029233
C58   C     C_R   0.605759 0.008940 0.091779 0.029224
C59   C     C_R   0.991787 0.597348 0.408321 0.029034
C60   C     C_R   0.402917 0.394294 0.091744 0.029073
C61   C     C_R   0.976016 0.518002 0.937126 0.013885
C62   C     C_R   0.541942 0.023904 0.562881 0.013790
C63   C     C_R   0.481900 0.458088 0.937109 0.013751
C64   C     C_R   0.976452 0.518242 0.562927 0.013903
C65   C     C_R   0.542024 0.024047 0.937132 0.013834
C66   C     C_R   0.481930 0.458077 0.562889 0.013949
C67   C     C_R   0.517918 0.975834 0.437145 0.013769
C68   C     C_R   0.024088 0.542041 0.062862 0.013842
C69   C     C_R   0.457853 0.482119 0.437157 0.013856
C70   C     C_R   0.517990 0.975975 0.062868 0.013842
C71   C     C_R   0.024637 0.542391 0.437197 0.013679
C72   C     C_R   0.457900 0.482068 0.062853 0.013698
C73   C     C_R   0.926637 0.409322 0.923306 -0.144122
C74   C     C_R   0.482502 0.073131 0.576712 -0.143990
C75   C     C_R   0.590546 0.517728 0.923266 -0.144102
C76   C     C_R   0.926637 0.409486 0.576687 -0.144077
C77   C     C_R   0.482620 0.073310 0.923302 -0.144086
C78   C     C_R   0.590625 0.517326 0.576698 -0.144226
C79   C     C_R   0.409244 0.926487 0.423317 -0.144001
C80   C     C_R   0.073384 0.482669 0.076692 -0.144077
C81   C     C_R   0.517097 0.590798 0.423332 -0.144226
C82   C     C_R   0.409308 0.926600 0.076691 -0.144157
C83   C     C_R   0.073668 0.482801 0.423330 -0.143982
C84   C     C_R   0.517444 0.590709 0.076701 -0.144051
C85   C     C_R   0.903884 0.384667 0.881348 -0.121945
C86   C     C_R   0.480625 0.095908 0.618668 -0.121951
C87   C     C_R   0.615201 0.519602 0.881309 -0.122026
C88   C     C_R   0.903711 0.384721 0.618628 -0.121857
C89   C     C_R   0.480703 0.096032 0.881343 -0.121906
C90   C     C_R   0.615305 0.519205 0.618651 -0.121983
C91   C     C_R   0.384616 0.903801 0.381355 -0.121881
C92   C     C_R   0.096097 0.480747 0.118652 -0.121915
C93   C     C_R   0.519059 0.615422 0.381369 -0.121894
C94   C     C_R   0.384657 0.903861 0.118649 -0.121918
C95   C     C_R   0.096187 0.480763 0.381354 -0.121959
C96   C     C_R   0.519385 0.615322 0.118665 -0.121972
Cr1   Cr    Cr6+3 0.504240 0.249200 0.750000 1.077870
Cr2   Cr    Cr6+3 0.744960 0.495760 0.750000 1.077797
Cr3   Cr    Cr6+3 0.750800 0.255040 0.750000 1.077762
Cr4   Cr    Cr6+3 0.249200 0.504240 0.250000 1.077783
Cr5   Cr    Cr6+3 0.495760 0.744960 0.250000 1.077791
Cr6   Cr    Cr6+3 0.255040 0.750800 0.250000 1.077779
H1    H     H_    0.139048 0.437647 0.127787 0.176201
H2    H     H_    0.298564 0.860815 0.372220 0.176233
H3    H     H_    0.562603 0.701363 0.127813 0.176216
H4    H     H_    0.138973 0.437520 0.372189 0.176214
H5    H     H_    0.298601 0.860858 0.127778 0.176154
H6    H     H_    0.562063 0.701472 0.372236 0.176084
H7    H     H_    0.437481 0.138816 0.627802 0.176216
H8    H     H_    0.860877 0.298611 0.872220 0.176139
H9    H     H_    0.701367 0.562217 0.627769 0.175949
H10   H     H_    0.437578 0.138957 0.872209 0.176266
H11   H     H_    0.860400 0.298634 0.627712 0.176022
H12   H     H_    0.701251 0.562907 0.872169 0.176266
O1    O     O_R   0.480350 0.140770 0.796330 -0.491540
O2    O     O_R   0.660420 0.519650 0.703670 -0.491686
O3    O     O_R   0.859230 0.339580 0.796330 -0.491650
O4    O     O_R   0.480350 0.140770 0.703670 -0.491559
O5    O     O_R   0.660420 0.519650 0.796330 -0.491651
O6    O     O_R   0.859230 0.339580 0.703670 -0.491565
O7    O     O_R   0.140770 0.480350 0.296330 -0.491606
O8    O     O_R   0.519650 0.660420 0.203670 -0.491624
O9    O     O_R   0.339580 0.859230 0.296330 -0.491587
O10   O     O_R   0.140770 0.480350 0.203670 -0.491597
O11   O     O_R   0.519650 0.660420 0.296330 -0.491617
O12   O     O_R   0.339580 0.859230 0.203670 -0.491603
O13   O     O_R   0.514930 0.348530 0.793250 -0.495959
O14   O     O_R   0.833600 0.485070 0.706750 -0.495885
O15   O     O_R   0.651470 0.166400 0.793250 -0.495944
O16   O     O_R   0.514930 0.348530 0.706750 -0.495906
O17   O     O_R   0.833600 0.485070 0.793250 -0.495868
O18   O     O_R   0.651470 0.166400 0.706750 -0.495985
O19   O     O_R   0.348530 0.514930 0.293250 -0.495903
O20   O     O_R   0.485070 0.833600 0.206750 -0.495899
O21   O     O_R   0.166400 0.651470 0.293250 -0.496000
O22   O     O_R   0.348530 0.514930 0.206750 -0.495976
O23   O     O_R   0.485070 0.833600 0.293250 -0.495946
O24   O     O_R   0.166400 0.651470 0.206750 -0.495922
O25   O     O_3   0.666667 0.333333 0.750000 -0.251052
O26   O     O_3   0.333333 0.666667 0.250000 -0.251044
C97   C     C_2   0.010863 0.667889 0.833253 0.221967
H13   H     H_    0.032982 0.657342 0.801716 0.107767
O27   O     O_2   0.004841 0.749942 0.841246 -0.468149
C98   C     C_2   0.657225 0.989300 0.666735 0.222032
H14   H     H_    0.624601 0.967173 0.698276 0.107782
O28   O     O_2   0.745328 0.995402 0.658725 -0.468126
C99   C     C_2   0.332037 0.342478 0.833275 0.222058
H15   H     H_    0.342423 0.375089 0.801738 0.107818
O29   O     O_2   0.250173 0.254271 0.841293 -0.468139
C100  C     C_2   0.011464 0.667889 0.666878 0.221855
H16   H     H_    0.033318 0.657081 0.698424 0.107661
O30   O     O_2   0.005861 0.750184 0.658913 -0.468153
C101  C     C_2   0.657160 0.989261 0.833267 0.221965
H17   H     H_    0.624501 0.967108 0.801732 0.107767
O31   O     O_2   0.745260 0.995343 0.841265 -0.468224
C102  C     C_2   0.332100 0.343030 0.666775 0.221910
H18   H     H_    0.342678 0.375690 0.698314 0.107693
O32   O     O_2   0.250033 0.254965 0.658786 -0.468112
C103  C     C_2   0.667876 0.010837 0.333272 0.221959
H19   H     H_    0.657334 0.032972 0.301739 0.107773
O33   O     O_2   0.749945 0.004843 0.341265 -0.468187
C104  C     C_2   0.989251 0.657138 0.166728 0.221946
H20   H     H_    0.967077 0.624466 0.198261 0.107782
O34   O     O_2   0.995351 0.745246 0.158733 -0.468205
C105  C     C_2   0.343047 0.332150 0.333276 0.221902
H21   H     H_    0.375763 0.342703 0.301747 0.107729
O35   O     O_2   0.254986 0.250069 0.341258 -0.468172
C106  C     C_2   0.667890 0.010841 0.166741 0.221934
H22   H     H_    0.657351 0.032975 0.198276 0.107767
O36   O     O_2   0.749935 0.004804 0.158748 -0.468181
C107  C     C_2   0.989492 0.657372 0.333359 0.222134
H23   H     H_    0.967249 0.624683 0.301832 0.107808
O37   O     O_2   0.995569 0.745465 0.341365 -0.468091
C108  C     C_2   0.342706 0.332086 0.166702 0.222092
H24   H     H_    0.375331 0.342572 0.198240 0.107840
O38   O     O_2   0.254628 0.250063 0.158688 -0.468125
C109  C     C_2   0.925690 0.648355 0.077684 0.286075
H25   H     H_    0.868297 0.653922 0.098930 0.146330
O39   O     O_2   0.935071 0.685538 0.042407 -0.430309
C110  C     C_2   0.722631 0.074352 0.422324 0.286076
H26   H     H_    0.785561 0.131822 0.401087 0.146293
O40   O     O_2   0.750459 0.064918 0.457590 -0.430176
C111  C     C_2   0.351218 0.277376 0.077628 0.286271
H27   H     H_    0.345922 0.214397 0.098803 0.146093
O41   O     O_2   0.313486 0.249622 0.042416 -0.429480
C112  C     C_2   0.926729 0.649185 0.422476 0.286297
H28   H     H_    0.868857 0.654338 0.401358 0.146033
O42   O     O_2   0.937079 0.687208 0.457653 -0.429667
C113  C     C_2   0.722698 0.074502 0.077705 0.286075
H29   H     H_    0.785623 0.131888 0.098963 0.146345
O43   O     O_2   0.750540 0.065209 0.042423 -0.430312
C114  C     C_2   0.351838 0.277403 0.422327 0.286077
H30   H     H_    0.346344 0.214486 0.401076 0.146396
O44   O     O_2   0.314716 0.249566 0.457610 -0.430411
C115  C     C_2   0.648458 0.925725 0.577695 0.286158
H31   H     H_    0.653951 0.868257 0.598921 0.146194
O45   O     O_2   0.685830 0.935300 0.542440 -0.430097
C116  C     C_2   0.074547 0.722705 0.922288 0.286060
H32   H     H_    0.131930 0.785624 0.901028 0.146345
O46   O     O_2   0.065264 0.750550 0.957570 -0.430366
C117  C     C_2   0.277229 0.352007 0.577754 0.286094
H33   H     H_    0.214323 0.346397 0.599040 0.146424
O47   O     O_2   0.249358 0.315038 0.542453 -0.430521
C118  C     C_2   0.648400 0.925716 0.922312 0.286090
H34   H     H_    0.653929 0.868288 0.901073 0.146277
O48   O     O_2   0.685655 0.935172 0.957580 -0.430242
C119  C     C_2   0.075698 0.722911 0.577887 0.286083
H35   H     H_    0.133053 0.785636 0.599213 0.146299
O49   O     O_2   0.066882 0.750992 0.542592 -0.430616
C120  C     C_2   0.277197 0.351177 0.922310 0.286148
H36   H     H_    0.214163 0.345514 0.901080 0.146275
O50   O     O_2   0.249465 0.313810 0.957569 -0.429692
H37   H     H_    0.096514 0.438842 0.054645 0.152591
H38   H     H_    0.342280 0.903303 0.445365 0.152891
H39   H     H_    0.561381 0.657663 0.054664 0.152584
H40   H     H_    0.096739 0.438892 0.445358 0.152718
H41   H     H_    0.342356 0.903432 0.054640 0.152557
H42   H     H_    0.560805 0.657765 0.445383 0.152419
H43   H     H_    0.438600 0.096170 0.554667 0.152709
H44   H     H_    0.903476 0.342374 0.945357 0.152574
H45   H     H_    0.657563 0.561092 0.554640 0.152206
H46   H     H_    0.438765 0.096407 0.945349 0.152521
H47   H     H_    0.903282 0.342575 0.554600 0.152530
H48   H     H_    0.657477 0.561786 0.945302 0.152612

loop_
_geom_bond_atom_site_label_1
_geom_bond_atom_site_label_2
_ccdc_geom_bond_type
C68   C80   A    
C39   C51   A    
C96   H3    S    
C80   C92   A    
C105  H21   S    
C82   C94   A    
C21   C66   S    
C52   C119  S    
C33   C45   A    
C55   C110  S    
C31   C43   A    
C99   H15   S    
C91   H2    S    
Cr1   O13   S    
C35   C47   A    
C29   C89   A    
C83   H40   S    
C4    C30   S    
Cr2   O5    S    
C32   C92   A    
Cr5   O20   S    
C78   C90   A    
C15   C72   S    
C107  O37   D    
C89   H10   S    
C45   C57   A    
C54   C66   A    
C37   C97   S    
Cr3   O18   S    
C71   C83   A    
C102  H18   S    
C99   O29   D    
C10   O22   A    
Cr1   O16   S    
C7    O19   A    
C43   C103  S    
C111  O41   D    
C93   H6    S    
Cr6   O24   S    
C60   C72   A    
C19   C62   S    
C18   C21   T    
C88   H11   S    
C37   C49   A    
C59   C71   A    
C59   C112  S    
C113  O43   D    
Cr4   O7    S    
C117  H33   S    
C43   C55   A    
C20   C61   S    
C3    C29   S    
C44   C56   A    
C108  H24   S    
C87   H12   S    
Cr4   O26   S    
C92   H1    S    
C25   C37   A    
Cr3   O6    S    
Cr6   O21   S    
Cr2   O2    S    
C15   C24   T    
C79   H38   S    
C27   C39   A    
C109  O39   D    
C74   H43   S    
C28   C88   A    
C9    O7    A    
C14   C67   S    
C103  O33   D    
C116  H32   S    
C34   C46   A    
Cr1   O1    S    
C53   C65   A    
C76   C88   A    
C48   C108  S    
C84   H39   S    
C30   C90   A    
C56   C109  S    
C60   C111  S    
Cr2   O14   S    
C112  H28   S    
C11   C31   S    
C17   C70   S    
C77   H46   S    
C46   C58   A    
Cr5   O8    S    
C38   C98   S    
C47   C107  S    
C117  O47   D    
Cr3   O25   S    
C16   C71   S    
C44   C104  S    
C90   H9    S    
Cr5   O26   S    
C110  O40   D    
C48   C60   A    
C41   C101  S    
C49   C116  S    
C76   H47   S    
C32   C44   A    
C116  O46   D    
C66   C78   A    
C11   O9    A    
C94   H5    S    
C53   C118  S    
C49   C61   A    
C7    C33   S    
C8    O20   A    
C119  H35   S    
C1    O13   A    
C86   H7    S    
C67   C79   A    
C57   C114  S    
C98   O28   D    
C85   H8    S    
C52   C64   A    
Cr3   O15   S    
C58   C70   A    
C4    O16   A    
C6    O18   A    
C61   C73   A    
C40   C52   A    
C7    O11   A    
C73   H44   S    
C5    O3    A    
Cr4   O10   S    
C97   O27   D    
C114  O44   D    
Cr2   O17   S    
C42   C102  S    
C111  H27   S    
C3    O1    A    
C22   C65   S    
C1    O5    A    
C95   H4    S    
Cr3   O3    S    
C65   C77   A    
C81   C93   A    
C50   C115  S    
C36   C96   A    
Cr5   O11   S    
C103  H19   S    
C12   O10   A    
C26   C86   A    
C62   C74   A    
C83   C95   A    
C58   C113  S    
C25   C85   A    
C64   C76   A    
C40   C100  S    
C8    C34   S    
C74   C86   A    
C27   C87   A    
C107  H23   S    
C41   C53   A    
C72   C84   A    
C46   C106  S    
C109  H25   S    
C5    C25   S    
C9    O21   A    
C75   C87   A    
C106  H22   S    
C118  O48   D    
C75   H48   S    
Cr6   O26   S    
C24   C63   S    
C31   C91   A    
C50   C62   A    
C100  O30   D    
C101  O31   D    
C112  O42   D    
Cr6   O9    S    
C84   C96   A    
Cr4   O19   S    
C9    C35   S    
C104  H20   S    
C73   C85   A    
C8    O12   A    
C51   C63   A    
C23   C64   S    
Cr5   O23   S    
C13   C20   T    
C29   C41   A    
C3    O15   A    
C77   C89   A    
C79   C91   A    
C14   C19   T    
C4    O2    A    
C26   C38   A    
C34   C94   A    
C119  O49   D    
C98   H14   S    
Cr6   O12   S    
Cr1   O4    S    
C33   C93   A    
C55   C67   A    
C80   H37   S    
C38   C50   A    
C35   C95   A    
C16   C23   T    
C54   C117  S    
C120  O50   D    
C17   C22   T    
Cr2   O25   S    
C57   C69   A    
C114  H30   S    
C102  O32   D    
C11   O23   A    
C104  O34   D    
C56   C68   A    
C97   H13   S    
C42   C54   A    
C51   C120  S    
C6    C26   S    
C82   H41   S    
C63   C75   A    
C18   C69   S    
C81   H42   S    
C106  O36   D    
C10   C36   S    
C36   C48   A    
C12   O24   A    
C113  H29   S    
C70   C82   A    
C108  O38   D    
C69   C81   A    
C78   H45   S    
C47   C59   A    
C115  H31   S    
C10   O8    A    
C5    O17   A    
C118  H34   S    
C105  O35   D    
C120  H36   S    
C39   C99   S    
C1    C27   S    
C28   C40   A    
C100  H16   S    
C30   C42   A    
C2    C28   S    
C2    O6    A    
C101  H17   S    
C45   C105  S    
Cr1   O25   S    
C12   C32   S    
C110  H26   S    
Cr4   O22   S    
C6    O4    A    
C115  O45   D    
C13   C68   S    
C2    O14   A    
