data_mof_unit_54717.cif
_audit_creation_date              2012-12-10T18:09:34-0500
_audit_creation_method            fapswitch 2.2
_symmetry_space_group_name_H-M    P1
_symmetry_Int_Tables_number       1
_space_group_crystal_system       triclinic
_cell_length_a                    16.274918
_cell_length_b                    14.740825
_cell_length_c                    9.519192
_cell_angle_alpha                 90.075126
_cell_angle_beta                  90.000363
_cell_angle_gamma                 90.000514
_cell_volume                      2283.7066295

loop_
_atom_site_label
_atom_site_type_symbol
_atom_type_description
_atom_site_fract_x
_atom_site_fract_y
_atom_site_fract_z
_atom_type_partial_charge
C1    C     C_R   0.117775 0.378106 0.500239 0.913601
C2    C     C_R   0.117775 0.621894 0.499761 0.913579
C3    C     C_R   0.617775 0.878106 0.500239 0.913601
C4    C     C_R   0.617775 0.121894 0.499761 0.913579
C5    C     C_3   0.086856 0.504702 0.083012 -0.194574
C6    C     C_3   0.086857 0.495318 0.916989 -0.194627
C7    C     C_3   0.586856 0.004702 0.083012 -0.194574
C8    C     C_3   0.586857 0.995318 0.916989 -0.194627
C9    C     C_R   0.881025 0.377869 0.499819 0.771501
C10   C     C_R   0.881029 0.622136 0.500180 0.771479
C11   C     C_R   0.381025 0.877869 0.499819 0.771501
C12   C     C_R   0.381029 0.122136 0.500180 0.771479
C13   C     C_3   0.824335 0.228961 0.613462 -0.191624
C14   C     C_3   0.797797 0.262920 0.346475 -0.166019
C15   C     C_3   0.797825 0.737121 0.653503 -0.166025
C16   C     C_3   0.824321 0.771029 0.386494 -0.191619
C17   C     C_3   0.324335 0.728961 0.613462 -0.191624
C18   C     C_3   0.297797 0.762920 0.346475 -0.166019
C19   C     C_3   0.297825 0.237121 0.653503 -0.166025
C20   C     C_3   0.324321 0.271029 0.386494 -0.191619
C21   C     C_3   0.253840 0.657494 0.602828 0.498200
C22   C     C_3   0.225205 0.693821 0.349769 0.459678
C23   C     C_3   0.225242 0.306230 0.650204 0.459636
C24   C     C_3   0.253815 0.342483 0.397102 0.498202
C25   C     C_3   0.753840 0.157494 0.602828 0.498200
C26   C     C_3   0.725205 0.193821 0.349769 0.459678
C27   C     C_3   0.725241 0.806230 0.650204 0.459636
C28   C     C_3   0.753815 0.842483 0.397102 0.498202
C29   C     C_3   0.728895 0.355160 0.537296 -0.390300
C30   C     C_3   0.728895 0.644841 0.462751 -0.390276
C31   C     C_3   0.228895 0.855160 0.537296 -0.390300
C32   C     C_3   0.228895 0.144841 0.462751 -0.390276
C33   C     C_3   0.811299 0.307118 0.498882 -0.128215
C34   C     C_3   0.811305 0.692891 0.501112 -0.128215
C35   C     C_3   0.311299 0.807118 0.498882 -0.128215
C36   C     C_3   0.311305 0.192891 0.501112 -0.128215
C37   C     C_3   0.187324 0.688625 0.498211 -0.143285
C38   C     C_3   0.187325 0.311380 0.501786 -0.143259
C39   C     C_3   0.687324 0.188625 0.498211 -0.143285
C40   C     C_3   0.687325 0.811380 0.501786 -0.143259
C41   C     C_3   0.157449 0.785488 0.538371 -0.599157
C42   C     C_3   0.157443 0.214504 0.461715 -0.599167
C43   C     C_3   0.657449 0.285488 0.538371 -0.599157
C44   C     C_3   0.657443 0.714504 0.461715 -0.599167
C45   C     C_3   0.957331 0.579531 0.084377 -0.098134
C46   C     C_3   0.963696 0.583583 0.916941 -0.106112
C47   C     C_3   0.963714 0.416405 0.083059 -0.106116
C48   C     C_3   0.957345 0.420457 0.915622 -0.098131
C49   C     C_3   0.457331 0.079531 0.084377 -0.098134
C50   C     C_3   0.463696 0.083583 0.916941 -0.106112
C51   C     C_3   0.463714 0.916405 0.083059 -0.106116
C52   C     C_3   0.457345 0.920457 0.915622 -0.098131
Cu1   Cu    Cu3+1 0.000100 0.500000 0.642410 0.966155
Cu2   Cu    Cu3+1 0.000100 0.500000 0.357590 0.966186
Cu3   Cu    Cu3+1 0.500100 0.000000 0.642410 0.966155
Cu4   Cu    Cu3+1 0.500100 0.000000 0.357590 0.966186
H1    H     H_    0.223564 0.646877 0.706776 0.102098
H2    H     H_    0.175480 0.715029 0.276167 0.106179
H3    H     H_    0.175533 0.285055 0.723863 0.106174
H4    H     H_    0.223514 0.353053 0.293162 0.102095
H5    H     H_    0.723564 0.146877 0.706776 0.102098
H6    H     H_    0.675480 0.215029 0.276167 0.106179
H7    H     H_    0.675533 0.785055 0.723863 0.106174
H8    H     H_    0.723514 0.853053 0.293162 0.102095
H9    H     H_    0.733108 0.389260 0.641315 0.214875
H10   H     H_    0.714888 0.410555 0.461857 0.197468
H11   H     H_    0.714908 0.589446 0.538202 0.197464
H12   H     H_    0.733087 0.610738 0.358732 0.214880
H13   H     H_    0.233108 0.889260 0.641315 0.214875
H14   H     H_    0.214888 0.910555 0.461857 0.197468
H15   H     H_    0.214908 0.089446 0.538202 0.197464
H16   H     H_    0.233087 0.110738 0.358732 0.214880
H17   H     H_    0.129173 0.785400 0.643594 0.247924
H18   H     H_    0.110054 0.807626 0.462420 0.232437
H19   H     H_    0.110088 0.192381 0.537746 0.232460
H20   H     H_    0.129115 0.214559 0.356531 0.247917
H21   H     H_    0.629173 0.285400 0.643594 0.247924
H22   H     H_    0.610054 0.307626 0.462420 0.232437
H23   H     H_    0.610088 0.692381 0.537746 0.232460
H24   H     H_    0.629115 0.714559 0.356531 0.247917
H25   H     H_    0.891515 0.572810 0.112557 0.159609
H26   H     H_    0.901249 0.590435 0.876008 0.156649
H27   H     H_    0.901268 0.409530 0.123992 0.156622
H28   H     H_    0.891526 0.427162 0.887447 0.159579
H29   H     H_    0.391515 0.072810 0.112557 0.159609
H30   H     H_    0.401249 0.090435 0.876008 0.156649
H31   H     H_    0.401268 0.909530 0.123992 0.156622
H32   H     H_    0.391526 0.927162 0.887447 0.159579
H33   H     H_    0.117739 0.569219 0.112197 0.190333
H34   H     H_    0.127101 0.548322 0.871108 0.187100
H35   H     H_    0.127110 0.451708 0.128895 0.187123
H36   H     H_    0.117750 0.430807 0.887803 0.190275
H37   H     H_    0.617739 0.069219 0.112197 0.190333
H38   H     H_    0.627101 0.048322 0.871108 0.187100
H39   H     H_    0.627110 0.951708 0.128895 0.187123
H40   H     H_    0.617750 0.930807 0.887803 0.190275
N1    N     N_3   0.001260 0.500000 0.143650 -0.203489
N2    N     N_3   0.001260 0.500000 0.856350 -0.203477
N3    N     N_3   0.501260 0.000000 0.143650 -0.203489
N4    N     N_3   0.501260 0.000000 0.856350 -0.203477
O1    O     O_R   0.091250 0.408820 0.620260 -0.561573
O2    O     O_R   0.091250 0.408820 0.379740 -0.595055
O3    O     O_R   0.091250 0.591180 0.620260 -0.595091
O4    O     O_R   0.091250 0.591180 0.379740 -0.561503
O5    O     O_R   0.591250 0.908820 0.620260 -0.561573
O6    O     O_R   0.591250 0.908820 0.379740 -0.595055
O7    O     O_R   0.591250 0.091180 0.620260 -0.595091
O8    O     O_R   0.591250 0.091180 0.379740 -0.561503
O9    O     O_R   0.908940 0.408800 0.620260 -0.594754
O10   O     O_R   0.908940 0.408800 0.379740 -0.602290
O11   O     O_R   0.908940 0.591200 0.620260 -0.602279
O12   O     O_R   0.908940 0.591200 0.379740 -0.594752
O13   O     O_R   0.408940 0.908800 0.620260 -0.594754
O14   O     O_R   0.408940 0.908800 0.379740 -0.602290
O15   O     O_R   0.408940 0.091200 0.620260 -0.602279
O16   O     O_R   0.408940 0.091200 0.379740 -0.594752
C53   C     C_1   0.819773 0.262961 0.759552 0.210110
N5    N     N_1   0.812118 0.285898 0.875073 -0.282942
C54   C     C_1   0.775308 0.332296 0.240431 0.191613
N6    N     N_1   0.754610 0.385933 0.159005 -0.253513
C55   C     C_1   0.775334 0.667767 0.759581 0.191620
N7    N     N_1   0.754628 0.614149 0.841030 -0.253499
C56   C     C_1   0.819750 0.737000 0.240423 0.210099
N8    N     N_1   0.812086 0.714042 0.124914 -0.282924
C57   C     C_1   0.319773 0.762961 0.759552 0.210110
N9    N     N_1   0.312118 0.785897 0.875073 -0.282942
C58   C     C_1   0.275308 0.832296 0.240431 0.191613
N10   N     N_1   0.254610 0.885933 0.159005 -0.253513
C59   C     C_1   0.275334 0.167767 0.759581 0.191620
N11   N     N_1   0.254628 0.114149 0.841030 -0.253499
C60   C     C_1   0.319750 0.237000 0.240423 0.210099
N12   N     N_1   0.312086 0.214042 0.124914 -0.282924
C61   C     C_1   0.904166 0.182838 0.597222 0.399875
N13   N     N_1   0.965522 0.144207 0.583962 -0.227353
C62   C     C_1   0.871278 0.214095 0.296716 0.378373
N14   N     N_1   0.926426 0.171008 0.259153 -0.186011
C63   C     C_1   0.871316 0.785949 0.703216 0.378312
N15   N     N_1   0.926471 0.829042 0.740736 -0.186003
C64   C     C_1   0.904147 0.817171 0.402698 0.399915
N16   N     N_1   0.965500 0.855813 0.415930 -0.227311
C65   C     C_1   0.404166 0.682838 0.597222 0.399875
N17   N     N_1   0.465522 0.644207 0.583962 -0.227353
C66   C     C_1   0.371278 0.714095 0.296716 0.378373
N18   N     N_1   0.426426 0.671008 0.259153 -0.186011
C67   C     C_1   0.371316 0.285949 0.703216 0.378312
N19   N     N_1   0.426471 0.329042 0.740736 -0.186003
C68   C     C_1   0.404147 0.317171 0.402698 0.399915
N20   N     N_1   0.465500 0.355813 0.415930 -0.227311
F1    F     F_    0.282971 0.572601 0.565687 -0.512553
F2    F     F_    0.248293 0.607526 0.304418 -0.584192
F3    F     F_    0.248348 0.392538 0.695469 -0.584179
F4    F     F_    0.282938 0.427399 0.434138 -0.512585
F5    F     F_    0.782971 0.072601 0.565687 -0.512553
F6    F     F_    0.748293 0.107526 0.304418 -0.584192
F7    F     F_    0.748348 0.892538 0.695469 -0.584179
F8    F     F_    0.782938 0.927399 0.434138 -0.512585
C69   C     C_1   0.988850 0.663868 0.150474 0.332164
N21   N     N_1   0.015518 0.729755 0.198083 -0.301646
C70   C     C_1   0.010452 0.663965 0.869372 0.294463
N22   N     N_1   0.050289 0.725648 0.838720 -0.287598
C71   C     C_1   0.010487 0.336034 0.130627 0.294457
N23   N     N_1   0.050334 0.274360 0.161286 -0.287592
C72   C     C_1   0.988871 0.336125 0.849519 0.332182
N24   N     N_1   0.015540 0.270242 0.801902 -0.301639
C73   C     C_1   0.488850 0.163868 0.150474 0.332164
N25   N     N_1   0.515518 0.229755 0.198083 -0.301646
C74   C     C_1   0.510452 0.163965 0.869372 0.294463
N26   N     N_1   0.550289 0.225648 0.838720 -0.287598
C75   C     C_1   0.510487 0.836034 0.130627 0.294457
N27   N     N_1   0.550334 0.774360 0.161286 -0.287592
C76   C     C_1   0.488871 0.836125 0.849519 0.332182
N28   N     N_1   0.515540 0.770241 0.801902 -0.301639

loop_
_geom_bond_atom_site_label_1
_geom_bond_atom_site_label_2
_ccdc_geom_bond_type
C16   C28   S    
C76   N28   T    
C22   F2    S    
C19   C59   S    
C69   N21   T    
C1    O1    A    
C75   N27   T    
C72   N24   T    
C8    H40   S    
Cu3   Cu4   S    
C13   C25   S    
C14   C33   S    
C67   N19   T    
C62   N14   T    
C32   H16   S    
C48   C72   S    
C45   C46   S    
C3    O5    A    
C43   H22   S    
C23   H3    S    
C4    O8    A    
C42   H19   S    
C19   C67   S    
C7    N3    S    
Cu3   O5    S    
C37   C41   S    
C32   C36   S    
Cu2   O4    S    
C18   C66   S    
C16   C56   S    
C38   C42   S    
C19   C36   S    
C5    C6    S    
C26   C39   S    
C14   C62   S    
C28   C40   S    
C66   N18   T    
C29   C33   S    
Cu2   O10   S    
C17   C65   S    
C11   O14   A    
Cu4   O8    S    
C24   F4    S    
C68   N20   T    
C16   C34   S    
C41   H18   S    
C46   H26   S    
C31   H14   S    
C20   C24   S    
Cu1   O1    S    
Cu3   N4    S    
C24   C38   S    
Cu2   N1    S    
C10   O12   A    
C21   F1    S    
C12   C36   S    
C15   C55   S    
C18   C35   S    
C15   C34   S    
C30   H11   S    
C12   O15   A    
Cu1   O11   S    
C46   N2    S    
C29   C43   S    
C9    C33   S    
C30   C44   S    
C52   C76   S    
C71   N23   T    
C32   H15   S    
C3    O6    A    
C9    O9    A    
C7    H37   S    
C4    O7    A    
C30   C34   S    
C25   F5    S    
C51   C52   S    
C14   C54   S    
C47   C48   S    
C49   H29   S    
C56   N8    T    
C8    H38   S    
C51   H31   S    
C74   N26   T    
C39   C43   S    
Cu3   O13   S    
C6    H34   S    
C22   C37   S    
C52   N4    S    
C17   C21   S    
C48   H28   S    
Cu3   O7    S    
C20   C36   S    
C19   C23   S    
C21   H1    S    
C18   C58   S    
C49   N3    S    
C51   N3    S    
C31   H13   S    
C15   C27   S    
C70   N22   T    
C4    C39   S    
C44   H24   S    
C27   C40   S    
C24   H4    S    
Cu4   O16   S    
C20   C68   S    
C45   C69   S    
C10   O11   A    
C10   C34   S    
C25   H5    S    
C14   C26   S    
Cu4   O6    S    
C55   N7    T    
C5    H35   S    
C27   H7    S    
C1    C38   S    
C29   H9    S    
C28   H8    S    
C5    N1    S    
C3    C40   S    
C49   C50   S    
C47   H27   S    
C61   N13   T    
C31   C35   S    
C26   F6    S    
C16   C64   S    
C20   C60   S    
C58   N10   T    
C6    N2    S    
C7    H39   S    
C64   N16   T    
C59   N11   T    
Cu1   O9    S    
C9    O10   A    
C2    O4    A    
C23   F3    S    
C32   C42   S    
C31   C41   S    
C18   C22   S    
C13   C61   S    
C49   C73   S    
Cu2   O2    S    
C44   H23   S    
C45   H25   S    
C22   H2    S    
C13   C53   S    
C54   N6    T    
Cu1   Cu2   S    
Cu1   N2    S    
C43   H21   S    
C23   C38   S    
C48   N2    S    
C63   N15   T    
C42   H20   S    
C47   N1    S    
C11   C35   S    
C26   H6    S    
C45   N1    S    
C65   N17   T    
C25   C39   S    
C2    C37   S    
C17   C57   S    
C57   N9    T    
Cu3   O15   S    
C2    O3    A    
Cu1   O3    S    
C6    H36   S    
C46   C70   S    
C8    N4    S    
C11   O13   A    
C52   H32   S    
C5    H33   S    
C50   N4    S    
C7    C8    S    
C50   H30   S    
C41   H17   S    
C29   H10   S    
C47   C71   S    
C73   N25   T    
C40   C44   S    
C21   C37   S    
C13   C33   S    
C50   C74   S    
C28   F8    S    
Cu4   O14   S    
Cu2   O12   S    
C17   C35   S    
Cu4   N3    S    
C12   O16   A    
C53   N5    T    
C1    O2    A    
C30   H12   S    
C60   N12   T    
C51   C75   S    
C15   C63   S    
C27   F7    S    
