data_mof_unit_24064.cif
_audit_creation_date              2012-12-10T17:49:37-0500
_audit_creation_method            fapswitch 2.2
_symmetry_space_group_name_H-M    P1
_symmetry_Int_Tables_number       1
_space_group_crystal_system       triclinic
_cell_length_a                    14.709984
_cell_length_b                    14.734602
_cell_length_c                    15.873886
_cell_angle_alpha                 76.939003
_cell_angle_beta                  102.719338
_cell_angle_gamma                 114.706598
_cell_volume                      3013.90416239

loop_
_atom_site_label
_atom_site_type_symbol
_atom_type_description
_atom_site_fract_x
_atom_site_fract_y
_atom_site_fract_z
_atom_type_partial_charge
C1    C     C_R   0.880403 0.312432 0.514526 0.793866
C2    C     C_3   0.054759 0.433095 0.073549 -0.374967
C3    C     C_3   0.999871 0.499288 0.082869 0.328289
C4    C     C_3   0.054401 0.608291 0.037184 -0.379106
C5    C     C_3   0.053781 0.608394 0.939417 -0.374706
C6    C     C_1   0.000461 0.499297 0.175180 -0.116075
C7    C     C_1   0.998508 0.499627 0.824807 -0.114648
C8    C     C_1   0.998762 0.499808 0.749233 -0.179215
C9    C     C_R   0.812748 0.205165 0.524743 -0.051416
C10   C     C_R   0.187112 0.794815 0.479170 -0.051721
C11   C     C_R   0.783798 0.027948 0.563427 -0.201259
C12   C     C_R   0.999611 0.499925 0.659670 0.831171
C13   C     C_R   0.850378 0.128802 0.553284 -0.198555
C14   C     C_R   0.708301 0.179689 0.506620 -0.255793
C15   C     C_R   0.639357 0.078861 0.519145 0.087332
C16   C     C_R   0.678956 0.002460 0.546510 0.163926
C17   C     C_R   0.532669 0.051994 0.504498 0.067657
C18   C     C_R   0.466987 0.947935 0.512060 0.062862
C19   C     C_R   0.510032 0.874259 0.540029 -0.226739
C20   C     C_R   0.613814 0.901345 0.557064 -0.231118
C21   C     C_R   0.489492 0.125538 0.484432 -0.243502
C22   C     C_R   0.385690 0.098362 0.470286 -0.243917
C23   C     C_R   0.119581 0.687562 0.485490 0.793370
C24   C     C_R   0.320644 0.997332 0.474089 0.169749
C25   C     C_R   0.360348 0.921101 0.493425 0.088073
C26   C     C_R   0.215800 0.971744 0.458776 -0.200836
C27   C     C_R   0.149339 0.870947 0.462096 -0.199282
C28   C     C_R   0.291569 0.820471 0.492677 -0.255730
C29   C     C_R   0.714230 0.666828 0.355048 -0.324061
C30   C     C_R   0.796132 0.637846 0.377771 0.076212
C31   C     C_R   0.715547 0.509857 0.489069 0.004679
C32   C     C_R   0.629674 0.536066 0.469664 -0.013888
C33   C     C_R   0.630993 0.616475 0.400746 0.165818
C34   C     C_R   0.000263 0.499900 0.340334 0.829558
C35   C     C_R   0.543665 0.486372 0.515803 0.056634
C36   C     C_R   0.459952 0.517265 0.490884 0.074218
C37   C     C_R   0.466062 0.598482 0.421978 -0.232234
C38   C     C_R   0.549755 0.646732 0.378136 -0.199638
C39   C     C_R   0.539569 0.408075 0.586715 -0.286330
C40   C     C_R   0.456898 0.360110 0.632607 0.003782
C41   C     C_R   0.372276 0.387082 0.606469 0.112067
C42   C     C_R   0.373126 0.466245 0.535773 -0.038044
C43   C     C_R   0.285726 0.335201 0.648750 -0.323570
C44   C     C_R   0.203095 0.362731 0.622893 0.074958
C45   C     C_3   0.054140 0.433187 0.975776 -0.377607
C46   C     C_R   0.285764 0.490302 0.512755 0.016219
C47   C     C_3   0.889179 0.456666 0.938067 -0.374301
C48   C     C_3   0.889793 0.456566 0.035860 -0.375608
C49   C     C_1   0.000668 0.499497 0.250776 -0.180894
C50   C     C_3   0.998837 0.499459 0.917090 0.326594
Cu1   Cu    Cu3+1 0.081750 0.475690 0.522550 0.934550
Cu2   Cu    Cu3+1 0.918250 0.524310 0.477450 0.935186
H1    H     H_    0.016868 0.354193 0.105779 0.161904
H2    H     H_    0.133302 0.462467 0.962028 0.162635
H3    H     H_    0.134209 0.462352 0.106694 0.162781
H4    H     H_    0.016262 0.657455 0.042852 0.160936
H5    H     H_    0.643302 0.842357 0.578657 0.147389
H6    H     H_    0.317279 0.760205 0.501141 0.149243
H7    H     H_    0.068718 0.852711 0.451279 0.153831
H8    H     H_    0.356147 0.157236 0.456285 0.148872
H9    H     H_    0.814277 0.969739 0.584914 0.133001
H10   H     H_    0.930981 0.146896 0.567560 0.152208
H11   H     H_    0.682772 0.240341 0.481357 0.153243
H12   H     H_    0.015955 0.354325 0.961105 0.160880
H13   H     H_    0.465944 0.794353 0.552000 0.146111
H14   H     H_    0.533357 0.205378 0.481906 0.144103
H15   H     H_    0.185231 0.029802 0.444715 0.133736
H16   H     H_    0.550853 0.708728 0.325784 0.139263
H17   H     H_    0.279458 0.548560 0.459979 0.120938
H18   H     H_    0.137082 0.322757 0.655871 0.124507
H19   H     H_    0.716192 0.728662 0.302360 0.135141
H20   H     H_    0.860888 0.677240 0.343165 0.123879
H21   H     H_    0.721643 0.449937 0.540103 0.125586
H22   H     H_    0.847766 0.503126 0.896794 0.164183
H23   H     H_    0.407553 0.627731 0.400281 0.130149
H24   H     H_    0.601326 0.383524 0.609961 0.138679
H25   H     H_    0.280550 0.272721 0.701222 0.153408
H26   H     H_    0.848016 0.378235 0.922690 0.164361
H27   H     H_    0.848918 0.378082 0.067394 0.162257
H28   H     H_    0.848660 0.502974 0.041494 0.162424
H29   H     H_    0.132935 0.640879 0.925000 0.161999
H30   H     H_    0.015332 0.657595 0.898185 0.162157
H31   H     H_    0.133850 0.640711 0.069664 0.160763
N1    N     N_R   0.795410 0.560790 0.443550 -0.177339
N2    N     N_R   0.204590 0.439170 0.556520 -0.176245
O1    O     O_R   0.977910 0.338120 0.529720 -0.590298
O2    O     O_R   0.839850 0.379180 0.491640 -0.591629
O3    O     O_R   0.069060 0.479460 0.639610 -0.578513
O4    O     O_R   0.931000 0.520530 0.601530 -0.577379
O5    O     O_R   0.160150 0.620820 0.508360 -0.590950
O6    O     O_R   0.022090 0.661880 0.470280 -0.589804
O7    O     O_R   0.069000 0.479470 0.398470 -0.578201
O8    O     O_R   0.930940 0.520540 0.360390 -0.577975
C51   C     C_R   0.463161 0.282982 0.709485 0.108245
C52   C     C_R   0.466968 0.300203 0.793944 -0.159955
C53   C     C_R   0.475322 0.228372 0.866444 -0.142938
C54   C     C_R   0.480572 0.139377 0.855163 -0.115874
C55   C     C_R   0.477704 0.122177 0.771375 -0.129564
C56   C     C_R   0.469370 0.193838 0.698784 -0.155627
H32   H     H_    0.463694 0.369223 0.803480 0.128981
H33   H     H_    0.478006 0.241820 0.931386 0.126211
H34   H     H_    0.487132 0.083901 0.911344 0.120103
H35   H     H_    0.482125 0.053435 0.762656 0.132948
H36   H     H_    0.467525 0.179936 0.634346 0.143228

loop_
_geom_bond_atom_site_label_1
_geom_bond_atom_site_label_2
_ccdc_geom_bond_type
C10   C27   A    
C1    O2    A    
C21   H14   S    
C41   C42   A    
C36   C42   A    
C52   C53   A    
C34   O8    A    
C9    C14   A    
C3    C6    S    
Cu1   N2    S    
C54   C55   A    
C7    C8    T    
C25   C28   A    
C26   C27   A    
C29   C30   A    
C26   H15   S    
C45   C50   S    
C48   H27   S    
C36   C37   A    
C24   C26   A    
C2    H3    S    
Cu1   O5    S    
C22   H8    S    
C31   H21   S    
C15   C16   A    
C29   C33   A    
C3    C48   S    
C18   C19   A    
C42   C46   A    
Cu2   N1    S    
C9    C13   A    
C46   H17   S    
C13   H10   S    
C47   C48   S    
C55   H35   S    
C44   H18   S    
C54   H34   S    
C8    C12   S    
C46   N2    A    
C56   H36   S    
C37   H23   S    
C53   H33   S    
C4    H4    S    
C41   C43   A    
Cu2   O4    S    
C18   C25   A    
Cu1   O1    S    
C47   C50   S    
C2    C45   S    
C12   O3    A    
Cu1   Cu2   S    
C32   C35   A    
C12   O4    A    
C1    C9    S    
C24   C25   A    
C47   H22   S    
C39   C40   A    
C52   H32   S    
C17   C21   A    
C31   N1    A    
C35   C36   A    
C35   C39   A    
C43   C44   A    
C37   C38   A    
Cu1   O7    S    
C5    H29   S    
C11   C16   A    
C31   C32   A    
C16   C20   A    
C53   C54   A    
C17   C18   A    
C23   O5    A    
Cu2   O8    S    
C39   H24   S    
C40   C41   A    
C38   H16   S    
C45   H2    S    
C23   O6    A    
C5    C50   S    
C3    C4    S    
C10   C28   A    
C1    O1    A    
C15   C17   A    
C34   C49   S    
Cu2   O2    S    
C7    C50   S    
C40   C51   S    
C4    C5    S    
C11   H9    S    
C2    H1    S    
Cu1   O3    S    
C30   H20   S    
C28   H6    S    
C10   C23   S    
C43   H25   S    
C45   H12   S    
C33   C38   A    
C32   C33   A    
C48   H28   S    
C19   C20   A    
C2    C3    S    
C27   H7    S    
C5    H30   S    
C11   C13   A    
C4    H31   S    
C51   C56   A    
C14   H11   S    
C19   H13   S    
C22   C24   A    
C6    C49   T    
C30   N1    A    
C51   C52   A    
C34   O7    A    
C55   C56   A    
C14   C15   A    
Cu2   O6    S    
C47   H26   S    
C20   H5    S    
C21   C22   A    
C44   N2    A    
C29   H19   S    
