data_mof_unit_33346.cif
_audit_creation_date              2012-10-26T17:11:05-0400
_audit_creation_method            fapswitch 2.2
_symmetry_space_group_name_H-M    P1
_symmetry_Int_Tables_number       1
_space_group_crystal_system       triclinic
_cell_length_a                    28.026193
_cell_length_b                    18.706124
_cell_length_c                    16.799049
_cell_angle_alpha                 89.93625
_cell_angle_beta                  62.830284
_cell_angle_gamma                 90.182095
_cell_volume                      7835.22789462

loop_
_atom_site_label
_atom_site_type_symbol
_atom_type_description
_atom_site_fract_x
_atom_site_fract_y
_atom_site_fract_z
_atom_type_partial_charge
C1    C     C_R   0.295404 0.729253 0.329286 0.565962
C2    C     C_R   0.461388 0.129086 0.462000 -0.127843
C3    C     C_R   0.926411 0.096793 0.066656 0.558949
C4    C     C_R   0.426698 0.402807 0.066482 0.560515
C5    C     C_R   0.573428 0.597139 0.933476 0.554986
C6    C     C_R   0.573483 0.403056 0.933422 0.556608
C7    C     C_R   0.426336 0.596703 0.066736 0.556775
C8    C     C_R   0.053102 0.496394 0.485025 0.043202
C9    C     C_R   0.954000 0.495695 0.478804 0.043022
C10   C     C_R   0.552394 0.000144 0.491958 0.036992
C11   C     C_R   0.460568 0.000152 0.462047 0.042475
C12   C     C_R   0.022399 0.559316 0.502877 0.003830
C13   C     C_R   0.470205 0.873905 0.427754 -0.129460
C14   C     C_R   0.987113 0.434503 0.451106 0.009614
C15   C     C_R   0.970376 0.556674 0.509498 0.004757
C16   C     C_R   0.034980 0.433117 0.461330 0.009198
C17   C     C_R   0.522170 0.063047 0.505520 -0.001396
C18   C     C_R   0.488911 0.936014 0.452716 0.006843
C19   C     C_R   0.480032 0.064662 0.480513 0.001536
C20   C     C_R   0.537548 0.937749 0.460539 0.002862
C21   C     C_R   0.132864 0.434847 0.476073 0.005587
C22   C     C_R   0.871237 0.557697 0.503647 -0.000871
C23   C     C_R   0.888164 0.436777 0.442042 -0.001015
C24   C     C_R   0.533519 0.121498 0.546909 -0.126790
C25   C     C_R   0.126059 0.564245 0.493248 0.011765
C26   C     C_R   0.632686 0.939631 0.482526 -0.005665
C27   C     C_R   0.389696 0.066305 0.446379 0.001586
C28   C     C_R   0.391104 0.935761 0.438578 0.007686
C29   C     C_R   0.613596 0.062637 0.538574 -0.004562
C30   C     C_R   0.176382 0.435092 0.499115 -0.005369
C31   C     C_R   0.826524 0.562244 0.484983 0.001807
C32   C     C_R   0.834483 0.435084 0.454476 0.011530
C33   C     C_R   0.173103 0.564767 0.507296 -0.003097
C34   C     C_R   0.674660 0.936859 0.508523 -0.005829
C35   C     C_R   0.067985 0.372678 0.440670 -0.122176
C36   C     C_R   0.336434 0.065986 0.454356 -0.000457
C37   C     C_R   0.336837 0.935108 0.451725 0.007299
C38   C     C_R   0.665275 0.064496 0.537411 0.002956
C39   C     C_R   0.195244 0.499972 0.514424 -0.150127
C40   C     C_R   0.807034 0.499373 0.465913 -0.139311
C41   C     C_R   0.691787 0.000207 0.531056 -0.144437
C42   C     C_R   0.311097 0.000424 0.458336 -0.146949
C43   C     C_R   0.103165 0.498067 0.487950 0.011940
C44   C     C_R   0.904749 0.496881 0.474075 0.000362
C45   C     C_R   0.599188 0.000569 0.505487 -0.000308
C46   C     C_R   0.933276 0.611893 0.550270 -0.129718
C47   C     C_R   0.413190 0.000593 0.450617 0.005116
C48   C     C_R   0.623387 0.885280 0.432320 0.063130
C49   C     C_R   0.421775 0.128812 0.432777 0.065039
C50   C     C_R   0.424998 0.875119 0.412583 0.063450
C51   C     C_R   0.575929 0.119698 0.569879 0.063324
C52   C     C_R   0.118370 0.375572 0.438572 0.070801
C53   C     C_R   0.882262 0.609140 0.554665 0.064803
C54   C     C_R   0.925474 0.381156 0.400197 0.063161
C55   C     C_R   0.102054 0.626311 0.478358 0.063259
C56   C     C_2   0.666734 0.841912 0.364381 0.625025
C57   C     C_R   0.972933 0.379096 0.408733 -0.122790
C58   C     C_2   0.424511 0.186771 0.369977 0.627763
C59   C     C_2   0.421834 0.820159 0.351199 0.612871
C60   C     C_2   0.574236 0.172084 0.637717 0.613856
C61   C     C_2   0.158557 0.327077 0.373183 0.622923
C62   C     C_2   0.837887 0.643930 0.631860 0.614906
C63   C     C_2   0.920341 0.331224 0.335570 0.604130
C64   C     C_2   0.134469 0.677343 0.406137 0.628412
C65   C     C_2   0.165333 0.660326 0.015496 0.643142
C66   C     C_2   0.706497 0.142474 0.141733 0.641770
C67   C     C_2   0.816775 0.635703 0.020218 0.629873
C68   C     C_R   0.047585 0.624727 0.500366 -0.137482
C69   C     C_2   0.191427 0.357981 0.964173 0.629552
C70   C     C_2   0.792291 0.356020 0.858955 0.636624
C71   C     C_2   0.337442 0.850093 0.985364 0.629626
C72   C     C_2   0.310386 0.135044 0.036267 0.635052
C73   C     C_2   0.685480 0.858418 0.979061 0.631449
C74   C     C_R   0.222241 0.770455 0.952619 -0.067277
C75   C     C_R   0.778830 0.230144 0.046430 -0.064920
C76   C     C_R   0.782404 0.762129 0.044062 -0.069625
C77   C     C_R   0.705044 0.271680 0.670399 0.568447
C78   C     C_R   0.221221 0.230039 0.954124 -0.064400
C79   C     C_R   0.720197 0.268388 0.954429 -0.061988
C80   C     C_R   0.282725 0.737609 0.043409 -0.069940
C81   C     C_R   0.282092 0.263448 0.044107 -0.069080
C82   C     C_R   0.720222 0.732377 0.954909 -0.055363
C83   C     C_R   0.210155 0.708120 0.006008 0.033221
C84   C     C_R   0.728465 0.197564 0.069802 0.034236
C85   C     C_R   0.783125 0.692815 0.010079 0.036576
C86   C     C_R   0.222519 0.301122 0.981601 0.030604
C87   C     C_R   0.770546 0.300967 0.931026 0.036254
C88   C     C_R   0.704303 0.729904 0.670906 0.563159
C89   C     C_R   0.294030 0.800852 0.991712 0.034233
C90   C     C_R   0.280392 0.192322 0.017257 0.028798
C91   C     C_R   0.719322 0.801566 0.989218 0.033085
C92   C     C_R   0.241087 0.691469 0.050235 0.201427
C93   C     C_R   0.699332 0.217013 0.023487 0.218650
C94   C     C_R   0.751981 0.678300 0.965485 0.215702
C95   C     C_R   0.252736 0.317404 0.027239 0.207638
C96   C     C_R   0.799621 0.281681 0.977582 0.212584
C97   C     C_R   0.263914 0.816568 0.945633 0.212453
C98   C     C_R   0.250038 0.175950 0.972017 0.208680
C99   C     C_R   0.295785 0.270056 0.329165 0.593074
C100  C     C_R   0.750104 0.815935 0.034487 0.202640
C101  C     C_R   0.145306 0.830796 0.944143 -0.064869
C102  C     C_R   0.855110 0.169454 0.055906 -0.026970
C103  C     C_R   0.857474 0.826162 0.054316 -0.032281
C104  C     C_R   0.144790 0.169603 0.944323 -0.024581
C105  C     C_R   0.644132 0.329327 0.944671 -0.020567
C106  C     C_R   0.356944 0.672732 0.054503 -0.015432
C107  C     C_R   0.357405 0.326675 0.054383 -0.035538
C108  C     C_R   0.643952 0.671447 0.944947 -0.026601
C109  C     C_R   0.118231 0.852354 0.895290 -0.005443
C110  C     C_R   0.794767 0.227956 0.329720 0.555077
C111  C     C_R   0.881957 0.147689 0.104869 -0.001504
C112  C     C_R   0.883126 0.850327 0.104179 -0.001437
C113  C     C_R   0.117860 0.148109 0.895400 -0.002968
C114  C     C_R   0.617638 0.351694 0.895401 -0.000702
C115  C     C_R   0.382543 0.648648 0.104498 -0.000497
C116  C     C_R   0.383238 0.350314 0.104131 0.000478
C117  C     C_R   0.617189 0.649446 0.895910 -0.004380
C118  C     C_R   0.136768 0.829755 0.807002 -0.128423
C119  C     C_R   0.863296 0.170105 0.193251 -0.130729
C120  C     C_R   0.864408 0.828200 0.192741 -0.116318
C121  C     C_R   0.205238 0.772030 0.670310 0.548007
C122  C     C_R   0.136429 0.170803 0.807160 -0.125749
C123  C     C_R   0.636374 0.329389 0.806934 -0.115311
C124  C     C_R   0.363493 0.670322 0.193244 -0.132386
C125  C     C_R   0.364518 0.328092 0.192674 -0.105912
C126  C     C_R   0.635325 0.672891 0.807987 -0.125417
C127  C     C_R   0.183008 0.788286 0.765915 -0.005935
C128  C     C_R   0.817218 0.211938 0.234079 -0.016511
C129  C     C_R   0.820559 0.782033 0.231985 0.020502
C130  C     C_R   0.182735 0.212441 0.766120 -0.007560
C131  C     C_R   0.682301 0.287235 0.766246 0.004661
C132  C     C_R   0.205097 0.228233 0.670408 0.552867
C133  C     C_R   0.319170 0.715411 0.232695 -0.007640
C134  C     C_R   0.319548 0.283875 0.232674 0.032691
C135  C     C_R   0.680653 0.716487 0.767646 -0.019950
C136  C     C_R   0.210138 0.767451 0.814764 -0.028646
C137  C     C_R   0.790548 0.233524 0.184822 -0.074093
C138  C     C_R   0.797301 0.754329 0.179894 -0.055923
C139  C     C_R   0.209804 0.233624 0.815127 -0.075306
C140  C     C_R   0.708660 0.265129 0.815815 -0.073446
C141  C     C_R   0.295456 0.742161 0.180927 -0.084912
C142  C     C_R   0.294704 0.258830 0.181843 -0.037953
C143  C     C_R   0.796197 0.769155 0.328937 0.575810
C144  C     C_R   0.706455 0.740130 0.817897 -0.096807
C145  C     C_R   0.191296 0.788506 0.903830 0.059029
C146  C     C_R   0.809305 0.212042 0.095932 0.057193
C147  C     C_R   0.813941 0.779097 0.092491 0.062961
C148  C     C_R   0.190980 0.211866 0.904132 0.061711
C149  C     C_R   0.689768 0.286421 0.904833 0.061549
C150  C     C_R   0.313322 0.719246 0.092691 0.062742
C151  C     C_R   0.312674 0.281751 0.093510 0.058657
C152  C     C_R   0.688943 0.716047 0.905862 0.054325
C153  C     C_R   0.199600 0.631112 0.515975 0.557063
C154  C     C_R   0.574534 0.881736 0.429355 -0.124493
C155  C     C_R   0.803455 0.367935 0.470326 0.575978
C156  C     C_R   0.799677 0.630578 0.484766 0.566746
C157  C     C_R   0.201285 0.368823 0.511255 0.562053
C158  C     C_R   0.696547 0.131607 0.527444 0.573785
C159  C     C_R   0.303648 0.868339 0.471142 0.566870
C160  C     C_R   0.303370 0.131820 0.472236 0.564222
C161  C     C_R   0.700728 0.869234 0.513655 0.568166
C162  C     C_R   0.926487 0.903056 0.066645 0.554902
C163  C     C_R   0.073463 0.096991 0.933458 0.557249
C164  C     C_R   0.073637 0.903199 0.933374 0.554771
Cl1   Cl    Cl    0.279565 0.892803 0.875192 -0.458759
Cl2   Cl    Cl    0.860617 0.325867 0.954690 -0.507238
Cl3   Cl    Cl    0.744997 0.900166 0.086250 -0.461228
Cl4   Cl    Cl    0.251283 0.088246 0.931184 -0.452039
Cl5   Cl    Cl    0.638146 0.173118 0.046922 -0.476398
Cl6   Cl    Cl    0.229622 0.610438 0.111343 -0.437325
Cl7   Cl    Cl    0.250186 0.404465 0.070836 -0.433935
Cl8   Cl    Cl    0.755608 0.593312 0.916444 -0.517611
Cu1   Cu    Cu3+1 0.209920 0.785290 0.495070 1.045725
Cu2   Cu    Cu3+1 0.504760 0.500000 0.075850 1.017762
Cu3   Cu    Cu3+1 0.995240 0.000000 0.924150 1.002543
Cu4   Cu    Cu3+1 0.004760 0.000000 0.075850 1.015616
Cu5   Cu    Cu3+1 0.790080 0.214710 0.504930 1.038740
Cu6   Cu    Cu3+1 0.790080 0.785290 0.504930 1.032024
Cu7   Cu    Cu3+1 0.209920 0.214710 0.495070 1.031491
Cu8   Cu    Cu3+1 0.709920 0.285290 0.495070 1.026104
Cu9   Cu    Cu3+1 0.290080 0.714710 0.504930 1.042631
Cu10  Cu    Cu3+1 0.290080 0.285290 0.504930 1.027734
Cu11  Cu    Cu3+1 0.709920 0.714710 0.495070 1.026446
Cu12  Cu    Cu3+1 0.495240 0.500000 0.924150 1.001313
H1    H     H_    0.228625 0.500086 0.530301 0.161118
H2    H     H_    0.941643 0.652791 0.587841 0.150929
H3    H     H_    0.000233 0.336161 0.375097 0.150605
H4    H     H_    0.028779 0.673970 0.495624 0.148433
H5    H     H_    0.131924 0.848560 0.012380 0.151389
H6    H     H_    0.868490 0.151567 0.987710 0.162195
H7    H     H_    0.870031 0.845397 0.986768 0.157670
H8    H     H_    0.131089 0.151874 0.012766 0.163649
H9    H     H_    0.630704 0.347146 0.012908 0.163931
H10   H     H_    0.369870 0.654294 0.986642 0.160109
H11   H     H_    0.370706 0.344844 0.986207 0.159292
H12   H     H_    0.768898 0.499850 0.464075 0.162441
H13   H     H_    0.631170 0.652177 0.012543 0.163646
H14   H     H_    0.116342 0.846912 0.768970 0.158894
H15   H     H_    0.883517 0.152635 0.231485 0.174089
H16   H     H_    0.882684 0.849332 0.232401 0.156892
H17   H     H_    0.116029 0.153489 0.769097 0.160579
H18   H     H_    0.616422 0.347356 0.768472 0.153868
H19   H     H_    0.382007 0.649830 0.232807 0.168050
H20   H     H_    0.383600 0.347817 0.231777 0.154595
H21   H     H_    0.615637 0.654234 0.769361 0.160883
H22   H     H_    0.246612 0.736307 0.783440 0.157942
H23   H     H_    0.727602 0.999979 0.540298 0.162570
H24   H     H_    0.754332 0.265205 0.215847 0.145690
H25   H     H_    0.765047 0.715791 0.207892 0.115372
H26   H     H_    0.246338 0.265048 0.783805 0.142293
H27   H     H_    0.744810 0.233311 0.784889 0.143858
H28   H     H_    0.261466 0.777924 0.210092 0.134477
H29   H     H_    0.260131 0.223968 0.211458 0.123295
H30   H     H_    0.742214 0.773090 0.787165 0.168333
H31   H     H_    0.684176 0.754221 0.286263 0.338594
H32   H     H_    0.444685 0.288711 0.328536 0.342306
H33   H     H_    0.403692 0.798031 0.250664 0.337177
H34   H     H_    0.269796 0.000187 0.469801 0.160198
H35   H     H_    0.552459 0.270056 0.692313 0.342323
H36   H     H_    0.173276 0.229737 0.314589 0.336242
H37   H     H_    0.764919 0.629222 0.736291 0.361322
H38   H     H_    0.895436 0.315995 0.241533 0.342176
H39   H     H_    0.196884 0.690465 0.284825 0.354556
H40   H     H_    0.128177 0.607023 0.955055 0.354658
H41   H     H_    0.643214 0.106546 0.253563 0.351256
H42   H     H_    0.822007 0.533381 0.053510 0.366524
H43   H     H_    0.121752 0.387380 0.965895 0.354186
H44   H     H_    0.778254 0.444096 0.803459 0.374780
H45   H     H_    0.569456 0.838823 0.391215 0.159604
H46   H     H_    0.413017 0.861555 0.968975 0.355436
H47   H     H_    0.308532 0.037409 0.088495 0.372435
H48   H     H_    0.613939 0.885909 0.986730 0.360312
H49   H     H_    0.482854 0.178297 0.457821 0.164214
H50   H     H_    0.491286 0.823920 0.415826 0.147516
H51   H     H_    0.506290 0.166417 0.568757 0.161214
H52   H     H_    0.057300 0.323622 0.419193 0.152936
O1    O     O_R   0.255040 0.869590 0.478480 -0.512584
O2    O     O_R   0.817950 0.203450 0.375560 -0.494070
O3    O     O_R   0.817950 0.796550 0.375560 -0.517043
O4    O     O_R   0.182050 0.203450 0.624440 -0.510198
O5    O     O_R   0.682050 0.296550 0.624440 -0.504388
O6    O     O_R   0.317950 0.703450 0.375560 -0.496812
O7    O     O_R   0.317950 0.296550 0.375560 -0.506394
O8    O     O_R   0.682050 0.703450 0.624440 -0.512407
O9    O     O_R   0.250530 0.763330 0.367210 -0.492646
O10   O     O_R   0.749470 0.236670 0.632790 -0.510154
O11   O     O_R   0.749470 0.763330 0.632790 -0.484911
O12   O     O_R   0.744960 0.130410 0.521520 -0.512513
O13   O     O_R   0.250530 0.236670 0.367210 -0.498713
O14   O     O_R   0.750530 0.263330 0.367210 -0.509027
O15   O     O_R   0.249470 0.736670 0.632790 -0.508906
O16   O     O_R   0.249470 0.263330 0.632790 -0.508916
O17   O     O_R   0.750530 0.736670 0.367210 -0.490928
O18   O     O_R   0.177260 0.690030 0.513710 -0.499250
O19   O     O_R   0.822740 0.309970 0.486290 -0.495910
O20   O     O_R   0.822740 0.690030 0.486290 -0.503173
O21   O     O_R   0.177260 0.309970 0.513710 -0.498385
O22   O     O_R   0.677260 0.190030 0.513710 -0.493492
O23   O     O_R   0.744960 0.869590 0.521520 -0.511779
O24   O     O_R   0.322740 0.809970 0.486290 -0.494663
O25   O     O_R   0.322740 0.190030 0.486290 -0.496972
O26   O     O_R   0.677260 0.809970 0.513710 -0.499936
O27   O     O_R   0.051640 0.926880 0.885090 -0.514048
O28   O     O_R   0.948360 0.073120 0.114910 -0.506521
O29   O     O_R   0.948360 0.926880 0.114910 -0.513964
O30   O     O_R   0.051640 0.073120 0.885090 -0.512250
O31   O     O_R   0.551640 0.426880 0.885090 -0.515646
O32   O     O_R   0.448360 0.573120 0.114910 -0.508180
O33   O     O_R   0.448360 0.426880 0.114910 -0.512840
O34   O     O_R   0.255040 0.130410 0.478480 -0.514776
O35   O     O_R   0.551640 0.573120 0.885090 -0.513852
O36   O     O_R   0.940620 0.926560 0.986760 -0.506233
O37   O     O_R   0.059380 0.073440 0.013240 -0.501745
O38   O     O_R   0.059380 0.926560 0.013240 -0.505116
O39   O     O_R   0.940620 0.073440 0.986760 -0.504622
O40   O     O_R   0.440620 0.426560 0.986760 -0.504321
O41   O     O_R   0.559380 0.573440 0.013240 -0.503262
O42   O     O_R   0.559380 0.426560 0.013240 -0.503170
O43   O     O_R   0.440620 0.573440 0.986760 -0.504966
O44   O     O_2   0.711902 0.866848 0.323401 -0.488299
O45   O     O_R   0.755040 0.369590 0.478480 -0.515536
O46   O     O_R   0.654369 0.774653 0.342324 -0.694916
O47   O     O_2   0.410050 0.175155 0.312596 -0.495364
O48   O     O_R   0.444784 0.254122 0.374980 -0.694008
O49   O     O_2   0.438817 0.759761 0.349839 -0.514301
O50   O     O_R   0.401199 0.838581 0.292290 -0.685987
O51   O     O_2   0.591687 0.155854 0.690036 -0.498738
O52   O     O_R   0.551351 0.239421 0.643416 -0.696787
O53   O     O_2   0.203083 0.349984 0.322356 -0.491036
O54   O     O_R   0.144078 0.256696 0.365615 -0.696941
O55   O     O_2   0.844673 0.701380 0.659978 -0.510014
O56   O     O_R   0.244960 0.630410 0.521520 -0.510873
O57   O     O_R   0.789230 0.607247 0.676623 -0.690277
O58   O     O_2   0.939924 0.271438 0.324101 -0.510856
O59   O     O_R   0.894670 0.353610 0.285455 -0.688437
O60   O     O_2   0.118816 0.738467 0.406961 -0.518933
O61   O     O_R   0.181832 0.653865 0.334580 -0.639543
O62   O     O_2   0.132600 0.639641 0.089619 -0.428673
O63   O     O_R   0.160366 0.639240 0.939819 -0.687679
O64   O     O_2   0.734983 0.093588 0.143144 -0.454954
O65   O     O_R   0.653342 0.146860 0.208265 -0.627098
O66   O     O_2   0.863210 0.648403 0.003765 -0.500156
O67   O     O_R   0.244960 0.369590 0.521520 -0.511803
O68   O     O_R   0.795212 0.567508 0.049296 -0.611941
O69   O     O_2   0.212183 0.416019 0.934492 -0.426869
O70   O     O_R   0.138495 0.344860 0.980995 -0.684146
O71   O     O_2   0.839039 0.353297 0.801623 -0.440659
O72   O     O_R   0.759072 0.410540 0.856137 -0.654028
O73   O     O_2   0.329815 0.914586 0.992617 -0.416432
O74   O     O_R   0.387013 0.822769 0.971489 -0.702159
O75   O     O_2   0.357499 0.144075 0.018126 -0.482542
O76   O     O_R   0.284396 0.071250 0.076416 -0.605608
O77   O     O_2   0.703838 0.918432 0.954693 -0.420948
O78   O     O_R   0.755040 0.630410 0.478480 -0.515211
O79   O     O_R   0.632704 0.843098 0.996630 -0.685502
O80   O     O_R   0.182050 0.796550 0.624440 -0.513514

loop_
_geom_bond_atom_site_label_1
_geom_bond_atom_site_label_2
_ccdc_geom_bond_type
C28   C47   A    
C82   C94   A    
C156  O78   A    
C56   O44   D    
C36   C42   A    
C74   C83   A    
C34   C161  S    
C79   C87   A    
Cu12  O43   S    
H35   O52   S    
C124  C133  A    
C50   C59   S    
C73   O79   S    
C101  H5    S    
C52   C61   S    
C16   C35   A    
C81   C95   A    
C121  O15   A    
C54   C63   S    
C104  H8    S    
C37   C42   A    
C131  C140  A    
C94   Cl8   S    
C113  C122  A    
C92   Cl6   S    
C91   C100  A    
C74   C97   A    
C117  C126  A    
C71   O73   D    
C78   C148  S    
C79   C149  S    
C119  C128  A    
C161  O23   A    
C24   C51   A    
H37   O57   S    
C8    C16   A    
C102  C111  A    
C157  O67   A    
C7    O43   A    
Cu6   O3    S    
C109  C118  A    
Cu2   O33   S    
Cu5   O19   S    
C67   C85   S    
H41   O65   S    
C143  O3    A    
C137  C146  A    
C127  C136  A    
C142  H29   S    
Cu9   O15   S    
Cu2   Cu12  S    
C112  C120  A    
C82   C91   A    
C60   O52   S    
C29   C45   A    
C103  C112  A    
C142  C151  A    
C41   H23   S    
Cu7   O4    S    
C2    H49   S    
Cu5   O10   S    
C11   C19   A    
C63   O59   S    
C64   O60   D    
C46   H2    S    
C81   C90   A    
C13   C18   A    
C6    O42   A    
Cu7   O34   S    
C14   C57   A    
C2    C19   A    
Cu12  O35   S    
Cu11  O17   S    
C88   C135  S    
C90   C98   A    
C42   H34   S    
C76   C100  A    
C162  O29   A    
C106  C115  A    
C9    C15   A    
C1    O9    A    
C144  H30   S    
C65   O63   S    
C46   C53   A    
C66   O64   D    
C25   C55   A    
C84   C93   A    
Cu3   O39   S    
C57   H3    S    
C86   C95   A    
H47   O76   S    
H43   O70   S    
C89   C97   A    
C76   C85   A    
C98   Cl4   S    
C140  H27   S    
C110  C128  S    
C66   O65   S    
C106  C150  A    
C74   C145  S    
C99   O13   A    
Cu10  O7    S    
C25   C43   A    
C31   C156  S    
C103  C147  A    
C106  H10   S    
Cu8   O5    S    
C12   C68   A    
C101  C145  A    
C77   O5    A    
C122  H17   S    
Cu1   O1    S    
C75   C84   A    
Cu5   O12   S    
Cu6   O20   S    
C126  H21   S    
C111  C119  A    
C77   C131  S    
C108  H13   S    
Cu10  O16   S    
C6    C114  S    
C26   C45   A    
Cu3   O27   S    
Cu8   O14   S    
Cu4   O28   S    
C157  O21   A    
C29   C38   A    
Cu9   O56   S    
C69   O70   S    
C107  C151  A    
C87   C96   A    
C1    C133  S    
C70   C87   S    
Cu3   O30   S    
C141  C150  A    
C75   C146  S    
C139  C148  A    
C124  H19   S    
C120  C129  A    
C38   C41   A    
C10   C20   A    
C81   C151  S    
C99   C134  S    
C155  O45   A    
C113  C163  S    
C72   C90   S    
C8    C12   A    
C10   C45   A    
C114  C123  A    
C116  C125  A    
C163  O30   A    
C125  H20   S    
C103  H7    S    
C118  C127  A    
C118  H14   S    
C6    O31   A    
C29   C51   A    
C27   C47   A    
C4    O33   A    
C48   C154  A    
C108  C117  A    
C110  O2    A    
C3    O39   A    
C37   C159  S    
C132  O4    A    
C154  H45   S    
C136  H22   S    
C28   C37   A    
C30   C39   A    
C96   Cl2   S    
C70   O71   D    
C1    O6    A    
C13   C50   A    
C120  H16   S    
Cu2   O41   S    
C68   H4    S    
C3    O28   A    
C143  O17   A    
C64   O61   S    
Cu12  O31   S    
C51   C60   S    
C15   C46   A    
Cu3   O36   S    
C27   C49   A    
C72   O75   D    
C25   C33   A    
C137  H24   S    
C125  C134  A    
C30   C157  S    
H42   O68   S    
C104  C148  A    
C11   C47   A    
C8    C43   A    
C55   C68   A    
Cu7   O21   S    
C11   C18   A    
C110  O14   A    
C121  O80   A    
H39   O61   S    
C93   Cl5   S    
C100  Cl3   S    
C119  H15   S    
H32   O48   S    
C164  O38   A    
C121  C127  S    
C58   O47   D    
C101  C109  A    
C61   O54   S    
C31   C40   A    
C56   O46   S    
C77   O10   A    
Cu11  O78   S    
C80   C89   A    
C108  C152  A    
C3    C111  S    
H40   O63   S    
H38   O59   S    
Cu1   O80   S    
Cu6   Cu11  S    
C26   C48   A    
Cu7   Cu10  S    
Cu8   O22   S    
Cu1   Cu9   S    
Cu4   O37   S    
C34   C41   A    
C130  C139  A    
C75   C96   A    
C139  H26   S    
C38   C158  S    
C72   O76   S    
C158  O22   A    
Cu10  O25   S    
C23   C44   A    
Cu10  O67   S    
C130  C132  S    
C9    C14   A    
C134  C142  A    
C59   O49   D    
C12   C15   A    
C65   O62   D    
H31   O46   S    
C71   O74   S    
Cu4   O29   S    
C126  C135  A    
H44   O72   S    
C112  C162  S    
Cu2   O32   S    
C163  O37   A    
Cu1   O9    S    
C115  C124  A    
C123  C131  A    
C4    C116  S    
C109  C164  S    
Cu4   O38   S    
C88   O8    A    
C129  C143  S    
C27   C36   A    
Cu11  O26   S    
C21   C30   A    
C133  C141  A    
C60   O51   D    
C67   O68   S    
C23   C32   A    
C97   Cl1   S    
C104  C113  A    
C102  H6    S    
C33   C153  S    
C99   O7    A    
H46   O74   S    
C144  C152  A    
C35   C52   A    
C153  O56   A    
C69   O69   D    
C95   Cl7   S    
C82   C152  S    
Cu5   O2    S    
Cu12  O40   S    
C153  O18   A    
C80   C92   A    
C159  O24   A    
C107  H11   S    
H33   O50   S    
Cu9   O24   S    
C80   C150  S    
C83   C92   A    
C162  O36   A    
C33   C39   A    
C20   C154  A    
C79   C93   A    
Cu7   O13   S    
C65   C83   S    
C10   C17   A    
C164  O27   A    
C62   O57   S    
C7    C115  S    
C21   C43   A    
C155  O19   A    
C161  O26   A    
C26   C34   A    
C22   C44   A    
C129  C138  A    
Cu3   Cu4   S    
C76   C147  S    
C78   C98   A    
Cu1   O18   S    
C136  C145  A    
C78   C86   A    
C158  O12   A    
C22   C53   A    
C107  C116  A    
C59   O50   S    
C5    O35   A    
C17   C24   A    
C22   C31   A    
C67   O66   D    
C4    O40   A    
C105  C114  A    
C5    O41   A    
C73   C91   S    
Cu6   O23   S    
C28   C50   A    
C63   O58   D    
C49   C58   S    
Cu6   O11   S    
C5    C117  S    
C73   O77   D    
C128  C137  A    
C2    C49   A    
C32   C155  S    
C85   C94   A    
C71   C89   S    
C138  C147  A    
Cu5   Cu8   S    
C55   C64   S    
C159  O1    A    
C141  H28   S    
C70   O72   S    
C135  C144  A    
Cu2   O42   S    
C160  O25   A    
C14   C16   A    
Cu11  O8    S    
Cu9   O6    S    
C132  O16   A    
C23   C54   A    
C40   H12   S    
H36   O54   S    
C48   C56   S    
H48   O79   S    
C9    C44   A    
C105  H9    S    
C123  H18   S    
C105  C149  A    
C138  H25   S    
C160  O34   A    
C62   O55   D    
C24   H51   S    
C102  C146  A    
C88   O11   A    
C58   O48   S    
C61   O53   D    
C140  C149  A    
C17   C19   A    
C122  C130  A    
C18   C20   A    
C32   C40   A    
C7    O32   A    
C36   C160  S    
C66   C84   S    
C39   H1    S    
C53   C62   S    
C35   H52   S    
Cu8   O45   S    
C54   C57   A    
C21   C52   A    
C69   C86   S    
C156  O20   A    
C13   H50   S    
