data_mof_unit_39074.cif
_audit_creation_date              2012-12-10T16:36:37-0500
_audit_creation_method            fapswitch 2.2
_symmetry_space_group_name_H-M    P1
_symmetry_Int_Tables_number       1
_space_group_crystal_system       triclinic
_cell_length_a                    14.074899
_cell_length_b                    16.509513
_cell_length_c                    15.126685
_cell_angle_alpha                 89.910915
_cell_angle_beta                  91.797329
_cell_angle_gamma                 89.927868
_cell_volume                      3513.24713653

loop_
_atom_site_label
_atom_site_type_symbol
_atom_type_description
_atom_site_fract_x
_atom_site_fract_y
_atom_site_fract_z
_atom_type_partial_charge
C1    C     C_R   0.680271 0.845063 0.519285 0.521584
C2    C     C_R   0.945616 0.509529 0.108162 0.228557
C3    C     C_R   0.618993 0.011810 0.124282 0.206172
C4    C     C_R   0.119002 0.511802 0.124283 0.206164
C5    C     C_R   0.625025 0.020774 0.032234 0.251385
C6    C     C_R   0.125036 0.520757 0.032234 0.251387
C7    C     C_2   0.243403 0.216222 0.479562 0.249828
C8    C     C_2   0.247822 0.780381 0.474207 0.246323
C9    C     C_2   0.743407 0.716222 0.479550 0.249794
C10   C     C_2   0.747817 0.280384 0.474212 0.246338
C11   C     C_2   0.755846 0.785896 0.525078 0.279687
C12   C     C_R   0.679888 0.155088 0.519230 0.529897
C13   C     C_2   0.754505 0.214647 0.527461 0.281733
C14   C     C_2   0.255849 0.285897 0.525084 0.279747
C15   C     C_2   0.254504 0.714648 0.527463 0.281743
C16   C     C_R   0.319505 0.155906 0.480940 0.532282
C17   C     C_R   0.320475 0.843410 0.480095 0.524424
C18   C     C_R   0.819506 0.655907 0.480939 0.532351
C19   C     C_R   0.820474 0.343410 0.480095 0.524440
C20   C     C_R   0.520794 0.001741 0.260025 0.524749
C21   C     C_R   0.020796 0.501742 0.260025 0.524803
C22   C     C_R   0.478703 0.999859 0.738246 0.490333
C23   C     C_R   0.180273 0.345063 0.519286 0.521679
C24   C     C_R   0.978702 0.499858 0.738246 0.490333
C25   C     C_R   0.528935 0.007080 0.162886 -0.036389
C26   C     C_R   0.028942 0.507080 0.162886 -0.036335
C27   C     C_R   0.469444 0.999310 0.832816 -0.010856
C28   C     C_R   0.969445 0.499308 0.832817 -0.010852
C29   C     C_R   0.370781 0.984124 0.960976 0.284371
C30   C     C_R   0.870785 0.484134 0.960981 0.284365
C31   C     C_R   0.381556 0.983180 0.868568 -0.136929
C32   C     C_R   0.881554 0.483196 0.868572 -0.136946
C33   C     C_R   0.549627 0.011687 0.886451 -0.126408
C34   C     C_R   0.179887 0.655089 0.519230 0.529914
C35   C     C_R   0.049634 0.511664 0.886451 -0.126412
C36   C     C_3   0.324328 0.099978 0.130369 0.047750
C37   C     C_3   0.369524 0.160196 0.196254 -0.280111
C38   C     C_3   0.333590 0.246028 0.178834 -0.521266
C39   C     C_3   0.824378 0.600030 0.130363 0.047745
C40   C     C_3   0.869651 0.660248 0.196205 -0.280146
C41   C     C_3   0.833734 0.746087 0.178795 -0.521219
C42   C     C_3   0.743801 0.938504 0.179559 -0.080001
C43   C     C_3   0.243821 0.438517 0.179579 -0.080016
C44   C     C_3   0.201950 0.966973 0.949309 0.006683
C45   C     C_R   0.542760 0.011211 0.978102 -0.075254
C46   C     C_3   0.173823 0.054934 0.927438 -0.276458
C47   C     C_3   0.080024 0.058497 0.874146 -0.479662
C48   C     C_3   0.701957 0.466964 0.949318 0.006695
C49   C     C_3   0.673801 0.554916 0.927443 -0.276444
C50   C     C_3   0.580000 0.558454 0.874154 -0.479669
C51   C     C_3   0.750368 0.106896 0.007522 0.027440
C52   C     C_3   0.727142 0.160337 0.926839 -0.296961
C53   C     C_3   0.774772 0.243099 0.935328 -0.471933
C54   C     C_3   0.250382 0.606865 0.007488 0.027388
C55   C     C_3   0.226978 0.660341 0.926865 -0.296944
C56   C     C_R   0.042769 0.511197 0.978103 -0.075271
C57   C     C_3   0.274629 0.743098 0.935301 -0.471913
C58   C     C_3   0.651167 0.715538 0.352583 -0.001309
C59   C     C_3   0.547366 0.714895 0.319568 -0.236841
C60   C     C_3   0.537909 0.735294 0.221233 -0.491039
C61   C     C_3   0.686787 0.270048 0.333478 0.005216
C62   C     C_3   0.599876 0.288378 0.273719 -0.237801
C63   C     C_3   0.615560 0.261881 0.178693 -0.499115
C64   C     C_3   0.151203 0.215394 0.352562 -0.001167
C65   C     C_3   0.047354 0.215223 0.319636 -0.236756
C66   C     C_3   0.037970 0.235133 0.221177 -0.490925
C67   C     C_R   0.452396 0.001323 0.015788 -0.007312
C68   C     C_3   0.186827 0.770050 0.333461 0.005212
C69   C     C_3   0.099936 0.788394 0.273683 -0.237810
C70   C     C_3   0.115660 0.761941 0.178649 -0.499112
C71   C     C_3   0.342106 0.357778 0.631822 -0.096725
C72   C     C_3   0.320551 0.652791 0.653392 -0.103956
C73   C     C_3   0.842096 0.857762 0.631833 -0.096705
C74   C     C_3   0.820571 0.152782 0.653377 -0.103960
C75   C     C_R   0.952404 0.501326 0.015789 -0.007313
C76   C     C_R   0.445607 0.009519 0.108162 0.228539
H1    H     H_    0.323176 0.970523 0.822737 0.097972
H2    H     H_    0.364106 0.287408 0.230032 0.143034
H3    H     H_    0.254916 0.248201 0.181307 0.129923
H4    H     H_    0.746393 0.599990 0.139580 0.147658
H5    H     H_    0.835128 0.620911 0.061280 0.119536
H6    H     H_    0.852578 0.642348 0.264554 0.193458
H7    H     H_    0.947960 0.659836 0.190563 0.146509
H8    H     H_    0.855708 0.767212 0.112758 0.147135
H9    H     H_    0.864320 0.787470 0.229956 0.143062
H10   H     H_    0.755067 0.748287 0.181341 0.129855
H11   H     H_    0.765122 0.918331 0.112908 0.144013
H12   H     H_    0.823169 0.470556 0.822741 0.097960
H13   H     H_    0.695981 0.893063 0.209215 0.104711
H14   H     H_    0.809164 0.941729 0.222305 0.140388
H15   H     H_    0.265074 0.418299 0.112924 0.143976
H16   H     H_    0.196037 0.393097 0.209318 0.104820
H17   H     H_    0.309227 0.441772 0.222265 0.140370
H18   H     H_    0.144571 0.940785 0.989231 0.153976
H19   H     H_    0.203853 0.927612 0.890041 0.111344
H20   H     H_    0.165887 0.089233 0.989881 0.152856
H21   H     H_    0.229581 0.084951 0.888816 0.155562
H22   H     H_    0.086449 0.025575 0.810614 0.152916
H23   H     H_    0.617458 0.020635 0.855861 0.151258
H24   H     H_    0.061365 0.122612 0.859513 0.151995
H25   H     H_    0.022007 0.031096 0.912309 0.145242
H26   H     H_    0.644587 0.440763 0.989242 0.153986
H27   H     H_    0.703875 0.427598 0.890055 0.111344
H28   H     H_    0.665857 0.589214 0.989885 0.152897
H29   H     H_    0.729548 0.584943 0.888818 0.155554
H30   H     H_    0.586435 0.525534 0.810621 0.152919
H31   H     H_    0.561317 0.622564 0.859520 0.151981
H32   H     H_    0.521994 0.531037 0.912318 0.145246
H33   H     H_    0.828852 0.101209 0.015338 0.154059
H34   H     H_    0.117467 0.520595 0.855859 0.151254
H35   H     H_    0.725953 0.137076 0.068598 0.150118
H36   H     H_    0.752044 0.129975 0.866230 0.158602
H37   H     H_    0.648958 0.169061 0.919998 0.160006
H38   H     H_    0.748858 0.275714 0.994063 0.167638
H39   H     H_    0.757473 0.279749 0.875348 0.149522
H40   H     H_    0.853212 0.236190 0.941669 0.154412
H41   H     H_    0.328882 0.601190 0.015160 0.154006
H42   H     H_    0.226088 0.637007 0.068632 0.150216
H43   H     H_    0.251747 0.630004 0.866187 0.158590
H44   H     H_    0.148782 0.669070 0.920178 0.159988
H45   H     H_    0.246335 0.099903 0.139546 0.147619
H46   H     H_    0.248854 0.775687 0.994112 0.167658
H47   H     H_    0.257191 0.779774 0.875369 0.149491
H48   H     H_    0.353080 0.736185 0.941480 0.154404
H49   H     H_    0.691250 0.669417 0.315334 0.156131
H50   H     H_    0.681203 0.776833 0.339685 0.115171
H51   H     H_    0.516497 0.653948 0.330902 0.191184
H52   H     H_    0.506351 0.759944 0.357520 0.170182
H53   H     H_    0.564472 0.797416 0.208815 0.140448
H54   H     H_    0.461921 0.732487 0.199403 0.153331
H55   H     H_    0.578583 0.691229 0.181831 0.137961
H56   H     H_    0.335110 0.120885 0.061300 0.119538
H57   H     H_    0.702091 0.203878 0.330645 0.149796
H58   H     H_    0.748604 0.304069 0.308012 0.152382
H59   H     H_    0.537060 0.256107 0.299174 0.168561
H60   H     H_    0.585092 0.354526 0.274658 0.188964
H61   H     H_    0.679249 0.292112 0.152380 0.163832
H62   H     H_    0.552745 0.278640 0.136308 0.141354
H63   H     H_    0.625073 0.195187 0.176070 0.154814
H64   H     H_    0.190933 0.168977 0.315392 0.156439
H65   H     H_    0.181653 0.276513 0.339484 0.114867
H66   H     H_    0.015964 0.154535 0.331378 0.191350
H67   H     H_    0.352393 0.142282 0.264584 0.193487
H68   H     H_    0.006765 0.260750 0.357344 0.169765
H69   H     H_    0.065172 0.296979 0.208318 0.140225
H70   H     H_    0.961914 0.232789 0.199455 0.153338
H71   H     H_    0.078133 0.190519 0.182011 0.138080
H72   H     H_    0.202126 0.703878 0.330620 0.149803
H73   H     H_    0.248656 0.804069 0.308017 0.152390
H74   H     H_    0.037115 0.756104 0.299101 0.168541
H75   H     H_    0.085141 0.854540 0.274650 0.188984
H76   H     H_    0.179349 0.792199 0.152373 0.163889
H77   H     H_    0.052854 0.778703 0.136255 0.141362
H78   H     H_    0.447842 0.159804 0.190674 0.146545
H79   H     H_    0.125194 0.695252 0.175996 0.154802
H80   H     H_    0.295521 0.330496 0.682047 0.102606
H81   H     H_    0.318117 0.420161 0.614555 0.115182
H82   H     H_    0.414628 0.362510 0.662237 0.148377
H83   H     H_    0.302426 0.588898 0.637106 0.104560
H84   H     H_    0.263689 0.681328 0.692412 0.105667
H85   H     H_    0.386342 0.651969 0.695743 0.145490
H86   H     H_    0.795512 0.830468 0.682051 0.102617
H87   H     H_    0.818103 0.920147 0.614580 0.115175
H88   H     H_    0.914617 0.862492 0.662251 0.148365
H89   H     H_    0.355626 0.267174 0.112823 0.147136
H90   H     H_    0.802438 0.088891 0.637092 0.104568
H91   H     H_    0.763717 0.181321 0.692406 0.105655
H92   H     H_    0.886368 0.151956 0.695719 0.145489
O1    O     O_3   0.500000 0.000000 0.500000 -0.462892
O2    O     O_R   0.885830 0.337110 0.539910 -0.498366
O3    O     O_R   0.692160 0.095230 0.468550 -0.551568
O4    O     O_R   0.692160 0.904770 0.468550 -0.555313
O5    O     O_R   0.192160 0.595230 0.468550 -0.551566
O6    O     O_R   0.192160 0.404770 0.468550 -0.555263
O7    O     O_R   0.316720 0.904790 0.427870 -0.531209
O8    O     O_R   0.316720 0.095210 0.427870 -0.552512
O9    O     O_R   0.816720 0.404790 0.427870 -0.531219
O10   O     O_R   0.816720 0.595210 0.427870 -0.552363
O11   O     O_R   0.594900 0.000000 0.310900 -0.511086
O12   O     O_3   0.000000 0.500000 0.500000 -0.462926
O13   O     O_R   0.094900 0.500000 0.310900 -0.511084
O14   O     O_R   0.483090 0.932320 0.697550 -0.539546
O15   O     O_R   0.483090 0.067680 0.697550 -0.548327
O16   O     O_R   0.983090 0.432320 0.697550 -0.539549
O17   O     O_R   0.983090 0.567680 0.697550 -0.548326
O18   O     O_R   0.438930 0.000000 0.294000 -0.506738
O19   O     O_R   0.938930 0.500000 0.294000 -0.506740
O20   O     O_3   0.357739 0.019859 0.145902 -0.485878
O21   O     O_3   0.857752 0.519901 0.145899 -0.485862
O22   O     O_3   0.701248 0.015814 0.176632 -0.547490
O23   O     O_R   0.605310 0.837110 0.563680 -0.528389
O24   O     O_3   0.201255 0.515821 0.176635 -0.547515
O25   O     O_3   0.286672 0.962264 0.002114 -0.535399
O26   O     O_3   0.786677 0.462281 0.002126 -0.535387
O27   O     O_3   0.713174 0.027962 0.994324 -0.576099
O28   O     O_3   0.213187 0.527928 0.994322 -0.576089
O29   O     O_3   0.654666 0.696040 0.443539 -0.578248
O30   O     O_3   0.667197 0.293403 0.420842 -0.583689
O31   O     O_3   0.154653 0.196056 0.443560 -0.578299
O32   O     O_3   0.167212 0.793390 0.420823 -0.583699
O33   O     O_3   0.346521 0.309135 0.555356 -0.561744
O34   O     O_R   0.605310 0.162890 0.563680 -0.536879
O35   O     O_3   0.338310 0.697460 0.575950 -0.560193
O36   O     O_3   0.846516 0.809133 0.555357 -0.561728
O37   O     O_3   0.838318 0.197453 0.575932 -0.560180
O38   O     O_R   0.105310 0.337110 0.563680 -0.528394
O39   O     O_R   0.105310 0.662890 0.563680 -0.536887
O40   O     O_R   0.385830 0.162890 0.539910 -0.497190
O41   O     O_R   0.385830 0.837110 0.539910 -0.498368
O42   O     O_R   0.885830 0.662890 0.539910 -0.497215
Zn1   Zn    Zn3+2 0.493670 0.096680 0.574000 0.949973
Zn2   Zn    Zn3+2 0.493670 0.903320 0.574000 0.955000
Zn3   Zn    Zn3+2 0.993670 0.596680 0.574000 0.949954
Zn4   Zn    Zn3+2 0.993670 0.403320 0.574000 0.954972
Zn5   Zn    Zn3+2 0.617760 0.000000 0.438070 0.932653
Zn6   Zn    Zn3+2 0.117760 0.500000 0.438070 0.932653
Zn7   Zn    Zn3+2 0.394920 0.000000 0.413930 0.948957
Zn8   Zn    Zn3+2 0.894920 0.500000 0.413930 0.948998

loop_
_geom_bond_atom_site_label_1
_geom_bond_atom_site_label_2
_ccdc_geom_bond_type
C14   C23   S    
C38   H89   S    
O1    Zn7   S    
C21   C26   S    
C58   O29   S    
C47   H25   S    
C24   O16   A    
C70   H77   S    
C33   C45   A    
C4    O24   S    
O12   Zn8   S    
C1    C11   S    
C2    O21   S    
O9    Zn8   S    
C64   H65   S    
C49   H28   S    
C6    O28   S    
C61   H57   S    
C23   O6    A    
C55   H43   S    
C52   H37   S    
C27   C33   A    
C21   O13   A    
C41   H10   S    
C44   O25   S    
C62   C63   S    
C72   H83   S    
C69   H74   S    
C36   C37   S    
C18   O42   A    
C73   H88   S    
C17   O41   A    
C36   H56   S    
C39   O21   S    
C29   O25   S    
C20   C25   S    
C52   H36   S    
O15   Zn1   S    
C32   H12   S    
C14   O33   S    
O39   Zn3   S    
O41   Zn2   S    
C46   C47   S    
C62   H60   S    
C49   C50   S    
C66   H69   S    
C68   H73   S    
C57   H46   S    
C29   C67   A    
C7    C14   D    
C28   C35   A    
C44   C46   S    
C68   C69   S    
C45   C67   A    
C42   H11   S    
C42   H14   S    
C72   H85   S    
C19   O2    A    
C31   H1    S    
C12   O34   A    
C20   O11   A    
O4    Zn5   S    
C19   O9    A    
C15   C34   S    
C22   O15   A    
C68   H72   S    
C53   H40   S    
O23   Zn2   S    
C5    O27   S    
O3    Zn5   S    
O38   Zn4   S    
C59   C60   S    
C51   H33   S    
C56   C75   A    
C50   H32   S    
C63   H61   S    
C40   H7    S    
C61   C62   S    
C71   H81   S    
C10   O30   S    
C60   H55   S    
C74   H92   S    
C74   H91   S    
C73   O36   S    
C9    O29   S    
C61   H58   S    
C21   O19   A    
C12   O3    A    
C55   H44   S    
O1    Zn5   S    
O18   Zn7   S    
C54   O28   S    
C27   C31   A    
C70   H79   S    
C69   H75   S    
C40   H6    S    
O12   Zn6   S    
O5    Zn6   S    
C70   H76   S    
C39   H5    S    
C4    C6    A    
C3    O22   S    
C60   H54   S    
C39   C40   S    
C65   H68   S    
O19   Zn8   S    
C49   H29   S    
C38   H2    S    
C3    C5    A    
C58   C59   S    
C48   H27   S    
C5    C45   A    
O7    Zn7   S    
C43   H15   S    
C47   H24   S    
C51   C52   S    
C24   O17   A    
C36   O20   S    
C62   H59   S    
C61   O30   S    
C37   C38   S    
C57   H47   S    
C42   O22   S    
O16   Zn4   S    
C28   C32   A    
C10   C19   S    
C48   H26   S    
O14   Zn2   S    
C46   H20   S    
C2    C26   A    
C9    C11   D    
C66   H71   S    
C35   H34   S    
C72   O35   S    
C1    O23   A    
C43   H16   S    
C40   C41   S    
C46   H21   S    
C43   O24   S    
C58   H50   S    
C8    C15   D    
O8    Zn7   S    
C54   H42   S    
C23   O38   A    
C50   H31   S    
C63   H62   S    
C13   O37   S    
C8    O32   S    
O11   Zn5   S    
C74   H90   S    
C52   C53   S    
C50   H30   S    
C64   H64   S    
O12   Zn3   S    
C71   O33   S    
C71   H82   S    
C54   C55   S    
C7    C16   S    
C51   H35   S    
C22   O14   A    
C37   H67   S    
C48   O26   S    
C35   C56   A    
C63   H63   S    
C37   H78   S    
O10   Zn8   S    
C24   C28   S    
C6    C56   A    
C16   O40   A    
C10   C13   D    
C76   O20   S    
C60   H53   S    
C4    C26   A    
O2    Zn4   S    
C34   O39   A    
O42   Zn3   S    
C41   H9    S    
C1    O4    A    
C22   C27   S    
C8    C17   S    
C72   H84   S    
C68   O32   S    
C42   H13   S    
C64   C65   S    
C25   C76   A    
C73   H86   S    
C55   C57   S    
C36   H45   S    
C59   H52   S    
C29   C31   A    
O34   Zn1   S    
C51   O27   S    
C39   H4    S    
C57   H48   S    
C30   C32   A    
C65   H66   S    
C41   H8    S    
C16   O8    A    
C30   O26   S    
O40   Zn1   S    
C48   C49   S    
C71   H80   S    
O12   Zn4   S    
C43   H17   S    
O17   Zn3   S    
C15   O35   S    
O13   Zn6   S    
O6    Zn6   S    
C11   O36   S    
C7    O31   S    
C69   C70   S    
C66   H70   S    
C44   H18   S    
C20   O18   A    
C53   H39   S    
C9    C18   S    
C3    C25   A    
C30   C75   A    
C12   C13   S    
C18   O10   A    
C58   H49   S    
C73   H87   S    
C65   C66   S    
C38   H3    S    
C64   O31   S    
O1    Zn2   S    
C34   O5    A    
C53   H38   S    
C67   C76   A    
C33   H23   S    
C54   H41   S    
C59   H51   S    
C47   H22   S    
C44   H19   S    
C2    C75   A    
C17   O7    A    
C74   O37   S    
O1    Zn1   S    
