data_mof_unit_7100.cif
_audit_creation_date              2012-12-10T17:31:27-0500
_audit_creation_method            fapswitch 2.2
_symmetry_space_group_name_H-M    P1
_symmetry_Int_Tables_number       1
_space_group_crystal_system       triclinic
_cell_length_a                    19.570343
_cell_length_b                    18.733919
_cell_length_c                    12.287902
_cell_angle_alpha                 91.155994
_cell_angle_beta                  129.270625
_cell_angle_gamma                 89.057615
_cell_volume                      3486.94386653

loop_
_atom_site_label
_atom_site_type_symbol
_atom_type_description
_atom_site_fract_x
_atom_site_fract_y
_atom_site_fract_z
_atom_type_partial_charge
C1    C     C_R   0.607823 0.896137 0.648258 0.840899
C2    C     C_R   0.606537 0.104695 0.647695 0.841945
C3    C     C_R   0.107822 0.396136 0.648257 0.840894
C4    C     C_R   0.106537 0.604696 0.647696 0.841940
C5    C     C_R   0.221752 0.793888 0.011027 0.039488
C6    C     C_R   0.246654 0.228330 0.046530 0.031771
C7    C     C_R   0.721752 0.293886 0.011029 0.039487
C8    C     C_R   0.746663 0.728335 0.046537 0.031771
C9    C     C_R   0.659678 0.277808 0.029883 0.066919
C10   C     C_R   0.689862 0.754338 0.073058 0.051607
C11   C     C_R   0.159679 0.777810 0.029882 0.066924
C12   C     C_R   0.189857 0.254336 0.073056 0.051627
C13   C     C_R   0.587139 0.235645 0.930788 0.446798
C14   C     C_R   0.616117 0.795321 0.972491 0.417650
C15   C     C_R   0.087142 0.735644 0.930793 0.446831
C16   C     C_R   0.116114 0.295323 0.972494 0.417647
C17   C     C_R   0.582051 0.201701 0.823046 -0.250166
C18   C     C_R   0.601109 0.811882 0.848414 -0.257333
C19   C     C_R   0.082055 0.701700 0.823050 -0.250170
C20   C     C_R   0.101106 0.311885 0.848417 -0.257330
C21   C     C_R   0.297700 0.832226 0.117321 -0.176392
C22   C     C_R   0.306195 0.173767 0.132469 -0.174058
C23   C     C_R   0.797700 0.332224 0.117323 -0.176406
C24   C     C_R   0.806205 0.673774 0.132479 -0.174071
C25   C     C_R   0.244509 0.843902 0.249256 -0.237727
C26   C     C_R   0.270090 0.186002 0.287221 -0.222768
C27   C     C_R   0.744510 0.343899 0.249260 -0.237723
C28   C     C_R   0.770095 0.686006 0.287225 -0.222739
C29   C     C_R   0.652241 0.173917 0.713434 -0.126513
C30   C     C_R   0.662887 0.832739 0.725879 -0.151163
C31   C     C_R   0.152242 0.673916 0.713434 -0.126512
C32   C     C_R   0.162881 0.332734 0.725872 -0.151138
C33   C     C_R   0.682897 0.001349 0.290348 0.410952
C34   C     C_R   0.182898 0.501340 0.290349 0.410959
C35   C     C_R   0.346472 0.004468 0.627563 -0.090251
C36   C     C_R   0.846471 0.504449 0.627559 -0.090278
C37   C     C_R   0.313076 0.004183 0.700646 0.487241
C38   C     C_R   0.813073 0.504144 0.700639 0.487144
C39   C     C_R   0.385611 0.099006 0.343592 0.790393
C40   C     C_R   0.383905 0.902835 0.339851 0.790486
C41   C     C_R   0.885613 0.599007 0.343594 0.790395
C42   C     C_R   0.883905 0.402835 0.339851 0.790486
C43   C     C_R   0.373050 0.999982 0.847425 -0.162000
C44   C     C_R   0.873048 0.499954 0.847419 -0.162059
C45   C     C_R   0.464768 0.993204 0.922216 -0.068942
C46   C     C_R   0.964768 0.493195 0.922215 -0.068924
C47   C     C_R   0.494169 0.993941 0.842212 0.174435
C48   C     C_R   0.994169 0.493941 0.842212 0.174448
C49   C     C_R   0.528407 0.993083 0.073318 -0.104487
C50   C     C_R   0.028407 0.493080 0.073318 -0.104493
C51   C     C_R   0.620504 0.994832 0.141754 -0.031716
C52   C     C_R   0.120504 0.494827 0.141754 -0.031687
C53   C     C_R   0.647990 0.993539 0.060163 0.442788
C54   C     C_R   0.147990 0.493537 0.060163 0.442812
C55   C     C_R   0.585351 0.994555 0.914267 -0.244082
C56   C     C_R   0.085351 0.494558 0.914267 -0.244112
C57   C     C_R   0.504180 0.994910 0.160057 0.035858
C58   C     C_R   0.004180 0.494912 0.160057 0.035843
C59   C     C_R   0.653396 0.002299 0.367891 -0.052519
C60   C     C_R   0.153396 0.502292 0.367891 -0.052554
C61   C     C_R   0.670857 0.304085 0.147902 -0.178943
C62   C     C_R   0.704287 0.734796 0.196066 -0.158008
C63   C     C_R   0.170856 0.804089 0.147899 -0.178922
C64   C     C_R   0.204282 0.234793 0.196065 -0.158026
C65   C     C_R   0.309101 0.857254 0.236007 -0.060212
C66   C     C_R   0.319964 0.154030 0.254004 -0.067020
C67   C     C_R   0.809102 0.357252 0.236009 -0.060210
C68   C     C_R   0.819969 0.654034 0.254009 -0.067033
C69   C     C_R   0.699800 0.203515 0.674943 -0.401851
C70   C     C_R   0.719273 0.808549 0.699886 -0.384014
C71   C     C_R   0.199799 0.703514 0.674941 -0.401847
C72   C     C_R   0.219258 0.308532 0.699866 -0.384114
C73   C     C_R   0.239623 0.771467 0.725923 0.483940
C74   C     C_R   0.287741 0.261323 0.790761 0.490275
C75   C     C_R   0.739622 0.271468 0.725925 0.483959
C76   C     C_R   0.787760 0.761348 0.790784 0.490188
C77   C     C_R   0.242226 0.804242 0.832175 0.401399
C78   C     C_R   0.305064 0.243686 0.916328 0.419969
C79   C     C_R   0.742221 0.304244 0.832173 0.401402
C80   C     C_R   0.805079 0.743699 0.916343 0.419900
C81   C     C_R   0.707300 0.269106 0.888257 -0.115765
C82   C     C_R   0.739634 0.755699 0.932272 -0.121184
C83   C     C_R   0.207301 0.769107 0.888257 -0.115756
C84   C     C_R   0.239624 0.255693 0.932264 -0.121202
C85   C     C_R   0.647574 0.212686 0.809357 -0.031217
C86   C     C_R   0.666362 0.799840 0.833303 -0.049889
C87   C     C_R   0.147575 0.712687 0.809358 -0.031215
C88   C     C_R   0.166355 0.299837 0.833299 -0.049889
Cu1   Cu    Cu3+1 0.526340 1.000000 0.421010 0.943072
Cu2   Cu    Cu3+1 0.026340 0.500000 0.421010 0.943067
Cu3   Cu    Cu3+1 0.473640 0.000000 0.578990 0.907115
Cu4   Cu    Cu3+1 0.973640 0.500000 0.578990 0.907110
H1    H     H_    0.436514 0.991897 0.117856 0.145426
H2    H     H_    0.936514 0.491905 0.117856 0.145416
H3    H     H_    0.303279 0.010011 0.514815 0.141380
H4    H     H_    0.803277 0.509988 0.514810 0.141387
H5    H     H_    0.346170 0.004986 0.900919 0.158275
H6    H     H_    0.846164 0.504942 0.900910 0.158317
H7    H     H_    0.611981 0.000716 0.862089 0.224535
H8    H     H_    0.111980 0.500720 0.862088 0.224535
H9    H     H_    0.623173 0.293663 0.163163 0.167154
H10   H     H_    0.663366 0.755586 0.220546 0.182181
H11   H     H_    0.123172 0.793666 0.163159 0.167159
H12   H     H_    0.163363 0.255584 0.220548 0.182170
H13   H     H_    0.349087 0.841377 0.109934 0.190163
H14   H     H_    0.339088 0.143204 0.102350 0.204113
H15   H     H_    0.849086 0.341377 0.109932 0.190156
H16   H     H_    0.839102 0.643213 0.102364 0.204115
H17   H     H_    0.700495 0.175067 0.598348 0.181111
H18   H     H_    0.714537 0.830237 0.614305 0.195722
H19   H     H_    0.200493 0.675066 0.598345 0.181111
H20   H     H_    0.214517 0.330218 0.614281 0.195691
H21   H     H_    0.700272 0.004849 0.481526 0.150483
H22   H     H_    0.200272 0.504835 0.481527 0.150470
N1    N     N_R   0.566260 0.000000 0.302220 -0.215547
N2    N     N_R   0.066260 0.500000 0.302220 -0.215536
N3    N     N_R   0.434410 0.000000 0.697680 -0.229730
N4    N     N_R   0.934410 0.500000 0.697680 -0.229722
O1    O     O_R   0.608610 0.924520 0.551740 -0.576018
O2    O     O_R   0.608610 0.075480 0.551740 -0.586262
O3    O     O_R   0.108610 0.424520 0.551740 -0.576018
O4    O     O_R   0.108610 0.575480 0.551740 -0.586260
O5    O     O_R   0.564110 0.924510 0.685150 -0.611332
O6    O     O_R   0.564110 0.075490 0.685150 -0.612492
O7    O     O_R   0.064110 0.424510 0.685150 -0.611333
O8    O     O_R   0.064110 0.575490 0.685150 -0.612493
O9    O     O_R   0.435880 0.075470 0.314850 -0.587115
O10   O     O_R   0.435880 0.924530 0.314850 -0.587006
O11   O     O_R   0.935880 0.575470 0.314850 -0.587118
O12   O     O_R   0.935880 0.424530 0.314850 -0.587003
O13   O     O_R   0.391380 0.075460 0.448260 -0.601474
O14   O     O_R   0.391380 0.924540 0.448260 -0.593751
O15   O     O_R   0.891380 0.575460 0.448260 -0.601470
O16   O     O_R   0.891380 0.424540 0.448260 -0.593754
H23   H     H_    0.250078 0.864991 0.337174 0.152276
H24   H     H_    0.279412 0.171186 0.380488 0.146914
H25   H     H_    0.750080 0.364987 0.337179 0.152266
H26   H     H_    0.779417 0.671192 0.380494 0.146927
O17   O     O_3   0.735820 0.003119 0.121685 -0.555434
C89   C     C_3   0.770819 0.938073 0.116349 -0.228521
H27   H     H_    0.740759 0.923023 0.006483 0.142329
H28   H     H_    0.762978 0.894651 0.168087 0.181272
H29   H     H_    0.842601 0.944909 0.174920 0.170659
O18   O     O_3   0.235820 0.503119 0.121687 -0.555408
C90   C     C_3   0.270817 0.438078 0.116328 -0.228530
H30   H     H_    0.240752 0.423036 0.006456 0.142321
H31   H     H_    0.262981 0.394649 0.168061 0.181270
H32   H     H_    0.342598 0.444916 0.174894 0.170658
O19   O     O_3   0.772690 0.003696 0.360945 -0.542867
C91   C     C_3   0.801889 0.074536 0.406971 -0.263706
H33   H     H_    0.764109 0.112671 0.318046 0.165603
H34   H     H_    0.872150 0.077513 0.453007 0.192838
H35   H     H_    0.797952 0.090960 0.490372 0.119101
O20   O     O_3   0.272692 0.503673 0.360942 -0.542858
C92   C     C_3   0.301922 0.574499 0.407065 -0.263747
H36   H     H_    0.264133 0.612672 0.318206 0.165542
H37   H     H_    0.372173 0.577473 0.453047 0.192850
H38   H     H_    0.298031 0.590877 0.490535 0.119132
O21   O     O_3   0.224343 0.014760 0.636809 -0.598517
C93   C     C_3   0.167015 0.986149 0.498903 -0.360887
H39   H     H_    0.188183 0.931985 0.491352 0.193441
H40   H     H_    0.160391 0.023291 0.423333 0.155313
H41   H     H_    0.100485 0.980660 0.468303 0.189301
O22   O     O_3   0.724334 0.514693 0.636796 -0.598532
C94   C     C_3   0.667019 0.486088 0.498885 -0.360762
H42   H     H_    0.688206 0.431934 0.491326 0.193450
H43   H     H_    0.660385 0.523244 0.423325 0.155291
H44   H     H_    0.600490 0.480576 0.468278 0.189278
O23   O     O_3   0.522327 0.227323 0.942897 -0.543837
C95   C     C_3   0.521226 0.155823 0.973247 -0.217217
H45   H     H_    0.587620 0.130108 0.038150 0.110597
H46   H     H_    0.473554 0.127094 0.872777 0.179905
H47   H     H_    0.498520 0.152601 0.035368 0.231048
O24   O     O_3   0.563229 0.822898 0.002370 -0.606753
C96   C     C_3   0.474765 0.802365 0.898351 -0.248753
H48   H     H_    0.468321 0.745748 0.863462 0.138066
H49   H     H_    0.441258 0.839034 0.807934 0.206139
H50   H     H_    0.440541 0.807553 0.943428 0.218257
O25   O     O_3   0.022333 0.727320 0.942905 -0.543809
C97   C     C_3   0.021242 0.655821 0.973274 -0.217324
H51   H     H_    0.087639 0.630112 0.038183 0.110642
H52   H     H_    0.973573 0.627086 0.872812 0.179871
H53   H     H_    0.998535 0.652602 0.035395 0.231048
O26   O     O_3   0.063231 0.322903 0.002377 -0.606752
C98   C     C_3   0.974766 0.302367 0.898367 -0.248766
H54   H     H_    0.968323 0.245747 0.863489 0.138074
H55   H     H_    0.941257 0.339031 0.807941 0.206138
H56   H     H_    0.940544 0.307561 0.943446 0.218251
O27   O     O_3   0.268747 0.874800 0.867286 -0.588439
C99   C     C_3   0.192556 0.918180 0.803930 -0.230356
H57   H     H_    0.147568 0.912380 0.687439 0.187823
H58   H     H_    0.156000 0.906502 0.842986 0.143649
H59   H     H_    0.212396 0.974829 0.831354 0.193718
O28   O     O_3   0.388276 0.218583 0.024655 -0.592207
C100  C     C_3   0.440230 0.276613 0.113561 -0.295945
H60   H     H_    0.412421 0.302199 0.160637 0.145548
H61   H     H_    0.447930 0.316831 0.056565 0.190203
H62   H     H_    0.507020 0.256335 0.201218 0.175792
O29   O     O_3   0.768736 0.374803 0.867277 -0.588430
C101  C     C_3   0.692542 0.418179 0.803938 -0.230318
H63   H     H_    0.647535 0.412368 0.687448 0.187814
H64   H     H_    0.656008 0.406506 0.843035 0.143639
H65   H     H_    0.712375 0.474830 0.831334 0.193713
O30   O     O_3   0.888290 0.718595 0.024670 -0.592212
C102  C     C_3   0.940244 0.776624 0.113582 -0.295901
H66   H     H_    0.912432 0.802207 0.160657 0.145543
H67   H     H_    0.947947 0.816843 0.056593 0.190207
H68   H     H_    0.007033 0.756344 0.201240 0.175781
O31   O     O_3   0.273624 0.810706 0.674320 -0.566645
C103  C     C_3   0.274998 0.773923 0.574477 -0.430469
H69   H     H_    0.206859 0.764302 0.475405 0.174326
H70   H     H_    0.314023 0.723623 0.618023 0.161072
H71   H     H_    0.308831 0.807946 0.549009 0.195863
O32   O     O_3   0.347470 0.241817 0.770625 -0.508319
C104  C     C_3   0.304025 0.202798 0.643368 -0.301381
H72   H     H_    0.264319 0.238604 0.551341 0.150892
H73   H     H_    0.261958 0.159682 0.633894 0.173575
H74   H     H_    0.354553 0.176915 0.641275 0.183532
O33   O     O_3   0.773623 0.310708 0.674322 -0.566625
C105  C     C_3   0.775004 0.273923 0.574489 -0.430496
H75   H     H_    0.706868 0.264299 0.475413 0.174325
H76   H     H_    0.814032 0.223625 0.618043 0.161080
H77   H     H_    0.808840 0.307946 0.549024 0.195859
O34   O     O_3   0.847494 0.741871 0.770646 -0.508302
C106  C     C_3   0.804079 0.702729 0.643530 -0.301302
H78   H     H_    0.764136 0.738418 0.551348 0.150788
H79   H     H_    0.762251 0.659508 0.634425 0.173624
H80   H     H_    0.854623 0.676976 0.641330 0.183539
H81   H     H_    0.523350 0.171282 0.746716 0.186494
H82   H     H_    0.537864 0.834447 0.765654 0.188266
H83   H     H_    0.023354 0.671279 0.746724 0.186483
H84   H     H_    0.037862 0.334453 0.765661 0.188271

loop_
_geom_bond_atom_site_label_1
_geom_bond_atom_site_label_2
_ccdc_geom_bond_type
C54   O18   S    
C72   H20   S    
C94   H42   S    
C20   H84   S    
C15   O25   S    
C92   H37   S    
O23   C95   S    
C14   C18   A    
C53   C55   A    
C60   H22   S    
Cu4   O15   S    
C34   C60   A    
C89   H29   S    
C25   C63   A    
O34   C106  S    
C105  H76   S    
C90   H30   S    
C32   C72   A    
C102  H66   S    
C76   O34   S    
Cu3   O5    S    
C15   C19   A    
Cu1   N1    S    
C27   H25   S    
C75   C79   A    
C95   H46   S    
C2    C29   S    
C9    C61   A    
C73   O31   S    
O22   C94   S    
C57   N1    A    
C89   H28   S    
C5    C11   A    
C19   C87   A    
C104  H73   S    
O21   C93   S    
C6    C12   A    
C40   C65   S    
C5    C83   A    
C98   H55   S    
Cu3   O13   S    
C95   H45   S    
C77   C83   A    
C6    C22   A    
C106  H80   S    
C49   C57   A    
O26   C98   S    
C96   H49   S    
C64   H12   S    
C1    O1    A    
C23   C67   A    
C59   N1    A    
C9    C13   A    
O24   C96   S    
C22   C66   A    
C26   C64   A    
C27   C61   A    
C99   H59   S    
C90   H31   S    
Cu2   O11   S    
C11   C15   A    
C12   C16   A    
C52   C54   A    
C101  H63   S    
C49   C51   A    
C91   H35   S    
C71   H19   S    
C50   C52   A    
C76   C80   A    
Cu3   N3    S    
C24   H16   S    
Cu2   N2    S    
Cu1   Cu3   S    
C70   H18   S    
C29   C85   A    
C48   C56   A    
C97   H53   S    
C16   C20   A    
C100  H62   S    
C21   C65   A    
C31   C71   A    
O28   C100  S    
C40   O14   A    
O29   C101  S    
C33   C59   A    
C57   H1    S    
C74   O32   S    
C92   H38   S    
C58   N2    A    
Cu2   O4    S    
C10   C62   A    
C69   H17   S    
C17   C85   A    
C17   H81   S    
C41   O15   A    
C105  H75   S    
C30   C70   A    
C44   C46   A    
C106  H78   S    
C41   C68   S    
C29   C69   A    
C45   C47   A    
C35   N3    A    
C106  H79   S    
C54   C56   A    
C79   O29   S    
C26   C66   A    
C93   H41   S    
Cu1   O1    S    
C31   C87   A    
C89   H27   S    
Cu4   O7    S    
C72   C74   A    
C18   H82   S    
C104  H74   S    
O33   C105  S    
C71   C73   A    
C2    O2    A    
C96   H50   S    
C98   H56   S    
C48   N4    A    
Cu3   O14   S    
C82   C86   A    
O25   C97   S    
C13   O23   S    
C51   C53   A    
C39   O9    A    
C84   C88   A    
C37   C43   A    
C61   H9    S    
C104  H72   S    
C1    O5    A    
C99   H57   S    
C38   C44   A    
C6    C84   A    
Cu2   O3    S    
C41   O11   A    
C53   O17   S    
C36   H4    S    
Cu2   Cu4   S    
C96   H48   S    
Cu1   O2    S    
C75   O33   S    
C59   H21   S    
C23   H15   S    
C3    O7    A    
O31   C103  S    
C50   C58   A    
C4    O4    A    
C42   O12   A    
C18   C86   A    
O30   C102  S    
C34   O20   S    
C43   C45   A    
O20   C92   S    
C63   H11   S    
C7    C81   A    
C93   H40   S    
Cu4   O16   S    
C94   H44   S    
C103  H70   S    
Cu3   O6    S    
C78   O28   S    
C42   C67   S    
C39   C66   S    
C8    C82   A    
C60   N2    A    
C32   C88   A    
C30   C86   A    
C56   H8    S    
C28   H26   S    
C90   H32   S    
C36   N4    A    
C97   H51   S    
C35   C37   A    
C47   C55   A    
Cu1   O9    S    
C102  H68   S    
O27   C99   S    
C7    C9    A    
C12   C64   A    
C99   H58   S    
C2    O6    A    
C97   H52   S    
C28   C68   A    
O32   C104  S    
C34   C52   A    
C8    C10   A    
C26   H24   S    
C43   H5    S    
O18   C90   S    
Cu4   O8    S    
C83   C87   A    
O17   C89   S    
C16   O26   S    
C28   C62   A    
C4    O8    A    
C33   C51   A    
C103  H71   S    
C46   C50   A    
C11   C63   A    
C13   C17   A    
C42   O16   A    
C77   O27   S    
C93   H39   S    
C37   O21   S    
C36   C38   A    
C58   H2    S    
C14   O24   S    
C22   H14   S    
O19   C91   S    
C70   C76   A    
C98   H54   S    
C80   O30   S    
C39   O13   A    
C101  H65   S    
C7    C23   A    
C20   C88   A    
C38   O22   S    
C1    C30   S    
C8    C24   A    
C80   C82   A    
C45   C49   A    
C69   C75   A    
C91   H34   S    
C105  H77   S    
C79   C81   A    
C3    C32   S    
C25   H23   S    
C21   H13   S    
C4    C31   S    
C27   C67   A    
C24   C68   A    
C44   H6    S    
C100  H60   S    
Cu2   O12   S    
C46   C48   A    
C78   C84   A    
C47   N3    A    
C5    C21   A    
Cu4   N4    S    
C94   H43   S    
C103  H69   S    
C74   C78   A    
C55   H7    S    
C92   H36   S    
C25   C65   A    
C73   C77   A    
C91   H33   S    
C33   O19   S    
C62   H10   S    
C102  H67   S    
C19   H83   S    
Cu1   O10   S    
C101  H64   S    
C81   C85   A    
C3    O3    A    
C10   C14   A    
C35   H3    S    
C100  H61   S    
C95   H47   S    
C40   O10   A    
