data_mof_unit_51469.cif
_audit_creation_date              2012-12-11T14:54:44-0500
_audit_creation_method            fapswitch 2.2
_symmetry_space_group_name_H-M    P1
_symmetry_Int_Tables_number       1
_space_group_crystal_system       triclinic
_cell_length_a                    19.214511
_cell_length_b                    11.282914
_cell_length_c                    18.756919
_cell_angle_alpha                 89.260406
_cell_angle_beta                  90.367039
_cell_angle_gamma                 90.07182
_cell_volume                      4065.99392111

loop_
_atom_site_label
_atom_site_type_symbol
_atom_type_description
_atom_site_fract_x
_atom_site_fract_y
_atom_site_fract_z
_atom_type_partial_charge
C1    C     C_R   0.728311 0.379484 0.647026 0.570500
C2    C     C_R   0.271400 0.378466 0.353000 0.580345
C3    C     C_R   0.228312 0.879486 0.647026 0.570496
C4    C     C_R   0.771400 0.878466 0.353000 0.580347
C5    C     C_3   0.477928 0.373489 0.466308 0.233725
C6    C     C_3   0.511988 0.370284 0.540239 0.211317
C7    C     C_3   0.977951 0.873493 0.466299 0.233735
C8    C     C_3   0.011989 0.870292 0.540242 0.211318
C9    C     C_R   0.706119 0.900501 0.533182 0.188494
C10   C     C_R   0.297418 0.910155 0.469392 0.188042
C11   C     C_R   0.206120 0.400499 0.533182 0.188497
C12   C     C_R   0.797407 0.410135 0.469389 0.188063
C13   C     C_R   0.701111 0.896867 0.458995 0.184496
C14   C     C_R   0.300177 0.907791 0.543535 0.184897
C15   C     C_R   0.201112 0.396864 0.458996 0.184479
C16   C     C_R   0.800172 0.407776 0.543531 0.184899
C17   C     C_R   0.757626 0.933916 0.421161 -0.004478
C18   C     C_R   0.241506 0.937975 0.578844 -0.002726
C19   C     C_R   0.257626 0.433915 0.421161 -0.004490
C20   C     C_R   0.741503 0.437968 0.578842 -0.002716
C21   C     C_R   0.804065 0.018312 0.452028 0.163858
C22   C     C_R   0.192544 0.016158 0.544808 0.172704
C23   C     C_R   0.304065 0.518311 0.452028 0.163854
C24   C     C_R   0.692543 0.516154 0.544807 0.172721
C25   C     C_R   0.794093 0.050513 0.523325 0.145926
C26   C     C_R   0.203717 0.050657 0.473667 0.155304
C27   C     C_R   0.294092 0.550513 0.523325 0.145905
C28   C     C_R   0.703717 0.550656 0.473667 0.155225
C29   C     C_R   0.738718 0.997580 0.563051 -0.037670
C30   C     C_R   0.262258 0.003063 0.436632 -0.052109
C31   C     C_R   0.238718 0.497580 0.563051 -0.037673
C32   C     C_R   0.762255 0.503053 0.436631 -0.052113
C33   C     C_R   0.500274 0.059041 0.968793 0.269273
C34   C     C_R   0.513208 0.055588 0.041860 0.256097
C35   C     C_R   0.000279 0.559047 0.968796 0.269284
C36   C     C_R   0.013218 0.555602 0.041862 0.256101
C37   C     C_R   0.507936 0.161363 0.080380 -0.007489
C38   C     C_R   0.511933 0.166363 0.930656 -0.025813
C39   C     C_R   0.007935 0.661378 0.080380 -0.007497
C40   C     C_R   0.011933 0.666365 0.930655 -0.025777
C41   C     C_R   0.521317 0.268342 0.045447 0.193704
C42   C     C_R   0.521515 0.273047 0.970283 0.156219
C43   C     C_R   0.021303 0.768363 0.045442 0.193661
C44   C     C_R   0.021508 0.773055 0.970278 0.156141
C45   C     C_R   0.555699 0.150064 0.638980 0.509307
C46   C     C_R   0.437923 0.148494 0.360377 0.513521
C47   C     C_R   0.055698 0.650065 0.638980 0.509295
C48   C     C_R   0.937923 0.648494 0.360377 0.513481
C49   C     C_R   0.826889 0.943256 0.952729 -0.095180
C50   C     C_R   0.204271 0.998125 0.027900 -0.052629
C51   C     C_R   0.326888 0.443267 0.952734 -0.095071
C52   C     C_R   0.704278 0.498124 0.027899 -0.052610
C53   C     C_R   0.835110 0.925543 0.026512 0.312462
C54   C     C_R   0.213159 0.982480 0.955281 0.291057
C55   C     C_R   0.335118 0.425534 0.026514 0.312346
C56   C     C_R   0.713165 0.482480 0.955280 0.291057
C57   C     C_R   0.783846 0.857547 0.062965 0.037696
C58   C     C_R   0.229969 0.868339 0.932669 -0.016480
C59   C     C_R   0.283850 0.357545 0.062967 0.037662
C60   C     C_R   0.729974 0.368339 0.932669 -0.016480
C61   C     C_R   0.749571 0.776990 0.020414 0.033916
C62   C     C_R   0.252615 0.784023 0.983236 0.090204
C63   C     C_R   0.249573 0.276992 0.020417 0.033955
C64   C     C_R   0.752628 0.284025 0.983235 0.090171
C65   C     C_R   0.722755 0.825169 0.955646 0.273831
C66   C     C_R   0.273786 0.824302 0.049812 0.281865
C67   C     C_R   0.222756 0.325174 0.955649 0.273818
C68   C     C_R   0.773802 0.324308 0.049810 0.281854
C69   C     C_R   0.765087 0.905859 0.918775 0.010860
C70   C     C_R   0.242539 0.926342 0.075560 0.015010
C71   C     C_R   0.265086 0.405868 0.918780 0.010847
C72   C     C_R   0.742546 0.426342 0.075560 0.015020
C73   C     C_R   0.728809 0.019898 0.639774 0.562947
C74   C     C_R   0.271933 0.022038 0.359402 0.556345
C75   C     C_R   0.228809 0.519898 0.639773 0.562950
C76   C     C_R   0.771932 0.522034 0.359402 0.556359
C77   C     C_R   0.712984 0.335873 0.860121 0.584550
C78   C     C_R   0.289279 0.334944 0.140306 0.597702
C79   C     C_R   0.212983 0.835873 0.860121 0.584560
C80   C     C_R   0.789277 0.834947 0.140305 0.597702
C81   C     C_R   0.535065 0.156877 0.855296 0.560018
C82   C     C_R   0.470195 0.156642 0.148713 0.580221
C83   C     C_R   0.035065 0.656877 0.855295 0.560042
C84   C     C_R   0.970194 0.656645 0.148713 0.580203
C85   C     C_R   0.743771 0.967126 0.852157 0.589455
C86   C     C_R   0.257787 0.972770 0.146065 0.610995
C87   C     C_R   0.243771 0.467129 0.852159 0.589453
C88   C     C_R   0.757787 0.472770 0.146065 0.611012
C89   C     C_R   0.457753 0.143383 0.435100 -0.035678
C90   C     C_R   0.523116 0.144740 0.569548 -0.034374
C91   C     C_R   0.957757 0.643386 0.435098 -0.035708
C92   C     C_R   0.023114 0.644743 0.569549 -0.034376
C93   C     C_R   0.460805 0.244674 0.476183 -0.105713
C94   C     C_R   0.490195 0.243491 0.542598 -0.102047
C95   C     C_R   0.960821 0.744681 0.476177 -0.105719
C96   C     C_R   0.990197 0.743497 0.542596 -0.102044
C97   C     C_R   0.514236 0.035211 0.533011 0.222176
C98   C     C_R   0.475963 0.033545 0.469057 0.218117
C99   C     C_R   0.014235 0.535213 0.533011 0.222180
C100  C     C_R   0.975962 0.533548 0.469057 0.218126
Cr1   Cr    Cr6+3 0.771950 0.169480 0.750100 1.074265
Cr2   Cr    Cr6+3 0.228050 0.169480 0.249900 1.095605
Cr3   Cr    Cr6+3 0.271950 0.669480 0.750100 1.074273
Cr4   Cr    Cr6+3 0.728050 0.669480 0.249900 1.095593
Cr5   Cr    Cr6+3 0.614930 0.323340 0.749170 1.111467
Cr6   Cr    Cr6+3 0.385070 0.323340 0.250830 1.135566
Cr7   Cr    Cr6+3 0.114930 0.823340 0.749170 1.111457
Cr8   Cr    Cr6+3 0.885070 0.823340 0.250830 1.135678
Cr9   Cr    Cr6+3 0.616590 0.010620 0.750610 1.145681
Cr10  Cr    Cr6+3 0.383410 0.010620 0.249390 1.115679
Cr11  Cr    Cr6+3 0.116590 0.510620 0.750610 1.145682
Cr12  Cr    Cr6+3 0.883410 0.510620 0.249390 1.115663
H1    H     H_    0.866853 0.990541 0.923482 0.174790
H2    H     H_    0.180287 0.078508 0.045843 0.182348
H3    H     H_    0.366852 0.490549 0.923487 0.174845
H4    H     H_    0.680290 0.578505 0.045842 0.182349
H5    H     H_    0.929655 0.924527 0.466493 0.194473
H6    H     H_    0.069343 0.879167 0.540210 0.160538
H7    H     H_    0.429629 0.424515 0.466522 0.194442
H8    H     H_    0.569343 0.379156 0.540182 0.160516
O1    O     O_R   0.787510 0.042610 0.670410 -0.498505
O2    O     O_R   0.212490 0.042610 0.329590 -0.463357
O3    O     O_R   0.287510 0.542610 0.670410 -0.498501
O4    O     O_R   0.712490 0.542610 0.329590 -0.463364
O5    O     O_R   0.556450 0.252890 0.823790 -0.470617
O6    O     O_R   0.443550 0.252890 0.176210 -0.441785
O7    O     O_R   0.056450 0.752890 0.823790 -0.470595
O8    O     O_R   0.943550 0.752890 0.176210 -0.441774
O9    O     O_R   0.545750 0.051070 0.830560 -0.455389
O10   O     O_R   0.454250 0.051070 0.169440 -0.497438
O11   O     O_R   0.045750 0.551070 0.830560 -0.455391
O12   O     O_R   0.954250 0.551070 0.169440 -0.497463
O13   O     O_R   0.681210 0.959150 0.825320 -0.432477
O14   O     O_R   0.318790 0.959150 0.174680 -0.471579
O15   O     O_R   0.181210 0.459150 0.825320 -0.432470
O16   O     O_R   0.818790 0.459150 0.174680 -0.471609
O17   O     O_3   0.667820 0.167810 0.749960 -0.354401
O18   O     O_3   0.332180 0.167810 0.250040 -0.372851
O19   O     O_3   0.167820 0.667810 0.749960 -0.354397
O20   O     O_3   0.832180 0.667810 0.250040 -0.372863
O21   O     O_R   0.765670 0.292090 0.675090 -0.459280
O22   O     O_R   0.234330 0.292090 0.324910 -0.467916
O23   O     O_R   0.265670 0.792090 0.675090 -0.459277
O24   O     O_R   0.734330 0.792090 0.324910 -0.467915
O25   O     O_R   0.670220 0.409020 0.668560 -0.488463
O26   O     O_R   0.329780 0.409020 0.331440 -0.482897
O27   O     O_R   0.170220 0.909020 0.668560 -0.488477
O28   O     O_R   0.829780 0.909020 0.331440 -0.482912
O29   O     O_R   0.556580 0.251590 0.674980 -0.502276
O30   O     O_R   0.443420 0.251590 0.325020 -0.474941
O31   O     O_R   0.056580 0.751590 0.674980 -0.502304
O32   O     O_R   0.943420 0.751590 0.325020 -0.474950
O33   O     O_R   0.545890 0.049670 0.670030 -0.451438
O34   O     O_R   0.454110 0.049670 0.329970 -0.458763
O35   O     O_R   0.045890 0.549670 0.670030 -0.451436
O36   O     O_R   0.954110 0.549670 0.329970 -0.458764
O37   O     O_R   0.681340 0.957860 0.676500 -0.445228
O38   O     O_R   0.318660 0.957860 0.323500 -0.433652
O39   O     O_R   0.181340 0.457860 0.676500 -0.445228
O40   O     O_R   0.818660 0.457860 0.323500 -0.433645
O41   O     O_R   0.787380 0.044010 0.830940 -0.528769
O42   O     O_R   0.212620 0.044010 0.169060 -0.504510
O43   O     O_R   0.287380 0.544010 0.830940 -0.528769
O44   O     O_R   0.712620 0.544010 0.169060 -0.504501
O45   O     O_R   0.765540 0.293390 0.823910 -0.521335
O46   O     O_R   0.234460 0.293390 0.176090 -0.525514
O47   O     O_R   0.265540 0.793390 0.823910 -0.521334
O48   O     O_R   0.734460 0.793390 0.176090 -0.525539
O49   O     O_R   0.670090 0.410410 0.829090 -0.438223
O50   O     O_R   0.329910 0.410410 0.170910 -0.446573
O51   O     O_R   0.170090 0.910410 0.829090 -0.438213
O52   O     O_R   0.829910 0.910410 0.170910 -0.446303
Br1   Br    Br    0.548501 0.882160 0.569235 -0.198556
Br2   Br    Br    0.453300 0.877382 0.430686 -0.188762
Br3   Br    Br    0.048499 0.382161 0.569235 -0.198558
Br4   Br    Br    0.953295 0.377386 0.430688 -0.188774
O53   O     O_3   0.900064 0.941042 0.056911 -0.509101
C101  C     C_3   0.917187 0.061815 0.057433 -0.022947
H9    H     H_    0.905897 0.095923 0.111240 0.199941
H10   H     H_    0.890567 0.114271 0.015015 0.124592
H11   H     H_    0.973451 0.073765 0.047744 0.177845
O54   O     O_3   0.198262 0.075487 0.908411 -0.461255
C102  C     C_3   0.251984 0.096139 0.857312 0.019684
H12   H     H_    0.291669 0.025468 0.853819 0.071121
H13   H     H_    0.280158 0.179171 0.868140 0.147920
H14   H     H_    0.227863 0.108100 0.803790 0.186044
O55   O     O_3   0.400088 0.440970 0.056888 -0.509170
C103  C     C_3   0.417147 0.561760 0.057563 -0.022877
H15   H     H_    0.405548 0.595801 0.111317 0.200123
H16   H     H_    0.390738 0.614190 0.014993 0.124442
H17   H     H_    0.473458 0.573806 0.048196 0.177821
O56   O     O_3   0.698268 0.575486 0.908410 -0.461257
C104  C     C_3   0.751990 0.596136 0.857311 0.019676
H18   H     H_    0.791676 0.525465 0.853820 0.071125
H19   H     H_    0.780164 0.679169 0.868138 0.147921
H20   H     H_    0.727869 0.608092 0.803788 0.186042
Br5   Br    Br    0.824561 0.662514 0.010231 -0.684102
Br6   Br    Br    0.205202 0.636955 0.985667 -0.599268
Br7   Br    Br    0.324558 0.162509 0.010231 -0.684047
Br8   Br    Br    0.705215 0.136956 0.985672 -0.599236
O57   O     O_3   0.663507 0.782843 0.922355 -0.507895
C105  C     C_3   0.606780 0.787976 0.968517 0.002443
H21   H     H_    0.560218 0.752459 0.940793 0.203819
H22   H     H_    0.597582 0.881474 0.980838 0.198770
H23   H     H_    0.614472 0.734879 0.018045 0.102402
O58   O     O_3   0.325194 0.767074 0.087968 -0.565844
C106  C     C_3   0.388893 0.826018 0.073280 -0.076927
H24   H     H_    0.427038 0.801967 0.115632 0.185968
H25   H     H_    0.385032 0.924251 0.071578 0.193815
H26   H     H_    0.410094 0.799756 0.021108 0.120025
O59   O     O_3   0.163508 0.282847 0.922359 -0.507895
C107  C     C_3   0.106782 0.287981 0.968521 0.002420
H27   H     H_    0.060219 0.252470 0.940795 0.203778
H28   H     H_    0.097586 0.381477 0.980845 0.198793
H29   H     H_    0.114472 0.234879 0.018047 0.102404
O60   O     O_3   0.825212 0.267082 0.087968 -0.565712
C108  C     C_3   0.888907 0.326067 0.073312 -0.076841
H30   H     H_    0.927024 0.302092 0.115707 0.186078
H31   H     H_    0.885024 0.424296 0.071567 0.193723
H32   H     H_    0.910161 0.299771 0.021169 0.119978
O61   O     O_3   0.522227 0.407471 0.408836 -0.499633
C109  C     C_3   0.579052 0.330548 0.396863 -0.024536
H33   H     H_    0.567089 0.268938 0.353061 0.181707
H34   H     H_    0.596335 0.278191 0.444116 0.097571
H35   H     H_    0.623403 0.385074 0.378561 0.213965
O62   O     O_3   0.480794 0.449587 0.589351 -0.489683
C110  C     C_3   0.425483 0.400898 0.629574 -0.009418
H36   H     H_    0.440046 0.319950 0.659922 0.147939
H37   H     H_    0.380534 0.382547 0.594381 0.153915
H38   H     H_    0.410049 0.466397 0.669910 0.199748
O63   O     O_3   0.022273 0.907464 0.408842 -0.499640
C111  C     C_3   0.079082 0.830503 0.396879 -0.024548
H39   H     H_    0.067065 0.768726 0.353188 0.181596
H40   H     H_    0.096436 0.778340 0.444173 0.097567
H41   H     H_    0.123399 0.884964 0.378435 0.214020
O64   O     O_3   0.980776 0.949599 0.589339 -0.489698
C112  C     C_3   0.925478 0.900895 0.629572 -0.009430
H42   H     H_    0.940054 0.819955 0.659922 0.147936
H43   H     H_    0.880527 0.882525 0.594386 0.153938
H44   H     H_    0.910041 0.966392 0.669909 0.199751
Br9   Br    Br    0.752739 0.767028 0.575090 -0.520059
Br10  Br    Br    0.248484 0.776815 0.432323 -0.508451
Br11  Br    Br    0.252745 0.267029 0.575090 -0.520084
Br12  Br    Br    0.748455 0.276804 0.432327 -0.508492
Br13  Br    Br    0.620902 0.950213 0.408288 -0.402678
Br14  Br    Br    0.380214 0.942158 0.599625 -0.386174
Br15  Br    Br    0.120899 0.450199 0.408289 -0.402710
Br16  Br    Br    0.880209 0.442164 0.599616 -0.386186
Br17  Br    Br    0.876119 0.103662 0.396898 -0.228222
Br18  Br    Br    0.116205 0.093681 0.595274 -0.217916
Br19  Br    Br    0.376129 0.603649 0.396902 -0.228212
Br20  Br    Br    0.616203 0.593676 0.595271 -0.217891
Br21  Br    Br    0.864241 0.151831 0.564657 -0.272350
Br22  Br    Br    0.130434 0.144822 0.428839 -0.237659
Br23  Br    Br    0.364241 0.651831 0.564657 -0.272366
Br24  Br    Br    0.630438 0.644832 0.428840 -0.237736
O65   O     O_3   0.487440 0.952571 0.934982 -0.562948
C113  C     C_3   0.421033 0.955014 0.902571 -0.087986
H45   H     H_    0.415310 0.028821 0.863216 0.134667
H46   H     H_    0.379602 0.960181 0.943109 0.125516
H47   H     H_    0.413275 0.870973 0.873523 0.161459
O66   O     O_3   0.522313 0.946219 0.075395 -0.595908
C114  C     C_3   0.584393 0.946064 0.116625 -0.101937
H48   H     H_    0.629918 0.977208 0.085275 0.145287
H49   H     H_    0.595262 0.853744 0.134345 0.152361
H50   H     H_    0.579687 0.000195 0.165304 0.173256
O67   O     O_3   0.987449 0.452572 0.934989 -0.562963
C115  C     C_3   0.921040 0.455002 0.902582 -0.087995
H51   H     H_    0.915310 0.528807 0.863227 0.134669
H52   H     H_    0.879611 0.460162 0.943122 0.125511
H53   H     H_    0.913286 0.370958 0.873535 0.161449
O68   O     O_3   0.022327 0.446236 0.075399 -0.595927
C116  C     C_3   0.084406 0.446092 0.116631 -0.101943
H54   H     H_    0.129932 0.477225 0.085278 0.145298
H55   H     H_    0.095275 0.353777 0.134360 0.152388
H56   H     H_    0.079699 0.500236 0.165305 0.173239
Br25  Br    Br    0.556225 0.396255 0.102456 -0.457228
Br26  Br    Br    0.529954 0.427740 0.925944 -0.441255
Br27  Br    Br    0.056168 0.896325 0.102443 -0.457168
Br28  Br    Br    0.029961 0.927734 0.925923 -0.441467

loop_
_geom_bond_atom_site_label_1
_geom_bond_atom_site_label_2
_ccdc_geom_bond_type
C58   C62   A    
C114  H50   S    
C49   H1    S    
C56   O56   S    
Cr3   O47   S    
C93   C94   A    
Cr6   O30   S    
C55   C59   A    
C34   C37   A    
C11   Br11  S    
C47   C92   S    
C7    H5    S    
C87   O43   A    
C95   C96   A    
C8    C96   S    
C78   O50   A    
C102  H12   S    
Cr9   O37   S    
C26   C30   A    
C97   C98   A    
C8    H6    S    
C114  H48   S    
C46   C89   S    
C7    O63   S    
C108  H32   S    
C15   C19   A    
C43   Br27  S    
C4    O24   A    
C50   C54   A    
C105  H22   S    
C5    H7    S    
C103  H17   S    
C52   C72   A    
C64   C68   A    
Cr9   O17   S    
C39   C84   S    
C22   Br18  S    
Cr3   O19   S    
C34   O66   S    
C102  H13   S    
C21   Br17  S    
C5    C6    S    
C98   Br2   S    
C49   C53   A    
C101  H10   S    
Cr6   O18   S    
C29   C73   S    
Cr8   O28   S    
C77   O45   A    
C4    O28   A    
C73   O37   A    
C92   C96   A    
C116  H56   S    
C85   O41   A    
O64   C112  S    
C51   C55   A    
C3    C18   S    
C103  H16   S    
O65   C113  S    
C41   C42   A    
C79   O51   A    
C30   C74   S    
C9    C13   A    
O54   C102  S    
C82   O6    A    
Cr3   O43   S    
C23   Br19  S    
Cr8   O32   S    
C11   C15   A    
C86   O14   A    
Cr1   O17   S    
C35   C36   A    
C63   Br7   S    
O68   C116  S    
C6    C94   S    
C105  H23   S    
C10   Br10  S    
C100  Br4   S    
C106  H26   S    
C54   O54   S    
C67   O59   S    
C86   O42   A    
C23   C27   A    
C91   C100  A    
C82   O10   A    
C5    O61   S    
Cr9   O33   S    
C90   C97   A    
C45   O29   A    
Cr10  O38   S    
C9    C29   A    
Cr7   O31   S    
C52   H4    S    
C48   O36   A    
Cr11  O35   S    
Cr3   O3    S    
Cr2   O46   S    
C49   C69   A    
C112  H42   S    
C12   C32   A    
Cr2   O18   S    
Cr6   O50   S    
C57   C80   S    
C40   C83   S    
C109  H33   S    
Cr1   O21   S    
C84   O8    A    
Cr12  O16   S    
C42   Br26  S    
C59   C78   S    
C6    H8    S    
C72   C88   S    
C51   H3    S    
C90   C94   A    
Cr5   O29   S    
C16   Br16  S    
C25   C29   A    
C46   O34   A    
C63   C67   A    
C60   C77   S    
C78   O46   A    
C97   Br1   S    
C105  H21   S    
C74   O38   A    
C27   C31   A    
C106  H24   S    
C76   O4    A    
C12   C16   A    
C28   C32   A    
C3    O23   A    
O60   C108  S    
C62   Br6   S    
C53   C57   A    
C85   O13   A    
C7    C8    S    
C26   Br22  S    
C102  H14   S    
C61   Br5   S    
C48   O32   A    
Cr8   O20   S    
C41   Br25  S    
C62   C66   A    
O58   C106  S    
Cr7   O51   S    
C109  H35   S    
C12   Br12  S    
C108  H30   S    
C88   O44   A    
Cr9   O13   S    
C48   C91   S    
C89   C93   A    
Cr1   O1    S    
C56   C60   A    
C53   O53   S    
C103  H15   S    
C50   H2    S    
C113  H46   S    
C43   C44   A    
O59   C107  S    
C83   O11   A    
O61   C109  S    
Cr10  O34   S    
C101  H9    S    
C87   O15   A    
Cr4   O48   S    
C81   O5    A    
Cr7   O27   S    
C10   C30   A    
C31   C75   S    
C110  H36   S    
C61   C65   A    
C115  H53   S    
C24   Br20  S    
C16   C20   A    
C104  H20   S    
Cr5   O25   S    
C17   C21   A    
C104  H19   S    
C33   C34   A    
C36   O68   S    
C65   O57   S    
C11   C31   A    
Cr12  O12   S    
Cr11  O19   S    
C109  H34   S    
C45   C90   S    
C88   O16   A    
C47   O31   A    
Cr5   O49   S    
C58   C79   S    
O53   C101  S    
C71   C87   S    
C4    C17   S    
C8    O64   S    
Cr10  O18   S    
Cr11  O11   S    
Cr12  O36   S    
C74   O2    A    
C115  H52   S    
C9    Br9   S    
C104  H18   S    
C55   O55   S    
C66   C70   A    
C112  H43   S    
C38   C81   S    
C10   C14   A    
C81   O9    A    
C2    O22   A    
Cr2   O22   S    
C75   O3    A    
C37   C82   S    
Cr10  O14   S    
C113  H47   S    
C45   O33   A    
C1    O25   A    
C80   O52   A    
Cr12  O20   S    
C70   C86   S    
C37   C41   A    
C69   C85   S    
Cr2   O42   S    
C19   C23   A    
C54   C58   A    
C75   O39   A    
C2    C19   S    
C114  H49   S    
C21   C25   A    
C76   O40   A    
C1    C20   S    
C25   Br21  S    
Cr12  O40   S    
C46   O30   A    
C111  H40   S    
C18   C22   A    
C107  H29   S    
C59   C63   A    
C14   C18   A    
C36   C39   A    
C24   C28   A    
C15   Br15  S    
Cr3   O23   S    
C32   C76   S    
C5    C93   S    
O67   C115  S    
C51   C71   A    
C57   C61   A    
O66   C114  S    
Cr4   O4    S    
Cr5   O5    S    
C68   C72   A    
C2    O26   A    
C7    C95   S    
Cr6   O6    S    
Cr10  O10   S    
C73   O1    A    
C33   C38   A    
Cr6   O26   S    
C99   C100  A    
C13   C17   A    
C89   C98   A    
C60   C64   A    
C35   O67   S    
O56   C104  S    
C20   C24   A    
C64   Br8   S    
C35   C40   A    
C50   C70   A    
Cr7   O7    S    
O55   C103  S    
C110  H37   S    
C3    O27   A    
Cr1   O45   S    
Cr9   O9    S    
Cr11  O15   S    
Cr4   O44   S    
C44   Br28  S    
C47   O35   A    
Cr8   O52   S    
C65   C69   A    
C6    O62   S    
Cr1   O41   S    
C111  H39   S    
C116  H55   S    
C84   O12   A    
C13   Br13  S    
C113  H45   S    
C67   C71   A    
C111  H41   S    
C66   O58   S    
Cr7   O19   S    
C108  H31   S    
C68   O60   S    
C83   O7    A    
C101  H11   S    
C1    O21   A    
Cr4   O24   S    
C107  H28   S    
Cr5   O17   S    
C38   C42   A    
Cr4   O20   S    
C40   C44   A    
C110  H38   S    
C99   Br3   S    
O57   C105  S    
C39   C43   A    
C91   C95   A    
C77   O49   A    
O62   C110  S    
C22   C26   A    
C112  H44   S    
C33   O65   S    
O63   C111  S    
C106  H25   S    
C28   Br24  S    
Cr8   O8    S    
C79   O47   A    
Cr2   O2    S    
C27   Br23  S    
C80   O48   A    
C52   C56   A    
C92   C99   A    
C107  H27   S    
C115  H51   S    
C14   Br14  S    
Cr11  O39   S    
C116  H54   S    
