data_mof_unit_33977.cif
_audit_creation_date              2012-12-11T14:50:54-0500
_audit_creation_method            fapswitch 2.2
_symmetry_space_group_name_H-M    P1
_symmetry_Int_Tables_number       1
_space_group_crystal_system       triclinic
_cell_length_a                    10.893586
_cell_length_b                    10.922901
_cell_length_c                    18.854131
_cell_angle_alpha                 90.381484
_cell_angle_beta                  89.854348
_cell_angle_gamma                 60.216779
_cell_volume                      1947.02291868

loop_
_atom_site_label
_atom_site_type_symbol
_atom_type_description
_atom_site_fract_x
_atom_site_fract_y
_atom_site_fract_z
_atom_type_partial_charge
C1    C     C_R   0.239372 0.645299 0.610437 0.578741
C2    C     C_R   0.552801 0.213180 0.794232 -0.143620
C3    C     C_R   0.540331 0.220850 0.721890 -0.095181
C4    C     C_R   0.655464 0.623995 0.599933 0.631920
C5    C     C_R   0.656037 0.192890 0.678682 0.070080
C6    C     C_R   0.215257 0.545043 0.724348 -0.085989
C7    C     C_R   0.204203 0.552913 0.798078 -0.126245
C8    C     C_R   0.174594 0.677801 0.833159 0.009165
C9    C     C_R   0.167518 0.790338 0.794254 -0.145227
C10   C     C_R   0.177159 0.782997 0.721344 -0.127267
C11   C     C_R   0.200623 0.660517 0.685446 0.066497
C12   C     C_3   0.655297 0.563695 0.798302 -0.265308
C13   C     C_R   0.705858 0.523871 0.269827 -0.092431
C14   C     C_R   0.705970 0.538824 0.196932 0.221929
C15   C     C_R   0.649221 0.674077 0.167968 0.042063
C16   C     C_R   0.626342 0.231959 0.604194 0.575334
C17   C     C_R   0.579322 0.793594 0.212560 -0.172144
C18   C     C_R   0.576400 0.777885 0.285795 -0.147856
C19   C     C_R   0.645483 0.642706 0.314822 -0.006462
C20   C     C_R   0.528210 0.183783 0.285391 -0.137051
C21   C     C_R   0.534005 0.174545 0.212865 -0.150705
C22   C     C_R   0.657426 0.148534 0.177916 0.065830
C23   C     C_3   0.704135 0.672407 0.811239 -0.032130
C24   C     C_R   0.774786 0.132794 0.216444 -0.086078
C25   C     C_R   0.767298 0.147361 0.289169 -0.147967
C26   C     C_R   0.642975 0.175451 0.323688 0.033763
C27   C     C_R   0.110505 0.799963 0.301746 -0.133208
C28   C     C_R   0.218791 0.649966 0.402498 0.560661
C29   C     C_R   0.101482 0.806848 0.229613 -0.128142
C30   C     C_R   0.117740 0.690865 0.189419 0.036326
C31   C     C_R   0.140982 0.567575 0.223081 -0.132104
C32   C     C_R   0.158945 0.557547 0.296138 -0.124998
C33   C     C_R   0.150047 0.672375 0.334866 0.036368
C34   C     C_3   0.675346 0.650842 0.674645 0.056527
C35   C     C_R   0.701598 0.103554 0.896550 0.551673
C36   C     C_R   0.724288 0.687738 0.887828 0.554244
C37   C     C_R   0.117827 0.707251 0.905317 0.542319
C38   C     C_R   0.676034 0.104740 0.104794 0.575022
C39   C     C_R   0.693944 0.690388 0.097228 0.580658
C40   C     C_R   0.639912 0.619542 0.390547 0.558909
C41   C     C_R   0.086358 0.713364 0.114745 0.545568
C42   C     C_R   0.617174 0.227937 0.395333 0.557142
C43   C     C_3   0.589179 0.816663 0.779831 -0.239422
C44   C     C_3   0.552401 0.794641 0.703878 0.094328
C45   C     C_3   0.824577 0.638203 0.689266 0.427194
C46   C     C_3   0.849204 0.622005 0.770993 0.149439
C47   C     C_3   0.663933 0.533725 0.717985 -0.289032
C48   C     C_R   0.787410 0.153559 0.709860 -0.105491
C49   C     C_R   0.802737 0.135649 0.783448 -0.118446
C50   C     C_R   0.685271 0.162439 0.825695 0.013519
Cl1   Cl    Cl    0.977011 0.441288 0.794479 -0.597399
Cl2   Cl    Cl    0.970356 0.497449 0.640614 -0.488755
Cl3   Cl    Cl    0.782896 0.385714 0.143376 -0.637785
Cl4   Cl    Cl    0.504354 0.947004 0.650198 -0.537676
Cl5   Cl    Cl    0.831612 0.791101 0.660458 -0.557083
Cr1   Cr    Cr6+3 0.392930 0.397900 0.502230 1.086215
Cr2   Cr    Cr6+3 0.398240 0.708600 0.501260 1.077901
Cr3   Cr    Cr6+3 0.708800 0.393470 0.496460 1.065848
Cr4   Cr    Cr6+3 0.937620 0.938540 0.007640 1.057627
Cr5   Cr    Cr6+3 0.625150 0.937450 0.994520 1.027048
Cr6   Cr    Cr6+3 0.937990 0.625080 0.001190 1.090512
H1    H     H_    0.757636 0.428578 0.706829 0.207934
H2    H     H_    0.535054 0.898987 0.191407 0.143287
H3    H     H_    0.524642 0.870544 0.319702 0.139047
H4    H     H_    0.430037 0.205439 0.310795 0.138188
H5    H     H_    0.443619 0.183140 0.184569 0.132138
H6    H     H_    0.872705 0.109066 0.190377 0.172626
H7    H     H_    0.856052 0.141531 0.317886 0.122457
H8    H     H_    0.100496 0.890687 0.330617 0.135418
H9    H     H_    0.454088 0.787265 0.706619 0.140854
H10   H     H_    0.081762 0.904547 0.205664 0.137752
H11   H     H_    0.149015 0.478961 0.193053 0.138087
H12   H     H_    0.877454 0.135008 0.677530 0.152529
H13   H     H_    0.188591 0.457916 0.321351 0.134847
H14   H     H_    0.895285 0.687791 0.788897 0.154682
H15   H     H_    0.720970 0.463977 0.827483 0.197058
H16   H     H_    0.544450 0.606859 0.817408 0.117147
H17   H     H_    0.568808 0.527149 0.702183 0.095922
H18   H     H_    0.629335 0.892549 0.780372 0.198244
H19   H     H_    0.438138 0.250229 0.699940 0.171792
H20   H     H_    0.752174 0.418567 0.291307 0.159325
H21   H     H_    0.906275 0.095626 0.806684 0.145543
H22   H     H_    0.459799 0.235621 0.825145 0.146066
H23   H     H_    0.234706 0.449290 0.697751 0.188845
H24   H     H_    0.213016 0.464166 0.827421 0.177538
H25   H     H_    0.146527 0.888196 0.819563 0.146859
H26   H     H_    0.490460 0.863714 0.812350 0.139397
H27   H     H_    0.168696 0.873126 0.693321 0.157464
O1    O     O_R   0.507430 0.255570 0.581420 -0.480778
O2    O     O_R   0.837200 0.593290 0.915250 -0.447566
O3    O     O_R   0.065330 0.635370 0.931590 -0.488989
O4    O     O_R   0.280190 0.527390 0.578910 -0.486189
O5    O     O_R   0.068300 0.828790 0.091860 -0.527222
O6    O     O_R   0.798730 0.057480 0.079370 -0.487530
O7    O     O_R   0.584680 0.080480 0.076790 -0.531627
O8    O     O_R   0.626790 0.809640 0.067050 -0.520277
O9    O     O_R   0.816010 0.596460 0.076500 -0.449641
O10   O     O_R   0.045680 0.638310 0.081070 -0.504673
O11   O     O_3   0.833590 0.833690 0.001120 -0.276260
O12   O     O_R   0.524460 0.695920 0.424060 -0.490512
O13   O     O_R   0.260310 0.739740 0.584580 -0.519003
O14   O     O_R   0.532250 0.695150 0.573830 -0.475759
O15   O     O_R   0.744930 0.503430 0.576380 -0.467372
O16   O     O_R   0.699250 0.276390 0.571950 -0.516320
O17   O     O_R   0.499020 0.256400 0.419850 -0.517920
O18   O     O_R   0.272400 0.528160 0.429140 -0.500978
O19   O     O_R   0.251910 0.740570 0.423020 -0.518456
O20   O     O_R   0.736530 0.504260 0.414810 -0.512956
O21   O     O_R   0.691460 0.277160 0.422180 -0.511016
O22   O     O_3   0.499990 0.499990 0.499980 -0.292657
O23   O     O_R   0.089490 0.825610 0.930610 -0.523085
O24   O     O_R   0.818370 0.054540 0.929880 -0.492469
O25   O     O_R   0.605870 0.077310 0.915530 -0.522170
O26   O     O_R   0.646440 0.806700 0.917570 -0.518787

loop_
_geom_bond_atom_site_label_1
_geom_bond_atom_site_label_2
_ccdc_geom_bond_type
C21   H5    S    
C27   C29   A    
Cr3   O21   S    
Cr4   O11   S    
Cr5   O26   S    
Cr6   O10   S    
C1    C11   S    
Cr5   O11   S    
C36   O26   A    
C47   H1    S    
C2    H22   S    
C7    C8    A    
C45   C46   S    
C27   C33   A    
Cr2   O14   S    
C12   C23   S    
C10   H27   S    
C42   O21   A    
C32   H13   S    
C30   C31   A    
C39   O9    A    
C28   O19   A    
C43   H18   S    
C22   C38   S    
C4    O15   A    
C13   H20   S    
C23   C43   S    
C18   C19   A    
C5    C16   S    
C2    C50   A    
C24   H6    S    
C16   O16   A    
C41   O5    A    
C31   C32   A    
C28   O18   A    
C8    C9    A    
C4    O14   A    
C38   O7    A    
Cr4   O23   S    
C30   C41   S    
C44   H9    S    
Cr4   O6    S    
C9    C10   A    
C27   H8    S    
C40   O20   A    
C16   O1    A    
C23   C46   S    
C21   C22   A    
Cr5   O25   S    
Cr6   O11   S    
C25   H7    S    
C12   C47   S    
C3    H19   S    
Cr1   O22   S    
C46   H14   S    
Cr4   O24   S    
C39   O8    A    
C5    C48   A    
C4    C34   S    
C6    H23   S    
C37   O3    A    
C20   H4    S    
C34   C44   S    
C24   C25   A    
C31   H11   S    
C10   C11   A    
C6    C11   A    
C13   C19   A    
C45   Cl2   S    
C25   C26   A    
Cr2   O12   S    
C46   Cl1   S    
C49   H21   S    
C43   C44   S    
C29   C30   A    
C9    H25   S    
Cr2   O22   S    
C14   C15   A    
Cr1   O18   S    
C12   H16   S    
C38   O6    A    
C35   C50   S    
C17   C18   A    
C34   C45   S    
C15   C39   S    
Cr5   O8    S    
C48   C49   A    
Cr2   O19   S    
C28   C33   S    
C23   C36   S    
C1    O4    A    
C12   H15   S    
C22   C24   A    
Cr3   O16   S    
C8    C37   S    
C1    O13   A    
Cr6   O2    S    
C26   C42   S    
C36   O2    A    
C15   C17   A    
Cr1   O1    S    
Cr3   O22   S    
C48   H12   S    
Cr6   O9    S    
C3    C5    A    
C40   O12   A    
C6    C7    A    
C34   C47   S    
Cr2   O13   S    
C43   H26   S    
C32   C33   A    
C2    C3    A    
C17   H2    S    
C18   H3    S    
C7    H24   S    
C20   C26   A    
C35   O25   A    
Cr3   O20   S    
C42   O17   A    
Cr1   O17   S    
C37   O23   A    
C19   C40   S    
Cr5   O7    S    
C44   Cl4   S    
Cr1   O4    S    
C14   Cl3   S    
C20   C21   A    
C45   Cl5   S    
C49   C50   A    
C41   O10   A    
Cr3   O15   S    
Cr4   O5    S    
C47   H17   S    
C13   C14   A    
C35   O24   A    
Cr6   O3    S    
C29   H10   S    
