data_mof_unit_57345.cif
_audit_creation_date              2012-12-10T16:54:03-0500
_audit_creation_method            fapswitch 2.2
_symmetry_space_group_name_H-M    P1
_symmetry_Int_Tables_number       1
_space_group_crystal_system       triclinic
_cell_length_a                    9.713683
_cell_length_b                    10.972715
_cell_length_c                    13.408095
_cell_angle_alpha                 91.20091
_cell_angle_beta                  72.640193
_cell_angle_gamma                 91.030266
_cell_volume                      1363.60952314

loop_
_atom_site_label
_atom_site_type_symbol
_atom_type_description
_atom_site_fract_x
_atom_site_fract_y
_atom_site_fract_z
_atom_type_partial_charge
C1    C     C_R   0.499668 0.733946 0.503571 0.743308
C2    C     C_R   0.435661 0.514156 0.979834 0.089953
C3    C     C_R   0.465199 0.550164 0.874418 -0.092254
C4    C     C_R   0.542372 0.534381 0.031827 -0.078846
C5    C     C_R   0.666474 0.606093 0.983466 -0.177288
C6    C     C_R   0.683269 0.655424 0.885534 -0.182225
C7    C     C_R   0.581184 0.632895 0.833118 0.457001
C8    C     C_R   0.531159 0.484182 0.129784 0.482707
C9    C     C_R   0.744731 0.596616 0.139148 0.301175
C10   C     C_R   0.373697 0.506736 0.815810 -0.231788
C11   C     C_2   0.607090 0.066014 0.506991 0.461548
C12   C     C_R   0.422299 0.504370 0.700365 0.893771
C13   C     C_2   0.501281 0.131157 0.486529 0.281875
C14   C     C_2   0.610990 0.933421 0.484533 -0.354529
C15   C     C_2   0.494108 0.863332 0.523122 0.475116
C16   C     C_2   0.051061 0.562999 0.566280 0.169970
C17   C     C_2   0.892862 0.541693 0.577250 0.154137
C18   C     C_R   0.499326 0.264758 0.498675 0.743158
C19   C     C_R   0.577716 0.502490 0.299924 0.885709
C20   C     C_R   0.769599 0.632153 0.035604 0.551181
C21   C     C_R   0.623137 0.523488 0.186883 -0.317550
C22   C     C_R   0.239277 0.453315 0.868507 0.618274
C23   C     C_R   0.199597 0.438492 0.975876 -0.179102
C24   C     C_R   0.296752 0.466542 0.030998 -0.163690
Cu1   Cu    Cu3+1 0.361370 0.499980 0.499980 1.033106
Cu2   Cu    Cu3+1 0.638630 0.500020 0.500020 1.098375
H1    H     H_    0.711279 0.893419 0.437227 0.099826
H2    H     H_    0.079790 0.630672 0.617002 0.080524
H3    H     H_    0.815924 0.561811 0.652358 0.085786
H4    H     H_    0.772779 0.716617 0.850646 0.206980
H5    H     H_    0.257616 0.455677 0.114446 0.215872
H6    H     H_    0.094103 0.401436 0.016445 0.186730
N1    N     N_2   0.152660 0.501340 0.501130 0.008816
N2    N     N_2   0.846520 0.501370 0.501160 0.121890
O1    O     O_R   0.382960 0.678040 0.499980 -0.580368
O2    O     O_R   0.617100 0.678080 0.500020 -0.592616
O3    O     O_R   0.325800 0.499940 0.650950 -0.535449
O4    O     O_R   0.559930 0.499980 0.650990 -0.575972
O5    O     O_R   0.382900 0.321920 0.499980 -0.579650
O6    O     O_R   0.617040 0.321960 0.500020 -0.535300
O7    O     O_R   0.440070 0.500020 0.349010 -0.598923
O8    O     O_R   0.674200 0.500060 0.349050 -0.492782
O9    O     O_3   0.841836 0.630230 0.192353 -0.502804
C25   C     C_3   0.812783 0.750830 0.230309 -0.146067
H7    H     H_    0.882047 0.773760 0.280697 0.184094
H8    H     H_    0.698471 0.761219 0.278928 0.091396
H9    H     H_    0.839209 0.816797 0.165284 0.182025
O10   O     O_3   0.410921 0.074271 0.435502 -0.603379
C26   C     C_3   0.263733 0.087662 0.492993 -0.128646
H10   H     H_    0.213953 0.157451 0.457097 0.162260
H11   H     H_    0.244599 0.110087 0.577558 0.186885
H12   H     H_    0.206303 0.000468 0.488035 0.188062
F1    F     F_    0.371980 0.908594 0.591485 -0.692889
O11   O     O_3   0.106539 0.393331 0.471613 -0.500188
C27   C     C_3   0.175616 0.374692 0.364180 0.097052
H13   H     H_    0.277908 0.325527 0.351547 0.180384
H14   H     H_    0.193848 0.460854 0.319305 0.187434
H15   H     H_    0.105075 0.315441 0.331785 0.128639
F2    F     F_    0.935198 0.522977 0.405594 -0.553094
F3    F     F_    0.890998 0.697364 0.988171 -0.649130
F4    F     F_    0.438551 0.390674 0.168258 -0.704993
F5    F     F_    0.146272 0.413557 0.816406 -0.645813
O12   O     O_3   0.588961 0.702383 0.746793 -0.606090
C28   C     C_3   0.507966 0.808883 0.781403 -0.283222
H16   H     H_    0.536281 0.855961 0.847253 0.161384
H17   H     H_    0.390443 0.787495 0.804065 0.198181
H18   H     H_    0.532934 0.874250 0.716605 0.214861
O13   O     O_3   0.704754 0.125081 0.551084 -0.577971
C29   C     C_3   0.816554 0.049508 0.559604 -0.268602
H19   H     H_    0.884834 0.018707 0.481204 0.149936
H20   H     H_    0.773230 0.970887 0.611104 0.170286
H21   H     H_    0.887021 0.103509 0.596022 0.201552

loop_
_geom_bond_atom_site_label_1
_geom_bond_atom_site_label_2
_ccdc_geom_bond_type
C16   H2    S    
C13   O10   S    
C2    C4    A    
C18   O5    A    
C25   H9    S    
C6    C7    A    
C1    C15   S    
C16   N1    D    
C20   F3    S    
C17   H3    S    
C9    C20   A    
C19   O8    A    
C4    C8    A    
C8    F4    S    
O9    C25   S    
C26   H12   S    
C9    C21   A    
C23   H6    S    
C27   H13   S    
C2    C3    A    
C24   H5    S    
C3    C10   A    
Cu1   O5    S    
C12   O4    A    
C11   C13   D    
C10   C22   A    
C7    O12   S    
C29   H19   S    
C10   C12   S    
C13   C18   S    
Cu1   O1    S    
C15   F1    S    
C28   H16   S    
Cu2   O2    S    
O10   C26   S    
C6    H4    S    
C25   H8    S    
C8    C21   A    
C3    C7    A    
C27   H14   S    
C2    C24   A    
C5    C6    A    
C14   H1    S    
C11   C14   S    
C5    C20   A    
C9    O9    S    
C22   F5    S    
C17   N2    D    
C23   C24   A    
O12   C28   S    
C28   H18   S    
Cu2   O6    S    
C29   H21   S    
C16   C17   S    
C11   O13   S    
Cu2   O8    S    
C26   H10   S    
C12   O3    A    
C27   H15   S    
Cu1   O7    S    
N1    O11   S    
C29   H20   S    
C1    O1    A    
C18   O6    A    
O11   C27   S    
C4    C5    A    
C19   C21   S    
Cu1   Cu2   S    
C14   C15   D    
N2    F2    S    
Cu1   N1    S    
Cu2   N2    S    
C22   C23   A    
Cu2   O4    S    
C25   H7    S    
C19   O7    A    
C1    O2    A    
Cu1   O3    S    
O13   C29   S    
C26   H11   S    
C28   H17   S    
