data_mof_unit_19185.cif
_audit_creation_date              2012-12-11T16:12:51-0500
_audit_creation_method            fapswitch 2.2
_symmetry_space_group_name_H-M    P1
_symmetry_Int_Tables_number       1
_space_group_crystal_system       triclinic
_cell_length_a                    7.025799
_cell_length_b                    21.23386
_cell_length_c                    23.683552
_cell_angle_alpha                 90.008317
_cell_angle_beta                  90.009546
_cell_angle_gamma                 90.102615
_cell_volume                      3533.22098172

loop_
_atom_site_label
_atom_site_type_symbol
_atom_type_description
_atom_site_fract_x
_atom_site_fract_y
_atom_site_fract_z
_atom_type_partial_charge
O1    O     O_R   0.615270 0.806540 0.192260 -0.535354
O2    O     O_R   0.384730 0.193460 0.807740 -0.533871
O3    O     O_R   0.384730 0.193460 0.692260 -0.533742
O4    O     O_R   0.615270 0.806540 0.307740 -0.533489
O5    O     O_R   0.115270 0.693460 0.307740 -0.535374
O6    O     O_R   0.884730 0.306540 0.692260 -0.533945
O7    O     O_R   0.884730 0.306540 0.807740 -0.535446
O8    O     O_R   0.115270 0.693460 0.192260 -0.533771
O9    O     O_R   0.285500 0.813970 0.307340 -0.538129
O10   O     O_R   0.714500 0.186030 0.692660 -0.537982
O11   O     O_R   0.714500 0.186030 0.807340 -0.537859
O12   O     O_R   0.285500 0.813970 0.192660 -0.537353
O13   O     O_R   0.785500 0.686030 0.192660 -0.537765
O14   O     O_R   0.214500 0.313970 0.807340 -0.537533
O15   O     O_R   0.214500 0.313970 0.692660 -0.537836
O16   O     O_R   0.785500 0.686030 0.307340 -0.537388
C1    C     C_R   0.453926 0.828812 0.326628 0.724019
C2    C     C_R   0.546121 0.171092 0.673416 0.723920
C3    C     C_R   0.546076 0.171041 0.826493 0.723839
C4    C     C_R   0.453844 0.828792 0.173353 0.725923
C5    C     C_R   0.953768 0.671021 0.173511 0.724442
C6    C     C_R   0.046313 0.328798 0.826654 0.725760
C7    C     C_R   0.046252 0.328968 0.673480 0.723538
C8    C     C_R   0.953715 0.671261 0.326687 0.726364
O17   O     O_3   0.448760 0.710460 0.250000 -0.369185
O18   O     O_3   0.551240 0.289540 0.750000 -0.369526
O19   O     O_3   0.948760 0.789540 0.250000 -0.369329
O20   O     O_3   0.051240 0.210460 0.750000 -0.368647
V1    V     V_3+5 0.173900 0.757330 0.250000 1.399677
V2    V     V_3+5 0.826100 0.242670 0.750000 1.401598
V3    V     V_3+5 0.673900 0.742670 0.250000 1.400706
V4    V     V_3+5 0.326100 0.257330 0.750000 1.403007
C9    C     C_3   0.105666 0.525498 0.543568 0.266573
C10   C     C_3   0.894933 0.479648 0.460515 0.230785
C11   C     C_3   0.896158 0.474700 0.043481 0.265984
C12   C     C_3   0.103311 0.521219 0.960001 0.229714
C13   C     C_3   0.603504 0.974738 0.956475 0.266342
C14   C     C_3   0.396847 0.021163 0.040023 0.230048
C15   C     C_3   0.390356 0.023462 0.459395 0.277946
C16   C     C_3   0.624768 0.979549 0.538120 0.235556
C17   C     C_3   0.914217 0.555091 0.523698 -0.101122
C18   C     C_3   0.085420 0.450385 0.480439 -0.127246
C19   C     C_3   0.087855 0.445697 0.023172 -0.100604
C20   C     C_3   0.912698 0.549960 0.980414 -0.127216
C21   C     C_3   0.411753 0.945619 0.976853 -0.100894
C22   C     C_3   0.587522 0.050014 0.019549 -0.127348
C23   C     C_3   0.581830 0.055399 0.476312 -0.102780
C24   C     C_3   0.435352 0.947508 0.521231 -0.123777
C25   C     C_1   0.960754 0.626833 0.372982 -0.222052
C26   C     C_1   0.039196 0.374629 0.628133 -0.219405
C27   C     C_1   0.039397 0.373420 0.872829 -0.222248
C28   C     C_1   0.960989 0.625416 0.128160 -0.219297
C29   C     C_1   0.460961 0.873414 0.127184 -0.222207
C30   C     C_1   0.538642 0.125448 0.871848 -0.219111
C31   C     C_1   0.539484 0.126121 0.627456 -0.211131
C32   C     C_1   0.461657 0.874141 0.372231 -0.218415
C33   C     C_3   0.171668 0.517524 0.481911 0.264281
C34   C     C_3   0.828898 0.487432 0.522489 0.262716
C35   C     C_3   0.828157 0.482571 0.981976 0.264511
C36   C     C_3   0.171261 0.513615 0.021797 0.263101
C37   C     C_3   0.671734 0.982676 0.017961 0.264734
C38   C     C_3   0.328653 0.013484 0.978246 0.263443
C39   C     C_3   0.339552 0.013099 0.522177 0.264220
C40   C     C_3   0.676194 0.989170 0.475097 0.263938
C41   C     C_3   0.982456 0.546706 0.461040 -0.057337
C42   C     C_3   0.019184 0.458347 0.542819 -0.066914
C43   C     C_3   0.017656 0.453886 0.960670 -0.056931
C44   C     C_3   0.980874 0.542070 0.042606 -0.066635
C45   C     C_3   0.482193 0.953888 0.039337 -0.057546
C46   C     C_3   0.519091 0.042059 0.957376 -0.066941
C47   C     C_3   0.528201 0.044900 0.539981 -0.084104
C48   C     C_3   0.485765 0.957562 0.457726 -0.077923
C49   C     C_1   0.967888 0.590497 0.412464 -0.034571
C50   C     C_1   0.032779 0.412474 0.589794 -0.029806
C51   C     C_1   0.032372 0.409939 0.912194 -0.034048
C52   C     C_1   0.967553 0.587690 0.089750 -0.031033
C53   C     C_1   0.467780 0.909939 0.087822 -0.033885
C54   C     C_1   0.532240 0.087712 0.910251 -0.031192
C55   C     C_1   0.536000 0.089253 0.588306 -0.039744
C56   C     C_1   0.469491 0.911753 0.410742 -0.037147
C57   C     C_R   0.830291 0.613465 0.551183 0.151965
C58   C     C_R   0.821745 0.618055 0.610427 -0.142946
C59   C     C_R   0.755527 0.672875 0.636482 -0.165184
C60   C     C_R   0.696034 0.723818 0.603795 -0.092687
C61   C     C_R   0.702738 0.719944 0.545029 -0.133392
C62   C     C_R   0.770171 0.665372 0.518859 -0.161462
H1    H     H_    0.866458 0.579231 0.636736 0.102434
H2    H     H_    0.750030 0.675771 0.682079 0.107201
H3    H     H_    0.644560 0.766189 0.624005 0.124072
H4    H     H_    0.656064 0.759296 0.519562 0.119474
H5    H     H_    0.773601 0.664560 0.473513 0.117735
C63   C     C_R   0.176153 0.394939 0.450789 0.116620
C64   C     C_R   0.204658 0.397629 0.392064 -0.120275
C65   C     C_R   0.274273 0.345326 0.362828 -0.155232
C66   C     C_R   0.320499 0.290351 0.392070 -0.095099
C67   C     C_R   0.297796 0.287728 0.450590 -0.129126
C68   C     C_R   0.225426 0.339595 0.479866 -0.169704
H6    H     H_    0.170891 0.440034 0.368796 0.110333
H7    H     H_    0.293714 0.347592 0.317541 0.105012
H8    H     H_    0.375576 0.250084 0.369436 0.120459
H9    H     H_    0.336215 0.245509 0.473407 0.119349
H10   H     H_    0.209079 0.335782 0.524916 0.126764
C69   C     C_R   0.174545 0.387814 0.050735 0.154053
C70   C     C_R   0.185735 0.383862 0.109979 -0.142299
C71   C     C_R   0.256803 0.329845 0.136216 -0.165592
C72   C     C_R   0.318912 0.279103 0.103711 -0.098401
C73   C     C_R   0.308155 0.282119 0.044942 -0.135261
C74   C     C_R   0.235448 0.335861 0.018593 -0.157680
H11   H     H_    0.140102 0.422695 0.136147 0.102765
H12   H     H_    0.265042 0.327558 0.181804 0.107380
H13   H     H_    0.375924 0.237637 0.124109 0.120816
H14   H     H_    0.356265 0.242815 0.019631 0.118487
H15   H     H_    0.228999 0.336090 0.973263 0.116879
C75   C     C_R   0.820374 0.605535 0.951308 0.116637
C76   C     C_R   0.791182 0.603466 0.892591 -0.119448
C77   C     C_R   0.720302 0.655988 0.863909 -0.152965
C78   C     C_R   0.673450 0.710568 0.893699 -0.101781
C79   C     C_R   0.696916 0.712571 0.952220 -0.134177
C80   C     C_R   0.770382 0.660480 0.980927 -0.166736
H16   H     H_    0.825273 0.561382 0.868898 0.109886
H17   H     H_    0.700343 0.654190 0.818623 0.105275
H18   H     H_    0.617422 0.751029 0.871501 0.121199
H19   H     H_    0.658509 0.754518 0.975495 0.118105
H20   H     H_    0.786953 0.663849 0.025987 0.126789
C81   C     C_R   0.324825 0.887667 0.949293 0.153534
C82   C     C_R   0.313108 0.883769 0.890052 -0.141734
C83   C     C_R   0.241717 0.829711 0.863809 -0.165103
C84   C     C_R   0.179890 0.778862 0.896304 -0.098086
C85   C     C_R   0.191298 0.781809 0.955067 -0.134801
C86   C     C_R   0.264345 0.835588 0.981419 -0.158677
H21   H     H_    0.358578 0.922674 0.863892 0.102425
H22   H     H_    0.233050 0.827468 0.818225 0.106836
H23   H     H_    0.122667 0.737357 0.875902 0.121089
H24   H     H_    0.143492 0.742416 0.980376 0.118510
H25   H     H_    0.271469 0.835731 0.026743 0.116838
C87   C     C_R   0.680218 0.105640 0.048647 0.116727
C88   C     C_R   0.709430 0.103598 0.107364 -0.120422
C89   C     C_R   0.780612 0.156163 0.136049 -0.152799
C90   C     C_R   0.827692 0.210767 0.106264 -0.101370
C91   C     C_R   0.804227 0.212746 0.047742 -0.134243
C92   C     C_R   0.730500 0.160604 0.019029 -0.166338
H26   H     H_    0.675121 0.061499 0.131055 0.109807
H27   H     H_    0.800573 0.154387 0.181334 0.105254
H28   H     H_    0.883863 0.251270 0.128472 0.121473
H29   H     H_    0.842815 0.254718 0.024473 0.118341
H30   H     H_    0.713924 0.163946 0.973968 0.126682
C93   C     C_R   0.658829 0.114302 0.447977 0.152807
C94   C     C_R   0.665637 0.117796 0.388709 -0.144125
C95   C     C_R   0.734491 0.171763 0.361722 -0.176497
C96   C     C_R   0.798457 0.222864 0.393597 -0.094970
C97   C     C_R   0.791020 0.220334 0.452461 -0.124697
C98   C     C_R   0.720189 0.166695 0.479522 -0.185296
H31   H     H_    0.615932 0.078786 0.363209 0.111939
H32   H     H_    0.739176 0.173784 0.316082 0.109701
H33   H     H_    0.854100 0.264244 0.372635 0.118579
H34   H     H_    0.840969 0.259800 0.477314 0.117782
H35   H     H_    0.718505 0.166282 0.524961 0.121951
C99   C     C_R   0.353997 0.890157 0.550738 0.137678
C100  C     C_R   0.341067 0.889529 0.610004 -0.125824
C101  C     C_R   0.268289 0.836945 0.638261 -0.157361
C102  C     C_R   0.205279 0.784708 0.607684 -0.097952
C103  C     C_R   0.215323 0.784993 0.548810 -0.132582
C104  C     C_R   0.289644 0.837248 0.520434 -0.170539
H36   H     H_    0.386835 0.929823 0.634471 0.097077
H37   H     H_    0.259425 0.836907 0.683885 0.104825
H38   H     H_    0.147439 0.744290 0.629620 0.119382
H39   H     H_    0.164329 0.744919 0.524943 0.118290
H40   H     H_    0.292116 0.836034 0.475040 0.127003
N1    N     N_2   0.222718 0.548300 0.589587 -0.511542
H41   H     H_    0.166709 0.539531 0.628995 0.240568
C105  C     C_3   0.302278 0.610694 0.583206 -0.507755
H42   H     H_    0.370548 0.625413 0.623352 0.185264
H43   H     H_    0.190885 0.645347 0.572479 0.187387
H44   H     H_    0.412247 0.610579 0.549865 0.252939
N2    N     N_2   0.781119 0.458020 0.413115 -0.515259
H45   H     H_    0.839475 0.469887 0.374634 0.254787
C106  C     C_3   0.713134 0.393771 0.415031 -0.545187
H46   H     H_    0.669518 0.378574 0.372084 0.195048
H47   H     H_    0.587524 0.390260 0.442714 0.217018
H48   H     H_    0.824276 0.361257 0.430345 0.199506
N3    N     N_2   0.781195 0.451555 0.089794 -0.513399
H49   H     H_    0.837552 0.460857 0.129068 0.241380
C107  C     C_3   0.704687 0.388697 0.083860 -0.512210
H50   H     H_    0.634846 0.374471 0.123876 0.187794
H51   H     H_    0.818036 0.354275 0.074361 0.187858
H52   H     H_    0.596904 0.387670 0.049889 0.252368
N4    N     N_2   0.215295 0.543350 0.912442 -0.515244
H53   H     H_    0.155795 0.531797 0.874030 0.254394
C108  C     C_3   0.283068 0.607603 0.914799 -0.542215
H54   H     H_    0.322078 0.623760 0.871739 0.194175
H55   H     H_    0.411508 0.610461 0.941385 0.218917
H56   H     H_    0.173661 0.639775 0.931814 0.198895
N5    N     N_2   0.718060 0.951622 0.910106 -0.513433
H57   H     H_    0.661467 0.960841 0.870861 0.241219
C109  C     C_3   0.794484 0.888837 0.916029 -0.512214
H58   H     H_    0.862623 0.874406 0.875819 0.187185
H59   H     H_    0.681372 0.854391 0.926132 0.188028
H60   H     H_    0.903771 0.888106 0.949587 0.252320
N6    N     N_2   0.285083 0.043263 0.087600 -0.515168
H61   H     H_    0.344493 0.031711 0.126004 0.254239
C110  C     C_3   0.217766 0.107499 0.085286 -0.542510
H62   H     H_    0.179126 0.123649 0.128368 0.193971
H63   H     H_    0.089150 0.110319 0.058785 0.218693
H64   H     H_    0.327275 0.139719 0.068209 0.199100
N7    N     N_2   0.262087 0.045890 0.415909 -0.495907
H65   H     H_    0.286965 0.026651 0.376647 0.243520
C111  C     C_3   0.221916 0.112798 0.414100 -0.543099
H66   H     H_    0.294269 0.134974 0.377561 0.182865
H67   H     H_    0.266252 0.137015 0.453438 0.198333
H68   H     H_    0.067747 0.120009 0.408353 0.219742
N8    N     N_2   0.751394 0.959483 0.583021 -0.495387
H69   H     H_    0.700134 0.969702 0.622736 0.246872
C112  C     C_3   0.830644 0.896968 0.578490 -0.510143
H70   H     H_    0.874580 0.880008 0.620866 0.188613
H71   H     H_    0.958472 0.898357 0.551574 0.232070
H72   H     H_    0.726600 0.863165 0.560689 0.185325
N9    N     N_2   0.644218 0.465702 0.542120 -0.474379
H73   H     H_    0.618841 0.419683 0.530819 0.253878
C113  C     C_3   0.600668 0.475388 0.601127 -0.489198
H74   H     H_    0.464531 0.451418 0.611570 0.207921
H75   H     H_    0.583139 0.525849 0.610088 0.229706
H76   H     H_    0.712475 0.455801 0.628887 0.171873
N10   N     N_2   0.364672 0.530983 0.463519 -0.475321
H77   H     H_    0.434811 0.492641 0.447273 0.297732
C114  C     C_3   0.397980 0.587927 0.431737 -0.512647
H78   H     H_    0.553088 0.596779 0.429369 0.205228
H79   H     H_    0.329262 0.628942 0.452443 0.192397
H80   H     H_    0.344774 0.582244 0.387912 0.193208
N11   N     N_2   0.355638 0.536200 0.040914 -0.478397
H81   H     H_    0.377775 0.582536 0.030050 0.253823
C115  C     C_3   0.402776 0.525945 0.099580 -0.489612
H82   H     H_    0.537983 0.550653 0.109728 0.207268
H83   H     H_    0.424108 0.475495 0.107746 0.233753
H84   H     H_    0.290946 0.544289 0.128033 0.172083
N12   N     N_2   0.634868 0.468755 0.964009 -0.475401
H85   H     H_    0.562920 0.507203 0.948643 0.298378
C116  C     C_3   0.602505 0.412503 0.931164 -0.513756
H86   H     H_    0.447517 0.403575 0.928379 0.204911
H87   H     H_    0.671158 0.371117 0.951282 0.192592
H88   H     H_    0.656314 0.419192 0.887522 0.193255
N13   N     N_2   0.144293 0.035939 0.959197 -0.477410
H89   H     H_    0.122229 0.082216 0.970189 0.253945
C117  C     C_3   0.097051 0.025838 0.900504 -0.489492
H90   H     H_    0.961854 0.050438 0.890454 0.207486
H91   H     H_    0.075714 0.975399 0.892170 0.233289
H92   H     H_    0.208775 0.044412 0.872079 0.172061
N14   N     N_2   0.864907 0.968978 0.035963 -0.474636
H93   H     H_    0.936277 0.007311 0.051984 0.297570
C118  C     C_3   0.897344 0.912236 0.068069 -0.512975
H94   H     H_    0.052303 0.903341 0.070529 0.204973
H95   H     H_    0.827973 0.871114 0.047581 0.192357
H96   H     H_    0.844359 0.918261 0.111875 0.192986
N15   N     N_2   0.859425 0.970603 0.451975 -0.453302
H97   H     H_    0.895426 0.925595 0.463867 0.261578
C119  C     C_3   0.887522 0.978985 0.391881 -0.510198
H98   H     H_    0.015072 0.952209 0.378135 0.194757
H99   H     H_    0.912495 0.028891 0.381972 0.219404
H100  H     H_    0.765068 0.961918 0.366923 0.177139
N16   N     N_2   0.158895 0.021993 0.550736 -0.466700
H101  H     H_    0.162152 0.006750 0.592020 0.258102
C120  C     C_3   0.069829 0.082719 0.545062 -0.453704
H102  H     H_    0.952764 0.087106 0.576271 0.190277
H103  H     H_    0.006408 0.086448 0.502687 0.243262
H104  H     H_    0.173116 0.121457 0.552430 0.166304

loop_
_geom_bond_atom_site_label_1
_geom_bond_atom_site_label_2
_ccdc_geom_bond_type
O17   V3    S    
C105  H42   S    
C119  H99   S    
O18   V4    S    
C82   C83   A    
C16   C47   S    
O12   V1    S    
O19   V1    S    
C110  H63   S    
N1    H41   S    
C45   C53   S    
C66   C67   A    
C10   C18   S    
C78   H18   S    
O1    C4    A    
C71   H12   S    
C25   C49   T    
C9    N1    S    
C84   C85   A    
C47   C55   S    
C57   C58   A    
C12   C43   S    
C95   C96   A    
O15   V4    S    
N2    C106  S    
N3    H49   S    
O16   V3    S    
C105  H43   S    
C16   N8    S    
O11   C3    A    
C118  H94   S    
C87   C92   A    
C116  H86   S    
C88   C89   A    
O8    V1    S    
C82   H21   S    
C11   C35   S    
C27   C51   T    
C17   C34   S    
C40   N15   S    
C2    C31   S    
C62   H5    S    
C107  H51   S    
C100  C101  A    
C92   H30   S    
C70   H11   S    
C34   N9    S    
C46   C54   S    
C72   C73   A    
C20   C35   S    
C117  H90   S    
C42   C50   S    
C21   C38   S    
O1    V3    S    
C114  H80   S    
C41   C49   S    
C77   C78   A    
C38   C46   S    
O3    C2    A    
O2    V4    S    
N13   H89   S    
C73   H14   S    
C108  H55   S    
C79   C80   A    
O5    C8    A    
C10   N2    S    
C93   C94   A    
C35   C43   S    
C83   H22   S    
C81   C86   A    
C34   C42   S    
N10   H77   S    
O11   V2    S    
C21   C81   S    
C106  H47   S    
C9    C42   S    
C111  H68   S    
C73   C74   A    
C99   C100  A    
C69   C74   A    
C11   C19   S    
N9    C113  S    
C76   H16   S    
C68   H10   S    
N5    H57   S    
O9    V1    S    
N16   H101  S    
C109  H60   S    
C19   C43   S    
C24   C39   S    
O15   C7    A    
C59   H2    S    
C14   C45   S    
C20   C75   S    
N6    H61   S    
O16   C8    A    
O7    V2    S    
C80   H20   S    
C13   C46   S    
N12   C116  S    
N1    C105  S    
C108  H54   S    
C84   H23   S    
C24   C48   S    
C18   C33   S    
C70   C71   A    
C63   C68   A    
C75   C76   A    
O5    V1    S    
C72   H13   S    
N14   C118  S    
O17   V1    S    
C105  H44   S    
C23   C93   S    
C118  H95   S    
C88   H26   S    
C22   C46   S    
C77   H17   S    
C22   C37   S    
C21   C45   S    
C111  H66   S    
O20   V4    S    
C18   C42   S    
C60   C61   A    
C11   C44   S    
C107  H52   S    
O14   V4    S    
C23   C40   S    
C120  H103  S    
C66   H8    S    
C4    C29   S    
C7    C26   S    
C17   C41   S    
C117  H91   S    
N9    H73   S    
C61   C62   A    
C15   C23   S    
O19   V3    S    
C14   C22   S    
C103  C104  A    
N16   C120  S    
C109  H58   S    
N13   C117  S    
C13   N5    S    
C74   H15   S    
C108  H56   S    
C29   C53   T    
C95   H32   S    
N8    H69   S    
N11   H81   S    
N15   H97   S    
C39   N16   S    
C113  H75   S    
C31   C55   T    
C90   H28   S    
O10   V2    S    
C59   C60   A    
C115  H82   S    
C112  H70   S    
C32   C56   T    
C97   C98   A    
C117  H92   S    
C17   C57   S    
C67   C68   A    
O12   C4    A    
N5    C109  S    
C114  H78   S    
O13   C5    A    
C36   N11   S    
C115  H83   S    
C64   C65   A    
C119  H100  S    
C97   H34   S    
C94   C95   A    
C10   C34   S    
C1    C32   S    
C23   C47   S    
C15   C48   S    
C19   C36   S    
O4    C1    A    
C99   C104  A    
C3    C30   S    
O9    C1    A    
O6    V2    S    
C86   H25   S    
C39   C47   S    
C106  H46   S    
C65   C66   A    
C96   H33   S    
C116  H87   S    
C10   C41   S    
C81   C82   A    
C110  H64   S    
C58   H1    S    
C12   C20   S    
C11   N3    S    
C60   H3    S    
C13   C21   S    
C119  H98   S    
C113  H74   S    
C90   C91   A    
C38   N13   S    
N15   C119  S    
C85   C86   A    
C33   N10   S    
C112  H72   S    
C37   C45   S    
C8    C25   S    
C16   C24   S    
N7    H65   S    
C98   H35   S    
C118  H96   S    
C9    C33   S    
N8    C112  S    
O2    C3    A    
C14   N6    S    
C100  H36   S    
O13   V3    S    
C35   N12   S    
C57   C62   A    
C33   C41   S    
C87   C88   A    
C28   C52   T    
C19   C69   S    
O8    C5    A    
C91   H29   S    
C120  H104  S    
C13   C37   S    
C61   H4    S    
N10   C114  S    
C106  H48   S    
C83   C84   A    
C37   N14   S    
O7    C6    A    
C15   C39   S    
C71   C72   A    
C16   C40   S    
C110  H62   S    
C89   H27   S    
C12   N4    S    
C9    C17   S    
C101  C102  A    
O14   C6    A    
C101  H37   S    
C93   C98   A    
C112  H71   S    
N4    H53   S    
C48   C56   S    
N2    H45   S    
C102  C103  A    
C78   C79   A    
C113  H76   S    
C44   C52   S    
C26   C50   T    
C107  H50   S    
C120  H102  S    
C75   C80   A    
C24   C99   S    
C65   H7    S    
O10   C2    A    
C91   C92   A    
O6    C7    A    
C15   N7    S    
O20   V2    S    
C63   C64   A    
C114  H79   S    
C30   C54   T    
C104  H40   S    
C115  H84   S    
C18   C63   S    
C79   H19   S    
C40   C48   S    
O3    V4    S    
N6    C110  S    
C85   H24   S    
N4    C108  S    
O4    V3    S    
C20   C44   S    
N12   H85   S    
C102  H38   S    
C22   C87   S    
C103  H39   S    
N3    C107  S    
C43   C51   S    
C36   C44   S    
N11   C115  S    
C58   C59   A    
C94   H31   S    
C116  H88   S    
C69   C70   A    
C111  H67   S    
C12   C36   S    
C96   C97   A    
C109  H59   S    
C67   H9    S    
N7    C111  S    
C64   H6    S    
C5    C28   S    
C89   C90   A    
C76   C77   A    
N14   H93   S    
C6    C27   S    
C14   C38   S    
O18   V2    S    
