data_mof_unit_14809.cif
_audit_creation_date              2012-12-10T16:39:29-0500
_audit_creation_method            fapswitch 2.2
_symmetry_space_group_name_H-M    P1
_symmetry_Int_Tables_number       1
_space_group_crystal_system       triclinic
_cell_length_a                    16.684832
_cell_length_b                    16.974872
_cell_length_c                    16.849058
_cell_angle_alpha                 66.660917
_cell_angle_beta                  65.982695
_cell_angle_gamma                 66.024066
_cell_volume                      3827.49722065

loop_
_atom_site_label
_atom_site_type_symbol
_atom_type_description
_atom_site_fract_x
_atom_site_fract_y
_atom_site_fract_z
_atom_type_partial_charge
C1    C     C_R   0.328125 0.943948 0.459596 0.030810
C2    C     C_R   0.671875 0.056049 0.540405 0.030804
C3    C     C_R   0.007234 0.436677 0.309800 0.009898
C4    C     C_R   0.992788 0.563315 0.690192 0.009889
C5    C     C_R   0.460129 0.324767 0.950062 0.009078
C6    C     C_R   0.539872 0.675237 0.049927 0.009074
C7    C     C_R   0.538771 0.056301 0.672535 0.009650
C8    C     C_R   0.461230 0.943695 0.327466 0.009649
C9    C     C_R   0.669944 0.541428 0.058890 0.037488
C10   C     C_R   0.330057 0.458576 0.941100 0.037492
C11   C     C_R   0.007303 0.687274 0.555147 0.014495
C12   C     C_R   0.992719 0.312718 0.444846 0.014486
C13   C     C_R   0.459853 0.973591 0.459118 0.013795
C14   C     C_R   0.540147 0.026402 0.540885 0.013794
C15   C     C_R   0.002159 0.449488 0.450476 0.016410
C16   C     C_R   0.997879 0.550499 0.549512 0.016410
C17   C     C_R   0.459803 0.458214 0.974583 0.015995
C18   C     C_R   0.540200 0.541794 0.025399 0.015996
C19   C     C_R   0.974575 0.177119 0.433470 0.954549
C20   C     C_R   0.025428 0.822880 0.566529 0.954550
C21   C     C_R   0.179606 0.437391 0.962981 0.960054
C22   C     C_R   0.820394 0.562609 0.037018 0.960064
C23   C     C_R   0.437548 0.963289 0.179450 0.949384
C24   C     C_R   0.562453 0.036710 0.820550 0.949385
C25   C     C_R   0.563095 0.820895 0.035043 0.951337
C26   C     C_R   0.436905 0.179106 0.964956 0.951339
C27   C     C_R   0.020319 0.568422 0.824183 0.964789
C28   C     C_R   0.979686 0.431577 0.175816 0.964783
C29   C     C_R   0.820502 0.037059 0.562424 0.948151
C30   C     C_R   0.179498 0.962940 0.437576 0.948147
C31   C     C_R   0.416226 0.954515 0.415116 -0.006131
C32   C     C_R   0.583774 0.045480 0.584885 -0.006132
C33   C     C_R   0.998043 0.400717 0.402311 0.013828
C34   C     C_R   0.001988 0.599272 0.597679 0.013830
C35   C     C_R   0.416355 0.413629 0.956083 -0.001689
C36   C     C_R   0.583647 0.586376 0.043903 -0.001689
C37   C     C_R   0.278957 0.941080 0.408658 -0.087749
C38   C     C_R   0.721042 0.058918 0.591342 -0.087751
C39   C     C_R   0.985972 0.393265 0.266893 -0.092423
C40   C     C_R   0.014042 0.606730 0.733101 -0.092418
C41   C     C_R   0.408765 0.276868 0.945242 -0.078140
C42   C     C_R   0.591235 0.723134 0.054753 -0.078138
C43   C     C_R   0.590665 0.058304 0.721744 -0.076058
C44   C     C_R   0.409335 0.941694 0.278256 -0.076063
C45   C     C_R   0.720412 0.592325 0.059014 -0.079665
C46   C     C_R   0.279588 0.407677 0.940982 -0.079660
C47   C     C_R   0.021985 0.731441 0.602619 -0.095644
C48   C     C_R   0.978028 0.268554 0.397376 -0.095651
C49   C     C_R   0.443003 0.069868 0.705041 0.246938
C50   C     C_R   0.556996 0.930128 0.294960 0.246937
C51   C     C_R   0.992091 0.728325 0.469300 0.237438
C52   C     C_R   0.007919 0.271669 0.530697 0.237451
C53   C     C_R   0.700683 0.447044 0.077086 0.263005
C54   C     C_R   0.299317 0.552960 0.922902 0.263001
C55   C     C_R   0.293453 0.935067 0.553523 0.257433
C56   C     C_R   0.706547 0.064929 0.446477 0.257453
C57   C     C_R   0.553721 0.288716 0.947518 0.244921
C58   C     C_R   0.446282 0.711291 0.052466 0.244928
C59   C     C_R   0.042718 0.510926 0.263762 0.238251
C60   C     C_R   0.957296 0.489072 0.736229 0.238288
C61   C     C_R   0.321544 0.935671 0.321153 -0.263100
C62   C     C_R   0.678456 0.064328 0.678847 -0.263100
C63   C     C_R   0.968479 0.311989 0.312290 -0.255949
C64   C     C_R   0.031535 0.688006 0.687705 -0.255936
C65   C     C_R   0.321424 0.320095 0.937719 -0.257924
C66   C     C_R   0.678575 0.679905 0.062279 -0.257923
C67   C     C_R   0.674482 0.027757 0.407348 0.008866
C68   C     C_R   0.325517 0.972236 0.592654 0.008873
C69   C     C_R   0.970130 0.430697 0.688625 -0.000158
C70   C     C_R   0.029885 0.569299 0.311367 -0.000118
C71   C     C_R   0.410314 0.676802 0.014461 -0.008676
C72   C     C_R   0.589691 0.323207 0.985518 -0.008667
C73   C     C_R   0.598707 0.962505 0.330039 -0.011579
C74   C     C_R   0.401292 0.037489 0.669963 -0.011576
C75   C     C_R   0.333728 0.596565 0.953522 0.012456
C76   C     C_R   0.666275 0.403442 0.046459 0.012463
C77   C     C_R   0.985183 0.325226 0.586483 -0.003168
C78   C     C_R   0.014831 0.674770 0.413509 -0.003165
C79   C     C_R   0.725939 0.006211 0.323699 0.213257
C80   C     C_R   0.274059 0.993783 0.676303 0.213254
C81   C     C_R   0.962144 0.342246 0.732539 0.210092
C82   C     C_R   0.037840 0.657761 0.267457 0.210133
C83   C     C_R   0.330019 0.727303 0.986589 0.197566
C84   C     C_R   0.669987 0.272707 0.013388 0.197535
C85   C     C_R   0.687664 0.974934 0.284233 0.191790
C86   C     C_R   0.312334 0.025062 0.715768 0.191747
C87   C     C_R   0.289369 0.686461 0.959769 0.197595
C88   C     C_R   0.710635 0.313548 0.040210 0.197528
C89   C     C_R   0.966025 0.290695 0.681541 0.198959
C90   C     C_R   0.033960 0.709312 0.318453 0.198962
C91   C     C_R   0.548801 0.983546 0.413859 -0.018200
C92   C     C_R   0.451200 0.016446 0.586144 -0.018198
C93   C     C_R   0.990538 0.413320 0.544133 -0.008318
C94   C     C_R   0.009495 0.586669 0.455856 -0.008327
C95   C     C_R   0.415813 0.547898 0.978672 -0.011196
C96   C     C_R   0.584191 0.452110 0.021308 -0.011199
C97   C     C_R   0.588228 0.011701 0.454165 -0.013622
C98   C     C_R   0.411773 0.988292 0.545838 -0.013621
C99   C     C_R   0.455575 0.589049 0.005524 -0.014838
C100  C     C_R   0.544429 0.410960 0.994456 -0.014838
C101  C     C_R   0.987099 0.464231 0.594098 -0.018003
C102  C     C_R   0.012935 0.535758 0.405891 -0.018013
H1    H     H_    0.282918 0.934811 0.283122 0.204196
H2    H     H_    0.717081 0.065190 0.716877 0.204197
H3    H     H_    0.951782 0.279861 0.279153 0.217941
H4    H     H_    0.048226 0.720136 0.720845 0.217941
H5    H     H_    0.282519 0.282547 0.936971 0.205001
H6    H     H_    0.717479 0.717452 0.063031 0.205002
O1    O     O_R   0.982940 0.138950 0.510160 -0.617012
O2    O     O_R   0.017060 0.861050 0.489840 -0.617019
O3    O     O_R   0.138950 0.510160 0.982940 -0.584253
O4    O     O_R   0.861050 0.489840 0.017060 -0.584245
O5    O     O_R   0.510160 0.982940 0.138950 -0.621707
O6    O     O_R   0.489840 0.017060 0.861050 -0.621706
O7    O     O_R   0.489840 0.861050 0.017060 -0.618870
O8    O     O_R   0.510160 0.138950 0.982940 -0.618869
O9    O     O_R   0.017060 0.489840 0.861050 -0.621197
O10   O     O_R   0.982940 0.510160 0.138950 -0.621204
O11   O     O_R   0.861050 0.017060 0.489840 -0.588871
O12   O     O_R   0.138950 0.982940 0.510160 -0.588875
O13   O     O_R   0.867700 0.025880 0.612340 -0.637671
O14   O     O_R   0.132300 0.974120 0.387660 -0.637673
O15   O     O_R   0.025880 0.612340 0.867700 -0.610688
O16   O     O_R   0.974120 0.387660 0.132300 -0.610689
O17   O     O_R   0.612340 0.867700 0.025880 -0.611311
O18   O     O_R   0.387660 0.132300 0.974120 -0.611310
O19   O     O_R   0.387660 0.974120 0.132300 -0.609604
O20   O     O_R   0.612340 0.025880 0.867700 -0.609603
O21   O     O_R   0.132300 0.387660 0.974120 -0.636925
O22   O     O_R   0.867700 0.612340 0.025880 -0.636918
O23   O     O_R   0.974120 0.132300 0.387660 -0.608358
O24   O     O_R   0.025880 0.867700 0.612340 -0.608363
Zn1   Zn    Zn3+2 0.004880 0.004880 0.583590 1.013367
Zn2   Zn    Zn3+2 0.995120 0.995120 0.416410 1.013364
Zn3   Zn    Zn3+2 0.004880 0.583590 0.004880 1.006911
Zn4   Zn    Zn3+2 0.995120 0.416410 0.995120 1.006916
Zn5   Zn    Zn3+2 0.583590 0.004880 0.004880 1.009447
Zn6   Zn    Zn3+2 0.416410 0.995120 0.995120 1.009450
C103  C     C_3   0.259490 0.040802 0.808584 -0.858497
H7    H     H_    0.208087 0.003560 0.848650 0.218889
H8    H     H_    0.306371 0.017534 0.850077 0.256481
H9    H     H_    0.221412 0.112951 0.801156 0.277366
C104  C     C_3   0.740499 0.959211 0.191409 -0.858533
H10   H     H_    0.791883 0.996469 0.151342 0.218902
H11   H     H_    0.778593 0.887068 0.198822 0.277339
H12   H     H_    0.693609 0.982473 0.149926 0.256489
C105  C     C_3   0.058440 0.796900 0.269977 -0.830234
H13   H     H_    0.127650 0.784645 0.220304 0.257867
H14   H     H_    0.008348 0.846552 0.233539 0.225460
H15   H     H_    0.061028 0.827131 0.316059 0.258605
C106  C     C_3   0.941501 0.203128 0.730013 -0.830275
H16   H     H_    0.872307 0.215399 0.779695 0.257911
H17   H     H_    0.938870 0.172929 0.683935 0.258608
H18   H     H_    0.991589 0.153448 0.766437 0.225435
C107  C     C_3   0.803849 0.262101 0.056330 -0.839957
H19   H     H_    0.843797 0.209874 0.019845 0.218235
H20   H     H_    0.847047 0.307412 0.030792 0.266466
H21   H     H_    0.795044 0.227900 0.129377 0.281328
C108  C     C_3   0.196154 0.737906 0.943653 -0.839885
H22   H     H_    0.156215 0.790147 0.980120 0.218198
H23   H     H_    0.204956 0.772092 0.870604 0.281326
H24   H     H_    0.152952 0.692595 0.969210 0.266449
C109  C     C_3   0.174481 0.993910 0.719197 -0.801659
H25   H     H_    0.168376 0.933972 0.778045 0.232839
H26   H     H_    0.132586 0.055329 0.741641 0.234913
H27   H     H_    0.143131 0.996214 0.671416 0.281078
C110  C     C_3   0.825515 0.006092 0.280803 -0.801777
H28   H     H_    0.831608 0.066057 0.221999 0.232897
H29   H     H_    0.856871 0.003740 0.328595 0.281088
H30   H     H_    0.867407 0.944714 0.258303 0.234882
C111  C     C_3   0.705481 0.172198 0.027458 -0.871147
H31   H     H_    0.720206 0.139717 0.093319 0.240609
H32   H     H_    0.654094 0.143723 0.031954 0.262600
H33   H     H_    0.768712 0.154679 0.972236 0.250600
C112  C     C_3   0.294524 0.827813 0.972521 -0.871170
H34   H     H_    0.279790 0.860302 0.906663 0.240604
H35   H     H_    0.231297 0.845329 0.027747 0.250596
H36   H     H_    0.345913 0.856286 0.968023 0.262597
C113  C     C_3   0.043546 0.701025 0.168411 -0.853461
H37   H     H_    0.992711 0.768437 0.158871 0.224386
H38   H     H_    0.113618 0.707213 0.130334 0.263346
H39   H     H_    0.026928 0.663313 0.139454 0.261926
C114  C     C_3   0.956358 0.299011 0.831608 -0.853463
H40   H     H_    0.007024 0.231501 0.841241 0.224372
H41   H     H_    0.973151 0.336639 0.860509 0.261886
H42   H     H_    0.886200 0.293043 0.869662 0.263481
Br1   Br    Br    0.372077 0.169943 0.757304 -0.496458
Br2   Br    Br    0.627925 0.830054 0.242695 -0.496452
Br3   Br    Br    0.879928 0.824786 0.463278 -0.518819
Br4   Br    Br    0.120068 0.175195 0.536741 -0.518829
Br5   Br    Br    0.751398 0.382818 0.178232 -0.454392
Br6   Br    Br    0.248593 0.617183 0.821762 -0.454409
Br7   Br    Br    0.242339 0.836132 0.629401 -0.462145
Br8   Br    Br    0.757671 0.163855 0.370596 -0.462144
Br9   Br    Br    0.639333 0.233198 0.851849 -0.504233
Br10  Br    Br    0.360665 0.766803 0.148137 -0.504215
Br11  Br    Br    0.154377 0.495168 0.165156 -0.528381
Br12  Br    Br    0.845635 0.504839 0.834833 -0.528419

loop_
_geom_bond_atom_site_label_1
_geom_bond_atom_site_label_2
_ccdc_geom_bond_type
C68   C80   A    
C104  H12   S    
C83   C87   A    
C111  H31   S    
C18   C36   A    
C24   O6    A    
C83   C112  S    
C107  H20   S    
C18   C96   A    
C6    C58   A    
C11   C47   A    
O22   Zn3   S    
C79   C85   A    
C12   C48   A    
C84   C111  S    
C50   Br2   S    
C85   C104  S    
C55   C68   A    
C75   C95   A    
C112  H35   S    
C78   C90   A    
C9    C45   A    
C111  H32   S    
C77   C89   A    
C67   C97   A    
C54   Br6   S    
C57   Br9   S    
C61   H1    S    
C69   C81   A    
O4    Zn4   S    
C21   C46   S    
C25   O7    A    
C103  H9    S    
C95   C99   A    
C58   C71   A    
C3    C33   A    
C104  H10   S    
C96   C100  A    
C1    C31   A    
C68   C98   A    
C2    C32   A    
O12   Zn1   S    
C26   O18   A    
C106  H18   S    
C74   C92   A    
C13   C98   A    
C25   O17   A    
O14   Zn2   S    
C80   C86   A    
C105  H13   S    
C21   O3    A    
C109  H25   S    
C87   C108  S    
O24   Zn1   S    
C29   O13   A    
C82   C113  S    
C10   C46   A    
C9    C36   A    
C106  H16   S    
C108  H23   S    
C10   C35   A    
C17   C95   A    
O19   Zn6   S    
C7    C43   A    
C112  H36   S    
C76   C88   A    
C62   H2    S    
C51   Br3   S    
C60   Br12  S    
C113  H39   S    
C81   C89   A    
O23   Zn2   S    
C27   O9    A    
C3    C39   A    
C15   C102  A    
C13   C91   A    
C107  H21   S    
C106  H17   S    
C20   O24   A    
C10   C54   A    
C109  H27   S    
C12   C52   A    
C14   C92   A    
C110  H30   S    
C71   C83   A    
C19   O1    A    
C19   O23   A    
C111  H33   S    
C4    C34   A    
C107  H19   S    
O11   Zn2   S    
O16   Zn4   S    
O1    Zn1   S    
C88   C107  S    
C30   O14   A    
C105  H15   S    
C67   C79   A    
C7    C49   A    
C46   C65   A    
C110  H29   S    
C50   C73   A    
C93   C101  A    
C110  H28   S    
C27   O15   A    
C19   C48   S    
C48   C63   A    
C41   C65   A    
C28   C39   S    
O17   Zn5   S    
C38   C62   A    
C71   C99   A    
C74   C86   A    
C23   C44   S    
C113  H37   S    
C30   C37   S    
O15   Zn3   S    
C29   C38   S    
C8    C44   A    
C114  H40   S    
C80   C109  S    
C4    C40   A    
C90   C105  S    
C23   O5    A    
O21   Zn4   S    
C29   O11   A    
C26   C41   S    
C2    C38   A    
C108  H22   S    
C49   Br1   S    
O7    Zn6   S    
C27   C40   S    
C21   O21   A    
C4    C60   A    
C70   C102  A    
C108  H24   S    
C52   Br4   S    
C91   C97   A    
C53   Br5   S    
C73   C91   A    
C72   C84   A    
C86   C103  S    
O20   Zn5   S    
C20   O2    A    
C75   C87   A    
C55   Br7   S    
C22   O4    A    
C16   C34   A    
C56   Br8   S    
C114  H42   S    
C53   C76   A    
C63   H3    S    
C18   C99   A    
C81   C114  S    
C52   C77   A    
C8    C50   A    
C47   C64   A    
C14   C97   A    
C23   O19   A    
O8    Zn5   S    
C72   C100  A    
C104  H11   S    
O2    Zn2   S    
C5    C41   A    
O18   Zn6   S    
C7    C32   A    
C105  H14   S    
C8    C31   A    
C13   C31   A    
C11   C34   A    
C42   C66   A    
C84   C88   A    
C66   H6    S    
C15   C33   A    
C40   C64   A    
C25   C42   S    
C15   C93   A    
C37   C61   A    
C103  H7    S    
C28   O16   A    
C58   Br10  S    
C64   H4    S    
C78   C94   A    
C69   C101  A    
C44   C61   A    
C56   C67   A    
C39   C63   A    
C16   C94   A    
C82   C90   A    
C5    C57   A    
C79   C110  S    
C114  H41   S    
C1    C55   A    
C51   C78   A    
C73   C85   A    
C112  H34   S    
C28   O10   A    
C76   C96   A    
C103  H8    S    
O3    Zn3   S    
C30   O12   A    
C60   C69   A    
C59   Br11  S    
C5    C35   A    
C77   C93   A    
C6    C36   A    
O5    Zn5   S    
O6    Zn6   S    
C57   C72   A    
C70   C82   A    
C17   C100  A    
C26   O8    A    
C20   C47   S    
C11   C51   A    
C92   C98   A    
C59   C70   A    
C54   C75   A    
C16   C101  A    
C89   C106  S    
C22   C45   S    
C9    C53   A    
C94   C102  A    
C6    C42   A    
C45   C66   A    
C24   O20   A    
C24   C43   S    
C49   C74   A    
C109  H26   S    
C2    C56   A    
C17   C35   A    
O13   Zn1   S    
C12   C33   A    
O9    Zn4   S    
C14   C32   A    
C65   H5    S    
C22   O22   A    
O10   Zn3   S    
C43   C62   A    
C1    C37   A    
C113  H38   S    
C3    C59   A    
