data_mof_unit_36379.cif
_audit_creation_date              2012-12-10T17:19:53-0500
_audit_creation_method            fapswitch 2.2
_symmetry_space_group_name_H-M    P1
_symmetry_Int_Tables_number       1
_space_group_crystal_system       triclinic
_cell_length_a                    9.64547
_cell_length_b                    10.840156
_cell_length_c                    15.742572
_cell_angle_alpha                 86.427238
_cell_angle_beta                  72.292941
_cell_angle_gamma                 90.809203
_cell_volume                      1564.0415624

loop_
_atom_site_label
_atom_site_type_symbol
_atom_type_description
_atom_site_fract_x
_atom_site_fract_y
_atom_site_fract_z
_atom_type_partial_charge
C1    C     C_R   0.001459 0.263722 0.494797 0.789396
C2    C     C_R   0.687934 0.464599 0.911939 0.103536
C3    C     C_R   0.773134 0.535801 0.951271 0.137177
C4    C     C_R   0.539642 0.434769 0.960995 0.044484
C5    C     C_R   0.487543 0.459187 0.052418 0.078704
C6    C     C_R   0.588948 0.501878 0.093497 -0.230238
C7    C     C_R   0.725884 0.547882 0.042793 -0.248627
C8    C     C_R   0.439939 0.393127 0.918991 -0.312143
C9    C     C_R   0.292784 0.369577 0.965741 0.144339
C10   C     C_R   0.238377 0.394008 0.057019 0.152520
C11   C     C_R   0.336044 0.443844 0.099246 -0.003536
C12   C     C_R   0.916903 0.498385 0.671440 0.817583
C13   C     C_R   0.088756 0.374225 0.107144 0.167372
C14   C     C_R   0.037243 0.411947 0.194519 -0.276765
C15   C     C_R   0.278503 0.483420 0.186019 -0.254298
C16   C     C_R   0.259336 0.141619 0.388258 -0.151270
C17   C     C_R   0.394484 0.087931 0.361864 -0.136945
C18   C     C_R   0.408563 0.967742 0.393025 -0.157516
C19   C     C_R   0.285492 0.897786 0.443836 -0.197370
C20   C     C_R   0.143915 0.945643 0.462810 0.102563
C21   C     C_R   0.135379 0.073908 0.444868 0.093538
C22   C     C_R   0.003858 0.131373 0.485562 -0.113532
C23   C     C_R   0.002367 0.738066 0.500665 0.775692
C24   C     C_R   0.876218 0.060668 0.526774 -0.202334
C25   C     C_R   0.878896 0.933210 0.530922 -0.221877
C26   C     C_R   0.010704 0.873573 0.499772 -0.107948
C27   C     C_R   0.710227 0.636473 0.356259 0.247906
C28   C     C_R   0.674114 0.650670 0.276730 -0.214380
C29   C     C_R   0.529760 0.667267 0.283355 -0.291601
C30   C     C_R   0.423745 0.635414 0.363658 -0.149974
C31   C     C_R   0.458586 0.568060 0.433273 0.155102
C32   C     C_R   0.608288 0.569220 0.432173 0.122734
C33   C     C_R   0.541260 0.430782 0.561679 0.257309
C34   C     C_R   0.083446 0.493969 0.328779 0.773829
C35   C     C_R   0.393616 0.432027 0.561890 -0.111555
C36   C     C_R   0.872016 0.504163 0.768520 -0.054422
C37   C     C_R   0.131736 0.467192 0.233889 -0.069964
C38   C     C_R   0.905356 0.592149 0.898647 -0.186189
C39   C     C_R   0.949453 0.582869 0.806659 -0.247221
C40   C     C_R   0.754168 0.430716 0.823944 0.114991
Cu1   Cu    Cu3+1 0.140660 0.499990 0.500010 0.924413
Cu2   Cu    Cu3+1 0.859340 0.500010 0.499990 0.959620
H1    H     H_    0.796120 0.591020 0.075386 0.142974
H2    H     H_    0.774182 0.104066 0.557285 0.163107
H3    H     H_    0.252781 0.236077 0.363612 0.156334
H4    H     H_    0.489198 0.141245 0.320208 0.135710
H5    H     H_    0.515192 0.928412 0.378029 0.148537
H6    H     H_    0.307268 0.810782 0.472260 0.173599
H7    H     H_    0.777490 0.880942 0.561638 0.158636
H8    H     H_    0.754786 0.687646 0.215807 0.151500
H9    H     H_    0.345571 0.530052 0.218006 0.163009
H10   H     H_    0.500581 0.710526 0.227581 0.167493
H11   H     H_    0.316774 0.665236 0.368793 0.200002
H12   H     H_    0.311933 0.375804 0.612525 0.142224
H13   H     H_    0.923580 0.394633 0.232339 0.161281
H14   H     H_    0.970073 0.648595 0.927871 0.143718
H15   H     H_    0.045350 0.635314 0.765441 0.160437
H16   H     H_    0.564600 0.502320 0.164612 0.166302
H17   H     H_    0.473564 0.382607 0.847969 0.168180
N1    N     N_R   0.648320 0.501210 0.499140 -0.188976
N2    N     N_R   0.352470 0.501290 0.499110 -0.203496
O1    O     O_R   0.118810 0.319640 0.500010 -0.580063
O2    O     O_R   0.881240 0.319660 0.500000 -0.560285
O3    O     O_R   0.055570 0.499980 0.629840 -0.586326
O4    O     O_R   0.818000 0.500010 0.629830 -0.542225
O5    O     O_R   0.118760 0.680340 0.500000 -0.612211
O6    O     O_R   0.881190 0.680360 0.499990 -0.579256
O7    O     O_R   0.182000 0.499990 0.370170 -0.605442
O8    O     O_R   0.944430 0.500020 0.370160 -0.579991
N3    N     N_3   0.989019 0.311552 0.071731 -0.548445
H18   H     H_    0.947757 0.231934 0.113324 0.211652
H19   H     H_    0.902062 0.368892 0.074336 0.229113
N4    N     N_3   0.578220 0.352507 0.626805 -0.545422
H20   H     H_    0.511804 0.374919 0.689470 0.178296
H21   H     H_    0.551258 0.261333 0.618256 0.185644
C41   C     C_3   0.791294 0.752224 0.365679 -0.765420
H22   H     H_    0.784834 0.830480 0.317776 0.187031
H23   H     H_    0.738681 0.789251 0.431397 0.228955
H24   H     H_    0.909255 0.735936 0.350001 0.232361
N5    N     N_3   0.198476 0.327673 0.917678 -0.544923
H25   H     H_    0.237860 0.245066 0.890009 0.215866
H26   H     H_    0.203603 0.393415 0.865179 0.217804
C42   C     C_3   0.734867 0.300207 0.799545 -0.899676
H27   H     H_    0.661079 0.241857 0.856133 0.241323
H28   H     H_    0.694016 0.299572 0.741715 0.254262
H29   H     H_    0.841871 0.255457 0.781507 0.233702

loop_
_geom_bond_atom_site_label_1
_geom_bond_atom_site_label_2
_ccdc_geom_bond_type
C16   C21   A    
N5    H25   S    
C34   C37   S    
N4    H20   S    
C31   N2    A    
C19   C20   A    
C41   H24   S    
Cu1   N2    S    
C4    C8    A    
C18   H5    S    
C5    C6    A    
C23   O5    A    
C28   C29   A    
C41   H23   S    
C5    C11   A    
C3    C7    A    
C8    H17   S    
C30   C31   A    
C12   O3    A    
C13   N3    S    
C39   H15   S    
C18   C19   A    
Cu1   Cu2   S    
C23   C26   S    
C23   O6    A    
C6    H16   S    
C15   C37   A    
C11   C15   A    
C31   C32   A    
C3    C38   A    
C8    C9    A    
Cu2   O4    S    
N3    H18   S    
C15   H9    S    
C12   C36   S    
C9    C10   A    
C14   H13   S    
C1    C22   S    
C21   C22   A    
C1    O1    A    
C35   H12   S    
N4    H21   S    
C40   C42   S    
C28   H8    S    
Cu1   O1    S    
C1    O2    A    
Cu1   O7    S    
C41   H22   S    
C30   H11   S    
C36   C40   A    
C17   H4    S    
N5    H26   S    
C34   O7    A    
C19   H6    S    
C16   C17   A    
C25   C26   A    
Cu2   O8    S    
C9    N5    S    
C2    C4    A    
C29   C30   A    
C42   H27   S    
C17   C18   A    
C35   N2    A    
C24   C25   A    
C34   O8    A    
C6    C7    A    
C33   N4    S    
C42   H28   S    
C33   N1    A    
C7    H1    S    
Cu2   O6    S    
C24   H2    S    
C22   C24   A    
C32   N1    A    
Cu2   N1    S    
C27   C41   S    
C27   C32   A    
C36   C39   A    
C4    C5    A    
C10   C13   A    
C16   H3    S    
Cu1   O5    S    
C12   O4    A    
C2    C3    A    
C14   C37   A    
C38   C39   A    
C20   C26   A    
C33   C35   A    
C25   H7    S    
C10   C11   A    
C2    C40   A    
C42   H29   S    
C38   H14   S    
C20   C21   A    
C27   C28   A    
N3    H19   S    
Cu1   O3    S    
C13   C14   A    
Cu2   O2    S    
C29   H10   S    
