data_mof_unit_64348.cif
_audit_creation_date              2013-03-05T16:05:49-0500
_audit_creation_method            fapswitch 2.2
_symmetry_space_group_name_H-M    P1
_symmetry_Int_Tables_number       1
_space_group_crystal_system       triclinic
_cell_length_a                    38.721503
_cell_length_b                    45.121982
_cell_length_c                    29.665182
_cell_angle_alpha                 89.995232
_cell_angle_beta                  130.626759
_cell_angle_gamma                 90.006933
_cell_volume                      39337.8344518

loop_
_atom_site_label
_atom_site_type_symbol
_atom_site_description
_atom_site_fract_x
_atom_site_fract_y
_atom_site_fract_z
_atom_type_partial_charge
O1    O     O_R   0.798060 0.763370 0.096070 -0.616967
O2    O     O_R   0.201940 0.763370 0.903930 -0.617183
O3    O     O_R   0.298060 0.263370 0.096070 -0.616964
O4    O     O_R   0.701940 0.263370 0.903930 -0.617151
O5    O     O_R   0.763350 0.798040 0.026640 -0.614509
O6    O     O_R   0.236650 0.798040 0.973360 -0.614666
O7    O     O_R   0.263350 0.298040 0.026640 -0.614413
O8    O     O_R   0.736650 0.298040 0.973360 -0.614785
C1    C     C_R   0.790624 0.790601 0.081200 0.914886
C2    C     C_R   0.209373 0.790601 0.918800 0.914821
C3    C     C_R   0.290624 0.290601 0.081200 0.915097
C4    C     C_R   0.709373 0.290601 0.918800 0.914581
O9    O     O_R   0.716420 0.732650 0.034650 -0.624076
O10   O     O_R   0.283580 0.732650 0.965350 -0.624077
O11   O     O_R   0.216420 0.232650 0.034650 -0.624251
O12   O     O_R   0.783580 0.232650 0.965350 -0.623787
O13   O     O_R   0.681710 0.767330 0.965220 -0.621988
O14   O     O_R   0.318290 0.767330 0.034780 -0.622037
O15   O     O_R   0.181710 0.267330 0.965220 -0.622180
O16   O     O_R   0.818290 0.267330 0.034780 -0.621748
C5    C     C_R   0.682570 0.749978 0.999964 0.861728
C6    C     C_R   0.317433 0.749979 0.000040 0.861875
C7    C     C_R   0.182565 0.249978 0.999964 0.861948
C8    C     C_R   0.817424 0.249979 0.000040 0.861498
Zn1   Zn    Zn3+2 0.773170 0.726840 0.046290 0.964463
Zn2   Zn    Zn3+2 0.226830 0.726840 0.953710 0.963758
Zn3   Zn    Zn3+2 0.273170 0.226840 0.046290 0.964302
Zn4   Zn    Zn3+2 0.726830 0.226840 0.953710 0.963995
Zn5   Zn    Zn3+2 0.726820 0.773140 0.953570 0.985878
Zn6   Zn    Zn3+2 0.273180 0.773140 0.046430 0.985257
Zn7   Zn    Zn3+2 0.226820 0.273140 0.953570 0.985781
Zn8   Zn    Zn3+2 0.773180 0.273140 0.046430 0.985326
O17   O     O_R   0.736630 0.701940 0.973210 -0.618476
O18   O     O_R   0.263370 0.701940 0.026790 -0.618588
O19   O     O_R   0.236630 0.201940 0.973210 -0.618428
O20   O     O_R   0.763370 0.201940 0.026790 -0.618677
O21   O     O_R   0.701920 0.736610 0.903790 -0.608444
O22   O     O_R   0.298080 0.736610 0.096210 -0.607908
O23   O     O_R   0.201920 0.236610 0.903790 -0.608477
O24   O     O_R   0.798080 0.236610 0.096210 -0.607911
O25   O     O_R   0.818270 0.732650 0.034640 -0.621871
O26   O     O_R   0.181730 0.732650 0.965360 -0.622804
O27   O     O_R   0.318270 0.232650 0.034640 -0.622057
O28   O     O_R   0.681730 0.232650 0.965360 -0.622617
O29   O     O_R   0.783570 0.767330 0.965210 -0.615052
O30   O     O_R   0.216430 0.767330 0.034790 -0.615830
O31   O     O_R   0.283570 0.267330 0.965210 -0.615225
O32   O     O_R   0.716430 0.267330 0.034790 -0.615697
C9    C     C_R   0.709371 0.709401 0.918682 0.915376
C10   C     C_R   0.290633 0.709401 0.081318 0.916324
C11   C     C_R   0.209371 0.209401 0.918682 0.915532
C12   C     C_R   0.790633 0.209401 0.081318 0.916105
C13   C     C_R   0.817247 0.749838 0.999551 0.889022
C14   C     C_R   0.182580 0.750006 0.000118 0.889722
C15   C     C_R   0.317246 0.249835 0.999542 0.889268
C16   C     C_R   0.682589 0.250002 0.000126 0.889573
C17   C     C_R   0.615860 0.774531 0.978206 -0.189261
C18   C     C_R   0.384270 0.774483 0.022036 -0.189229
C19   C     C_R   0.115319 0.274295 0.977165 -0.189214
C20   C     C_R   0.883407 0.274836 0.020385 -0.189450
H1    H     H_    0.621027 0.793781 0.961380 0.156312
H2    H     H_    0.379193 0.793697 0.039031 0.156405
H3    H     H_    0.120057 0.293363 0.959506 0.156802
H4    H     H_    0.877648 0.294320 0.036049 0.155607
C21   C     C_R   0.580195 0.774620 0.978695 -0.157359
C22   C     C_R   0.419944 0.774573 0.021565 -0.157333
C23   C     C_R   0.079643 0.274385 0.977634 -0.157495
C24   C     C_R   0.919068 0.274925 0.019887 -0.157130
H5    H     H_    0.558210 0.793850 0.961762 0.150165
H6    H     H_    0.442022 0.793764 0.038677 0.150187
H7    H     H_    0.057244 0.293427 0.959861 0.150264
H8    H     H_    0.940476 0.294400 0.035666 0.150161
C25   C     C_R   0.572688 0.749919 0.000041 0.085364
C26   C     C_R   0.427341 0.749919 0.000007 0.085395
C27   C     C_R   0.072664 0.249920 0.000042 0.085376
C28   C     C_R   0.927306 0.249922 0.000005 0.085193
C29   C     C_R   0.601517 0.725235 0.021378 -0.157787
C30   C     C_R   0.398394 0.725283 0.978443 -0.157865
C31   C     C_R   0.102025 0.225472 0.022443 -0.158012
C32   C     C_R   0.899193 0.224935 0.980117 -0.157583
H9    H     H_    0.596448 0.705992 0.038319 0.149941
H10   H     H_    0.403374 0.706078 0.961333 0.149902
H11   H     H_    0.097380 0.206418 0.040220 0.150013
H12   H     H_    0.904836 0.205448 0.964341 0.149939
C33   C     C_R   0.637667 0.725361 0.021853 -0.190832
C34   C     C_R   0.362240 0.725410 0.977958 -0.190847
C35   C     C_R   0.138162 0.225599 0.022890 -0.190814
C36   C     C_R   0.863025 0.225059 0.979605 -0.190945
H13   H     H_    0.659639 0.706126 0.038661 0.155526
H14   H     H_    0.340177 0.706212 0.960972 0.155590
H15   H     H_    0.160540 0.206545 0.040534 0.155956
H16   H     H_    0.841610 0.205589 0.963948 0.154870
C37   C     C_R   0.644891 0.749955 0.000018 -0.033324
C38   C     C_R   0.355121 0.749957 0.000000 -0.033455
C39   C     C_R   0.144875 0.249956 0.000017 -0.033874
C40   C     C_R   0.855095 0.249957 0.999998 -0.032455
N1    N     N_R   0.517166 0.723998 0.000024 -0.174393
N2    N     N_R   0.482741 0.723998 0.999793 -0.174382
N3    N     N_R   0.017860 0.224011 0.001476 -0.174467
N4    N     N_R   0.983437 0.224008 0.001250 -0.174467
C41   C     C_R   0.465110 0.749910 0.000011 0.285261
C42   C     C_R   0.534923 0.749910 0.000046 0.285263
C43   C     C_R   0.965079 0.249913 0.000011 0.285422
C44   C     C_R   0.034895 0.249912 0.000047 0.285403
N5    N     N_R   0.482975 0.775820 0.000248 -0.175195
N6    N     N_R   0.517186 0.775820 0.000051 -0.175185
N7    N     N_R   0.982220 0.275815 0.998792 -0.175272
N8    N     N_R   0.016432 0.275811 0.998600 -0.175253
C45   C     C_3   0.901385 0.843066 0.265539 -0.388239
C46   C     C_3   0.098097 0.843339 0.735021 -0.388247
C47   C     C_3   0.401320 0.343031 0.265609 -0.388213
C48   C     C_3   0.597371 0.343787 0.735927 -0.388288
C49   C     C_3   0.862192 0.882490 0.186393 -0.386530
C50   C     C_3   0.138850 0.882757 0.814149 -0.386446
C51   C     C_3   0.362327 0.382454 0.186465 -0.386504
C52   C     C_3   0.640476 0.383152 0.814938 -0.386456
C53   C     C_3   0.886482 0.906774 0.234975 -0.391812
C54   C     C_3   0.114559 0.907041 0.765566 -0.391958
C55   C     C_3   0.386618 0.406739 0.235046 -0.391790
C56   C     C_3   0.616185 0.407436 0.766355 -0.392135
H17   H     H_    0.959000 0.872741 0.326592 0.173178
H18   H     H_    0.040870 0.873405 0.674762 0.173231
H19   H     H_    0.458984 0.372656 0.326765 0.173187
H20   H     H_    0.540770 0.374463 0.676890 0.173337
H21   H     H_    0.923037 0.836789 0.254669 0.172876
H22   H     H_    0.076833 0.837453 0.746686 0.172952
H23   H     H_    0.423021 0.336704 0.254842 0.172918
H24   H     H_    0.576734 0.338511 0.748815 0.172982
H25   H     H_    0.828973 0.891100 0.145768 0.171991
H26   H     H_    0.172445 0.891177 0.854385 0.171969
H27   H     H_    0.329157 0.391089 0.145790 0.172015
H28   H     H_    0.674618 0.391259 0.854543 0.171858
H29   H     H_    0.883151 0.876913 0.174124 0.173827
H30   H     H_    0.118306 0.877570 0.827213 0.173890
H31   H     H_    0.383339 0.376827 0.174296 0.173858
H32   H     H_    0.620601 0.378574 0.829224 0.173858
H33   H     H_    0.919109 0.912865 0.246041 0.173380
H34   H     H_    0.082348 0.913523 0.755295 0.173257
H35   H     H_    0.419296 0.412779 0.246214 0.173408
H36   H     H_    0.584642 0.414526 0.757306 0.173115
H37   H     H_    0.864930 0.927050 0.217689 0.168879
H38   H     H_    0.136487 0.927127 0.782464 0.168942
H39   H     H_    0.365115 0.427038 0.217711 0.168880
H40   H     H_    0.638660 0.427209 0.782622 0.168954
C57   C     C_1   0.937290 0.937178 0.374549 -0.176738
C58   C     C_1   0.062701 0.937178 0.625450 -0.176723
C59   C     C_1   0.437290 0.437178 0.374549 -0.176743
C60   C     C_1   0.562701 0.437178 0.625450 -0.176721
C61   C     C_3   0.854573 0.854436 0.209078 0.345526
C62   C     C_3   0.145411 0.854435 0.790922 0.345475
C63   C     C_3   0.354573 0.354436 0.209078 0.345483
C64   C     C_3   0.645412 0.354435 0.790922 0.345516
C65   C     C_3   0.925679 0.867351 0.314124 -0.390989
C66   C     C_3   0.073804 0.867624 0.686436 -0.390883
C67   C     C_3   0.425613 0.367316 0.314194 -0.390995
C68   C     C_3   0.573077 0.368073 0.687341 -0.390701
C69   C     C_3   0.895685 0.895534 0.291300 0.347612
C70   C     C_3   0.104299 0.895533 0.708700 0.347589
C71   C     C_3   0.395685 0.395534 0.291300 0.347603
C72   C     C_3   0.604300 0.395533 0.708700 0.347591
C73   C     C_3   0.849664 0.887255 0.274344 -0.387879
C74   C     C_3   0.149763 0.886713 0.724554 -0.387829
C75   C     C_3   0.349595 0.387325 0.274203 -0.387902
C76   C     C_3   0.648865 0.385869 0.722861 -0.387811
C77   C     C_3   0.825371 0.862971 0.225759 -0.391751
C78   C     C_3   0.174056 0.862429 0.773139 -0.391785
C79   C     C_3   0.325302 0.363041 0.225618 -0.391745
C80   C     C_3   0.673158 0.361586 0.771446 -0.391781
C81   C     C_1   0.918545 0.918398 0.337027 -0.118255
C82   C     C_1   0.081441 0.918398 0.662973 -0.118242
C83   C     C_1   0.418544 0.418398 0.337027 -0.118254
C84   C     C_1   0.581441 0.418398 0.662973 -0.118247
C85   C     C_1   0.831699 0.831579 0.163335 -0.114995
C86   C     C_1   0.168286 0.831579 0.836664 -0.114960
C87   C     C_1   0.331700 0.331579 0.163336 -0.114946
C88   C     C_1   0.668287 0.331579 0.836665 -0.115014
C89   C     C_1   0.812909 0.812825 0.125763 -0.178684
C90   C     C_1   0.187081 0.812824 0.874237 -0.178500
C91   C     C_1   0.312910 0.312825 0.125763 -0.178647
C92   C     C_1   0.687081 0.312824 0.874237 -0.178545
H41   H     H_    0.819432 0.843137 0.242242 0.171553
H42   H     H_    0.179231 0.842395 0.756250 0.171541
H43   H     H_    0.319265 0.343234 0.242048 0.171535
H44   H     H_    0.677159 0.341255 0.753964 0.171593
H45   H     H_    0.791499 0.871237 0.185833 0.170890
H46   H     H_    0.208276 0.870490 0.812646 0.170903
H47   H     H_    0.291475 0.371333 0.185640 0.170916
H48   H     H_    0.707881 0.369312 0.810278 0.170829
H49   H     H_    0.855397 0.879086 0.314168 0.171418
H50   H     H_    0.143266 0.878344 0.684325 0.171324
H51   H     H_    0.355230 0.379182 0.313973 0.171415
H52   H     H_    0.641194 0.377204 0.682039 0.171216
H53   H     H_    0.896795 0.822879 0.282729 0.171590
H54   H     H_    0.101925 0.822966 0.717455 0.171580
H55   H     H_    0.396632 0.322869 0.282750 0.171586
H56   H     H_    0.600027 0.323141 0.717814 0.171601
H57   H     H_    0.932761 0.858830 0.354654 0.168994
H58   H     H_    0.065959 0.858917 0.645529 0.168984
H59   H     H_    0.432597 0.358820 0.354675 0.168995
H60   H     H_    0.564062 0.359092 0.645889 0.168977
H61   H     H_    0.827460 0.907185 0.257758 0.170987
H62   H     H_    0.172314 0.906438 0.740722 0.171121
H63   H     H_    0.327436 0.407281 0.257565 0.170963
H64   H     H_    0.671918 0.405260 0.738353 0.171238
C93   C     C_R   0.843957 0.755395 0.943573 -0.242231
C94   C     C_R   0.151845 0.759292 0.050572 -0.247171
C95   C     C_R   0.344103 0.255842 0.943799 -0.242131
C96   C     C_R   0.652043 0.258852 0.050913 -0.247185
H65   H     H_    0.809634 0.761356 0.904590 0.191578
H66   H     H_    0.185577 0.765864 0.090076 0.194852
H67   H     H_    0.309895 0.262134 0.905002 0.191904
H68   H     H_    0.685885 0.265104 0.090614 0.194473
C97   C     C_R   0.877658 0.752948 0.939129 0.332892
C98   C     C_R   0.115749 0.760011 0.050703 0.330627
C99   C     C_R   0.377782 0.253444 0.939310 0.332880
C100  C     C_R   0.615974 0.259545 0.051098 0.330781
C101  C     C_R   0.922536 0.745152 0.990246 -0.042134
C102  C     C_R   0.071894 0.751570 0.998572 -0.039438
C103  C     C_R   0.422515 0.245212 0.990162 -0.042103
C104  C     C_R   0.571980 0.251532 0.998704 -0.039545
C105  C     C_R   0.931486 0.738028 0.043148 -0.183885
C106  C     C_R   0.064865 0.743056 0.947740 -0.197329
C107  C     C_R   0.431320 0.237644 0.042801 -0.184008
C108  C     C_R   0.564802 0.243437 0.947587 -0.197129
H69   H     H_    0.965388 0.731946 0.082885 0.175082
H70   H     H_    0.031361 0.736464 0.907745 0.169233
H71   H     H_    0.465111 0.231224 0.082332 0.175117
H72   H     H_    0.531189 0.237174 0.907386 0.169212
C109  C     C_R   0.897178 0.739395 0.046151 -0.185651
C110  C     C_R   0.101086 0.742161 0.948482 -0.179007
C111  C     C_R   0.397024 0.238994 0.045830 -0.185600
C112  C     C_R   0.600999 0.242542 0.948282 -0.179090
H73   H     H_    0.905026 0.733899 0.087513 0.161847
H74   H     H_    0.094938 0.735371 0.908762 0.162613
H75   H     H_    0.404773 0.233154 0.086999 0.162271
H76   H     H_    0.594745 0.236081 0.908344 0.162214
C113  C     C_R   0.853504 0.748567 0.996737 -0.093389
C114  C     C_R   0.144688 0.750334 0.999801 -0.094023
C115  C     C_R   0.353505 0.248573 0.996713 -0.093896
C116  C     C_R   0.644724 0.250313 0.999845 -0.093518
N9    N     N_R   0.000064 0.731209 0.033503 -0.164009
N10   N     N_R   0.994518 0.764930 0.954234 -0.139229
N11   N     N_R   0.499811 0.230907 0.032968 -0.163963
N12   N     N_R   0.494840 0.265271 0.954828 -0.139236
N13   N     N_R   0.035615 0.733063 0.036159 -0.125631
N14   N     N_R   0.959164 0.763266 0.951997 -0.096614
N15   N     N_R   0.535393 0.232731 0.035685 -0.125542
N16   N     N_R   0.459459 0.263633 0.952536 -0.096570
C117  C     C_R   0.033340 0.749984 0.996570 0.347148
C118  C     C_R   0.961027 0.746134 0.991136 0.332870
C119  C     C_R   0.533406 0.249973 0.996661 0.347063
C120  C     C_R   0.461029 0.246184 0.991101 0.332717
C121  C     C_3   0.632899 0.619106 0.810492 -0.394408
C122  C     C_3   0.367027 0.619080 0.189448 -0.394435
C123  C     C_3   0.132730 0.119158 0.810388 -0.394404
C124  C     C_3   0.868160 0.119439 0.190165 -0.394611
C125  C     C_3   0.600840 0.658595 0.732082 -0.437764
C126  C     C_3   0.399233 0.658577 0.267872 -0.437777
C127  C     C_3   0.100939 0.158630 0.732013 -0.437730
C128  C     C_3   0.898557 0.158810 0.268351 -0.437518
C129  C     C_3   0.575701 0.634125 0.683499 0.181839
C130  C     C_3   0.424375 0.634105 0.316452 0.182040
C131  C     C_3   0.075796 0.134162 0.683426 0.182020
C132  C     C_3   0.923713 0.134351 0.316956 0.182125
H77   H     H_    0.574449 0.590334 0.747556 0.178897
H78   H     H_    0.425441 0.590272 0.252309 0.178943
H79   H     H_    0.074227 0.090447 0.747327 0.178960
H80   H     H_    0.926936 0.091058 0.253884 0.179049
H81   H     H_    0.610315 0.626380 0.819318 0.176939
H82   H     H_    0.389585 0.626323 0.180558 0.176956
H83   H     H_    0.110090 0.126495 0.819084 0.176995
H84   H     H_    0.891076 0.127110 0.182132 0.176950
H85   H     H_    0.609079 0.677989 0.717391 0.217972
H86   H     H_    0.391059 0.677986 0.282606 0.217819
H87   H     H_    0.109301 0.177987 0.717394 0.217952
H88   H     H_    0.889564 0.177969 0.282586 0.217898
H89   H     H_    0.578129 0.666876 0.740056 0.155222
H90   H     H_    0.421912 0.666831 0.259825 0.155263
H91   H     H_    0.078181 0.166975 0.739862 0.155271
H92   H     H_    0.921562 0.167487 0.261155 0.155371
H93   H     H_    0.542826 0.629594 0.673043 0.104270
H94   H     H_    0.457210 0.629542 0.326822 0.104351
H95   H     H_    0.042860 0.129695 0.672845 0.104403
H96   H     H_    0.956965 0.130225 0.328210 0.104537
C133  C     C_1   0.562796 0.562870 0.625713 -0.133431
C134  C     C_1   0.437215 0.562870 0.374287 -0.133550
C135  C     C_1   0.062795 0.062870 0.625713 -0.133483
C136  C     C_1   0.937213 0.062869 0.374286 -0.133587
C137  C     C_3   0.645121 0.645902 0.790475 0.281393
C138  C     C_3   0.354898 0.645900 0.209522 0.282350
C139  C     C_3   0.145121 0.145902 0.790476 0.281452
C140  C     C_3   0.854892 0.145902 0.209527 0.282277
C141  C     C_3   0.608633 0.594801 0.761932 -0.470293
C142  C     C_3   0.391290 0.594773 0.238007 -0.470330
C143  C     C_3   0.108465 0.094852 0.761829 -0.470261
C144  C     C_3   0.892422 0.095131 0.238723 -0.470099
C145  C     C_3   0.604017 0.604816 0.708196 0.214385
C146  C     C_3   0.396005 0.604815 0.291803 0.214923
C147  C     C_3   0.104017 0.104816 0.708196 0.214420
C148  C     C_3   0.895992 0.104815 0.291803 0.214869
C149  C     C_3   0.652740 0.610191 0.731192 -0.355929
C150  C     C_3   0.347322 0.610233 0.268912 -0.356445
C151  C     C_3   0.152807 0.110105 0.731366 -0.356056
C152  C     C_3   0.846860 0.109645 0.267725 -0.356587
C153  C     C_3   0.676380 0.635131 0.778317 -0.374677
C154  C     C_3   0.323682 0.635170 0.221782 -0.376001
C155  C     C_3   0.176453 0.135043 0.778493 -0.374791
C156  C     C_3   0.823192 0.134582 0.220594 -0.375913
C157  C     C_1   0.581404 0.581743 0.662952 -0.060646
C158  C     C_1   0.418615 0.581743 0.337048 -0.060835
C159  C     C_1   0.081403 0.081743 0.662952 -0.060700
C160  C     C_1   0.918609 0.081742 0.337046 -0.060901
C161  C     C_1   0.668160 0.668594 0.836423 -0.082765
C162  C     C_1   0.331856 0.668592 0.163574 -0.083221
C163  C     C_1   0.168161 0.168593 0.836424 -0.082812
C164  C     C_1   0.831855 0.168594 0.163578 -0.083204
C165  C     C_1   0.687057 0.687242 0.874126 -0.172202
C166  C     C_1   0.312954 0.687241 0.125872 -0.172845
C167  C     C_1   0.187057 0.187242 0.874127 -0.172265
C168  C     C_1   0.812954 0.187242 0.125874 -0.172777
H97   H     H_    0.709111 0.626744 0.820068 0.171567
H98   H     H_    0.290916 0.626794 0.180065 0.170920
H99   H     H_    0.209118 0.126627 0.820299 0.171494
H100  H     H_    0.790874 0.126023 0.178504 0.170873
H101  H     H_    0.684558 0.653914 0.762324 0.201975
H102  H     H_    0.315571 0.653971 0.237814 0.201045
H103  H     H_    0.184755 0.153788 0.762578 0.201827
H104  H     H_    0.814249 0.153123 0.236106 0.201057
H105  H     H_    0.673091 0.589473 0.751524 0.164750
H106  H     H_    0.326930 0.589526 0.248615 0.164435
H107  H     H_    0.173084 0.089363 0.751743 0.164698
H108  H     H_    0.826975 0.088782 0.247106 0.164326
H109  H     H_    0.664318 0.609759 0.852596 0.182587
H110  H     H_    0.335569 0.609745 0.147369 0.182462
H111  H     H_    0.164076 0.109787 0.852542 0.182586
H112  H     H_    0.837196 0.109946 0.147762 0.182436
H113  H     H_    0.628383 0.573788 0.780776 0.190277
H114  H     H_    0.371494 0.573773 0.219189 0.190208
H115  H     H_    0.128145 0.073815 0.780722 0.190279
H116  H     H_    0.873123 0.073973 0.219581 0.190201
H117  H     H_    0.652145 0.615815 0.694259 0.223975
H118  H     H_    0.347989 0.615881 0.305895 0.223479
H119  H     H_    0.152329 0.115688 0.694516 0.223848
H120  H     H_    0.846725 0.115005 0.304132 0.223418
O33   O     O_R   0.059430 0.969340 0.561280 -0.618250
O34   O     O_R   0.940570 0.969340 0.438720 -0.618332
O35   O     O_R   0.559430 0.469340 0.561280 -0.618248
O36   O     O_R   0.440570 0.469340 0.438720 -0.618353
O37   O     O_R   0.001940 0.969340 0.561310 -0.618186
O38   O     O_R   0.998060 0.969340 0.438690 -0.618119
O39   O     O_R   0.501940 0.469340 0.561310 -0.618192
O40   O     O_R   0.498060 0.469340 0.438690 -0.618112
C169  C     C_R   0.040509 0.959451 0.580982 0.901023
C170  C     C_R   0.959488 0.959451 0.419018 0.901002
C171  C     C_R   0.540509 0.459451 0.580982 0.901020
C172  C     C_R   0.459488 0.459451 0.419018 0.900995
Zn9   Zn    Zn3+2 0.538320 0.500060 0.499790 0.983075
Zn10  Zn    Zn3+2 0.461680 0.500060 0.500210 0.982419
Zn11  Zn    Zn3+2 0.038320 0.000060 0.499790 0.982736
Zn12  Zn    Zn3+2 0.961680 0.000060 0.500210 0.982771
O41   O     O_R   0.497920 0.530770 0.438300 -0.613364
O42   O     O_R   0.502080 0.530770 0.561700 -0.613590
O43   O     O_R   0.997920 0.030770 0.438300 -0.613698
O44   O     O_R   0.002080 0.030770 0.561700 -0.613464
O45   O     O_R   0.440430 0.530760 0.438330 -0.611834
O46   O     O_R   0.559570 0.530760 0.561670 -0.611533
O47   O     O_R   0.940430 0.030760 0.438330 -0.611481
O48   O     O_R   0.059570 0.030760 0.561670 -0.611676
C173  C     C_R   0.459313 0.540578 0.418557 0.917661
C174  C     C_R   0.540689 0.540578 0.581443 0.917662
C175  C     C_R   0.959313 0.040577 0.418557 0.917629
C176  C     C_R   0.040689 0.040578 0.581443 0.917628
N17   N     N_R   0.865084 0.756896 0.882042 0.209198
O49   O     O_R   0.876403 0.736995 0.861950 -0.368137
O50   O     O_R   0.835537 0.777111 0.845878 -0.366952
N18   N     N_R   0.123988 0.770015 0.103081 0.209138
O51   O     O_R   0.093583 0.785559 0.098644 -0.368373
O52   O     O_R   0.163976 0.766656 0.155214 -0.370977
N19   N     N_R   0.365312 0.257910 0.882395 0.209182
O53   O     O_R   0.376204 0.238168 0.861544 -0.368066
O54   O     O_R   0.336235 0.278504 0.847034 -0.367086
N20   N     N_R   0.624394 0.269088 0.103825 0.209160
O55   O     O_R   0.594285 0.284691 0.099948 -0.368273
O56   O     O_R   0.664306 0.265237 0.155831 -0.370748
N21   N     N_R   0.565168 0.644119 0.628574 0.221753
O57   O     O_R   0.596653 0.654874 0.629169 -0.376368
O58   O     O_R   0.523277 0.643717 0.578793 -0.323796
N22   N     N_R   0.435008 0.644119 0.371429 0.221785
O59   O     O_R   0.403590 0.654905 0.370928 -0.377444
O60   O     O_R   0.476924 0.643693 0.421156 -0.323576
N23   N     N_R   0.065416 0.144117 0.628577 0.221558
O61   O     O_R   0.097005 0.154796 0.629313 -0.377200
O62   O     O_R   0.023561 0.143756 0.578722 -0.323116
N24   N     N_R   0.933273 0.144090 0.371386 0.221508
O63   O     O_R   0.901140 0.154381 0.369893 -0.378163
O64   O     O_R   0.974925 0.143939 0.421649 -0.322603

loop_
_geom_bond_atom_site_label_1
_geom_bond_atom_site_label_2
_geom_bond_distance
_ccdc_geom_bond_type
C162  C166  1.195278 T    
C133  C174  1.416083 S    
C141  C145  1.551173 S    
C35   H15   1.083223 S    
C55   H39   1.113211 S    
C56   H40   1.113198 S    
C150  H106  1.113447 S    
C128  C132  1.554620 S    
C31   C35   1.390731 A    
C75   H63   1.113208 S    
C60   C171  1.418595 S    
C153  H97   1.113275 S    
O42   C174  1.278108 A    
N9    N13   1.329267 A    
C66   C70   1.549392 S    
C127  C131  1.554617 S    
C8    C40   1.459465 S    
O38   C170  1.278762 A    
C137  C153  1.549202 S    
C105  H69   1.083043 S    
Zn6   O22   1.993256 S    
C139  C163  1.455546 S    
C146  C150  1.551610 S    
C76   H64   1.113198 S    
Zn12  O44   1.994634 S    
C69   C81   1.457521 S    
C59   C83   1.196568 T    
O4    C4    1.273507 A    
C9    C165  1.416348 S    
C94   C98   1.400622 A    
C28   C43   1.462525 S    
C49   H29   1.113208 S    
C50   H26   1.113200 S    
C93   H65   1.083773 S    
C108  H72   1.083836 S    
C101  C105  1.406414 A    
C76   C80   1.548277 S    
C14   C114  1.461195 S    
C34   H14   1.083251 S    
Zn1   O25   2.005912 S    
C143  C147  1.551171 S    
Zn3   O19   1.992404 S    
Zn4   O28   2.005978 S    
O13   C5    1.277351 A    
Zn5   O29   2.007169 S    
C2    C90   1.418531 S    
O15   C7    1.277443 A    
C131  N23   1.469379 S    
C49   C61   1.549384 S    
C57   C170  1.418601 S    
C148  C160  1.456526 S    
O11   Zn3   2.007166 S    
C149  C153  1.546665 S    
C45   C61   1.549397 S    
C96   H68   1.083502 S    
C72   C84   1.457518 S    
O9    C5    1.277449 A    
C94   C114  1.401832 A    
O10   Zn2   2.007104 S    
O43   C175  1.278104 A    
H17   C65   1.113191 S    
C26   C41   1.462397 S    
C73   H49   1.113203 S    
O6    Zn6   1.992209 S    
O38   Zn11  1.989264 S    
C103  C120  1.473991 S    
O19   C11   1.273007 A    
C125  C129  1.554621 S    
C54   C70   1.549386 S    
C3    C91   1.418548 S    
C50   C62   1.549388 S    
C109  C113  1.397061 A    
C135  C176  1.416083 S    
C74   H50   1.113209 S    
C1    C89   1.418547 S    
C129  C145  1.562688 S    
C78   H46   1.113200 S    
N10   C117  1.354019 A    
C16   C116  1.460828 S    
C46   C62   1.549395 S    
Zn12  O47   1.999629 S    
C151  C155  1.546663 S    
C128  H92   1.113511 S    
C17   H1    1.083326 S    
C150  C154  1.546656 S    
C19   H3    1.083214 S    
C164  C168  1.195277 T    
C20   H4    1.083329 S    
C32   C36   1.390665 A    
C146  C158  1.456525 S    
C22   H6    1.083109 S    
C5    C37   1.460020 S    
C63   C79   1.549374 S    
C7    C39   1.460428 S    
C110  H74   1.083355 S    
O3    C3    1.273511 A    
N24   O63   1.301543 A    
O47   C175  1.278027 A    
C55   C71   1.549381 S    
C51   C63   1.549379 S    
C56   C72   1.549389 S    
C25   C29   1.402624 A    
C43   N7    1.356044 A    
C54   H34   1.113206 S    
C47   C67   1.548337 S    
O34   C170  1.278674 A    
C73   C77   1.548282 S    
N16   C120  1.357065 A    
N21   O58   1.301079 A    
O23   C11   1.272690 A    
C128  C140  1.549445 S    
C125  H89   1.113517 S    
C126  H86   1.112858 S    
C127  H91   1.113510 S    
C78   H42   1.113209 S    
N1    N2    1.328565 A    
C125  C137  1.549440 S    
C99   N19   1.436219 S    
C27   C31   1.402624 A    
C133  C157  1.195080 T    
C74   H62   1.113194 S    
C66   H58   1.113200 S    
C107  H71   1.083036 S    
C62   C78   1.549368 S    
C112  H76   1.083380 S    
C149  H105  1.113462 S    
C10   C166  1.416354 S    
C98   N18   1.440251 S    
C19   C23   1.390559 A    
C33   C37   1.401825 A    
N22   O59   1.301408 A    
C35   C39   1.401906 A    
N7    N8    1.328469 A    
C45   H53   1.113200 S    
C56   H36   1.113206 S    
C127  C139  1.549435 S    
C156  H100  1.113276 S    
O45   C173  1.278033 A    
O29   C13   1.277258 A    
C153  H101  1.113177 S    
C95   H67   1.083752 S    
C6    C38   1.460102 S    
C141  H113  1.113426 S    
C126  C130  1.554628 S    
O37   Zn12  1.989319 S    
N18   O52   1.301478 A    
Zn9   O41   1.994684 S    
C138  C154  1.549199 S    
C67   C71   1.549400 S    
C68   C72   1.549392 S    
Zn4   O20   1.992394 S    
C61   C77   1.549375 S    
C130  N22   1.469427 S    
C98   C102  1.414343 A    
C13   C113  1.460803 S    
C70   C82   1.457518 S    
C52   C64   1.549384 S    
C52   C56   1.548283 S    
H80   C144  1.113285 S    
C149  H117  1.110131 S    
O5    C1    1.273447 A    
C94   H66   1.083474 S    
C52   H28   1.113200 S    
O8    C4    1.273449 A    
O34   Zn12  1.993830 S    
H77   C141  1.113284 S    
C50   H30   1.113200 S    
H79   C143  1.113279 S    
C154  H98   1.113266 S    
O25   C13   1.277770 A    
C46   H22   1.113195 S    
C49   C53   1.548278 S    
O27   C15   1.277900 A    
C4    C92   1.418528 S    
C51   C55   1.548276 S    
C129  H93   1.115446 S    
C23   C27   1.402576 A    
Zn5   O21   1.993267 S    
C67   H59   1.113205 S    
O36   C172  1.278674 A    
O16   Zn8   2.006359 S    
C147  C159  1.456543 S    
N23   O62   1.301081 A    
N13   C117  1.354680 A    
C137  C161  1.455544 S    
O14   C6    1.277384 A    
Zn6   O30   2.007101 S    
C100  C104  1.414348 A    
C140  C164  1.455542 S    
C161  C165  1.195278 T    
N15   C119  1.354693 A    
C24   C28   1.402721 A    
O10   C6    1.277470 A    
O3    Zn3   1.993264 S    
C122  C138  1.550556 S    
C47   H23   1.113209 S    
C51   H31   1.113209 S    
C121  H109  1.113218 S    
Zn10  O42   1.994634 S    
C109  H73   1.083421 S    
C128  H88   1.112884 S    
C152  C156  1.546642 S    
C106  C110  1.388869 A    
C130  C146  1.562664 S    
C145  C149  1.551615 S    
C75   H51   1.113205 S    
C150  H118  1.110116 S    
C76   H52   1.113206 S    
C47   H55   1.113198 S    
C134  C173  1.416060 S    
C18   H2    1.083328 S    
C59   C172  1.418597 S    
C36   C40   1.401619 A    
N20   O55   1.301433 A    
C80   H48   1.113202 S    
N12   C119  1.353999 A    
O13   Zn5   2.006297 S    
C152  H108  1.113455 S    
C124  C140  1.550551 S    
C32   H12   1.083159 S    
O15   Zn7   2.006297 S    
O48   C176  1.278031 A    
N19   O53   1.301542 A    
H19   C67   1.113191 S    
C134  C158  1.195069 T    
Zn2   O26   2.005978 S    
N10   N14   1.328814 A    
C71   C83   1.457521 S    
O33   C169  1.278665 A    
C72   C76   1.549390 S    
O41   C173  1.278100 A    
N17   O50   1.301401 A    
O39   C171  1.278759 A    
O17   C9    1.273009 A    
C132  N24   1.469365 S    
C48   H56   1.113208 S    
C74   C78   1.548278 S    
C121  H81   1.113206 S    
C126  H90   1.113472 S    
C48   C64   1.549394 S    
C127  H87   1.112863 S    
C131  C147  1.562686 S    
C45   C65   1.548338 S    
C86   C90   1.196543 T    
N1    C42   1.356097 A    
O39   Zn10  1.989319 S    
C95   C115  1.399945 A    
C126  C138  1.549426 S    
N3    C44   1.356094 A    
C93   C97   1.398779 A    
Zn7   O31   2.007169 S    
O33   Zn11  1.993760 S    
Zn8   O32   2.007101 S    
C155  H103  1.113174 S    
O35   Zn9   1.993760 S    
C64   C80   1.549372 S    
C107  C111  1.389522 A    
C57   C81   1.196568 T    
C63   C87   1.457508 S    
C132  C148  1.562687 S    
O1    C1    1.273511 A    
C123  C143  1.548609 S    
C124  C144  1.548621 S    
C33   H13   1.083258 S    
C100  N20   1.440202 S    
C54   H38   1.113196 S    
Zn9   O46   1.999705 S    
N4    C43   1.356113 A    
N12   N16   1.328787 A    
C47   C63   1.549397 S    
Zn11  O48   1.999705 S    
C151  H119  1.110128 S    
C121  C141  1.548603 S    
C156  H104  1.113192 S    
C58   C169  1.418595 S    
C99   C103  1.418158 A    
O21   C9    1.272689 A    
O28   C16   1.277989 A    
C29   H9    1.083195 S    
O30   C14   1.277196 A    
C95   C99   1.398689 A    
C93   C113  1.399844 A    
C145  C157  1.456542 S    
N24   O64   1.301081 A    
C20   C40   1.401529 A    
C25   C42   1.462399 S    
N11   N15   1.329274 A    
C139  C155  1.549199 S    
C27   C44   1.462561 S    
C132  H96   1.115448 S    
C102  C117  1.456625 S    
C69   C73   1.549392 S    
C44   N8    1.356063 A    
N21   O57   1.301524 A    
C123  H111  1.113216 S    
C121  C137  1.550542 S    
N9    C118  1.357988 A    
C17   C21   1.390478 A    
O6    C2    1.273449 A    
C52   H32   1.113199 S    
N2    C41   1.356107 A    
N5    N6    1.328471 A    
C163  C167  1.195273 T    
H78   C142  1.113286 S    
C55   H35   1.113200 S    
O36   Zn10  1.993830 S    
C154  H102  1.113155 S    
C151  H107  1.113460 S    
O26   C14   1.278089 A    
C31   H11   1.083079 S    
C130  H94   1.115442 S    
C21   H5    1.083116 S    
O40   C172  1.278762 A    
C23   H7    1.083093 S    
C65   C69   1.549396 S    
C48   H24   1.113198 S    
C103  C107  1.406382 A    
Zn3   O27   2.005912 S    
C144  C148  1.551180 S    
C20   C24   1.390510 A    
N22   O60   1.301085 A    
C26   C30   1.402614 A    
C104  C119  1.456581 S    
C105  C109  1.389479 A    
C138  C162  1.455543 S    
Zn10  O45   1.999629 S    
Zn11  O43   1.994684 S    
O35   C171  1.278665 A    
C147  C151  1.551617 S    
C148  C152  1.551610 S    
C22   C26   1.402606 A    
O12   Zn4   2.007104 S    
C144  H116  1.113418 S    
C53   H37   1.113207 S    
C96   C116  1.401722 A    
C21   C25   1.402610 A    
N23   O61   1.301501 A    
C123  H83   1.113199 S    
O7    C3    1.273447 A    
C124  H84   1.113203 S    
C49   H25   1.113204 S    
C73   H61   1.113205 S    
C108  C112  1.388870 A    
C15   C115  1.461130 S    
C51   H27   1.113204 S    
N19   O54   1.301373 A    
C65   H57   1.113201 S    
C106  H70   1.083828 S    
C58   C82   1.196564 T    
C131  H95   1.115445 S    
C111  C115  1.397169 A    
C30   H10   1.083195 S    
C34   C38   1.401854 A    
C18   C22   1.390487 A    
C79   H43   1.113206 S    
C36   H16   1.083263 S    
C80   H44   1.113210 S    
C46   H54   1.113205 S    
C123  C139  1.550544 S    
C152  H120  1.110135 S    
O14   Zn6   2.006359 S    
O46   C174  1.278028 A    
C140  C156  1.549188 S    
C24   H8    1.083081 S    
C30   C34   1.390646 A    
O11   C7    1.277558 A    
O12   C8    1.277289 A    
C17   C37   1.401762 A    
O40   Zn9   1.989264 S    
C142  H114  1.113408 S    
O1    Zn1   1.993264 S    
H18   C66   1.113195 S    
O9    Zn1   2.007166 S    
C68   H60   1.113199 S    
C19   C39   1.401874 A    
O4    Zn4   1.993254 S    
Zn2   O18   1.992394 S    
C102  C106  1.400434 A    
O5    Zn5   1.992218 S    
C41   N5    1.356048 A    
O18   C10   1.273007 A    
O7    Zn7   1.992218 S    
C53   C69   1.549382 S    
O8    Zn8   1.992209 S    
O16   C8    1.277218 A    
O2    Zn2   1.993254 S    
C97   C101  1.418252 A    
C87   C91   1.196551 T    
C124  H112  1.113218 S    
O24   C12   1.272693 A    
C122  H82   1.113159 S    
C77   H45   1.113204 S    
C75   C79   1.548282 S    
C46   C66   1.548347 S    
C88   C92   1.196545 T    
N3    N4    1.328564 A    
C85   C89   1.196550 T    
C79   H47   1.113206 S    
C155  H99   1.113274 S    
C50   C54   1.548283 S    
C45   H21   1.113205 S    
C62   C86   1.457496 S    
H20   C68   1.113197 S    
C48   C68   1.548344 S    
C71   C75   1.549391 S    
C110  C114  1.398889 A    
C28   C32   1.402710 A    
C101  C118  1.474002 S    
O2    C2    1.273507 A    
O37   C169  1.278759 A    
C104  C108  1.400486 A    
N18   O51   1.301436 A    
O31   C15   1.277297 A    
N14   C118  1.357072 A    
O32   C16   1.277102 A    
N20   O56   1.301478 A    
N11   C120  1.357986 A    
C53   H33   1.113197 S    
C122  C142  1.548623 S    
O20   C12   1.273011 A    
C111  H75   1.083395 S    
O22   C10   1.272698 A    
C125  H85   1.112865 S    
C77   H41   1.113205 S    
O44   C176  1.278107 A    
C18   C38   1.401785 A    
C143  H115  1.113424 S    
C142  C146  1.551170 S    
N17   O49   1.301571 A    
C97   N17   1.436279 S    
C122  H110  1.113208 S    
C129  N21   1.469376 S    
C60   C84   1.196567 T    
Zn7   O23   1.993267 S    
C42   N6    1.356051 A    
C61   C85   1.457508 S    
Zn8   O24   1.993256 S    
C136  C175  1.416066 S    
C70   C74   1.549388 S    
C29   C33   1.390650 A    
C64   C88   1.457495 S    
C11   C167  1.416351 S    
C96   C100  1.400585 A    
C12   C168  1.416352 S    
Zn1   O17   1.992404 S    
C112  C116  1.398784 A    
C135  C159  1.195079 T    
C136  C160  1.195070 T    
