data_mof_unit_42248.cif
_audit_creation_date              2012-12-10T16:48:46-0500
_audit_creation_method            fapswitch 2.2
_symmetry_space_group_name_H-M    P1
_symmetry_Int_Tables_number       1
_space_group_crystal_system       triclinic
_cell_length_a                    7.80083
_cell_length_b                    8.640773
_cell_length_c                    10.831806
_cell_angle_alpha                 89.2884
_cell_angle_beta                  99.255765
_cell_angle_gamma                 92.668131
_cell_volume                      719.823828021

loop_
_atom_site_label
_atom_site_type_symbol
_atom_type_description
_atom_site_fract_x
_atom_site_fract_y
_atom_site_fract_z
_atom_type_partial_charge
C1    C     C_R   0.543221 0.793876 0.496636 0.924366
C2    C     C_2   0.442960 0.044843 0.521963 -0.101821
C3    C     C_R   0.456779 0.206124 0.503364 0.924366
C4    C     C_R   0.572223 0.489344 0.735186 0.910005
C5    C     C_R   0.427777 0.510656 0.264813 0.910005
C6    C     C_2   0.616715 0.496405 0.868796 -0.391527
C7    C     C_2   0.383285 0.503595 0.131204 -0.391527
C8    C     C_2   0.493084 0.463180 0.939151 0.144570
C9    C     C_2   0.506916 0.536820 0.060849 0.144570
C10   C     C_2   0.557040 0.955157 0.478037 -0.101821
H1    H     H_    0.261126 0.443057 0.093933 0.154152
H2    H     H_    0.195125 0.013245 0.556247 0.188380
H3    H     H_    0.955088 0.250790 0.400592 0.177671
H4    H     H_    0.929168 0.392987 0.293277 0.168117
H5    H     H_    0.044912 0.749210 0.599408 0.177671
H6    H     H_    0.070832 0.607013 0.706723 0.168117
H7    H     H_    0.738874 0.556943 0.906067 0.154152
H8    H     H_    0.616992 0.728739 0.160121 0.181281
H9    H     H_    0.755153 0.583093 0.149883 0.202050
H10   H     H_    0.383008 0.271261 0.839879 0.181281
H11   H     H_    0.244847 0.416906 0.850117 0.202050
H12   H     H_    0.653406 0.958324 0.314391 0.168104
H13   H     H_    0.804875 0.986755 0.443752 0.188380
H14   H     H_    0.346594 0.041676 0.685609 0.168104
N1    N     N_2   0.940600 0.458860 0.467170 -0.006560
N2    N     N_2   0.059400 0.541140 0.532830 -0.006560
N3    N     N_3   0.652202 0.644102 0.101880 -0.465645
N4    N     N_3   0.347798 0.355898 0.898120 -0.465645
N5    N     N_3   0.680018 0.014202 0.400888 -0.443393
N6    N     N_3   0.319982 0.985798 0.599112 -0.443393
N7    N     N_3   0.996497 0.363797 0.381107 -0.316528
N8    N     N_3   0.003503 0.636203 0.618893 -0.316528
O1    O     O_R   0.391630 0.738350 0.508060 -0.594443
O2    O     O_R   0.608370 0.261650 0.491940 -0.594443
O3    O     O_R   0.674540 0.711990 0.487010 -0.629184
O4    O     O_R   0.325460 0.288010 0.512990 -0.629184
O5    O     O_R   0.411370 0.508250 0.688780 -0.621159
O6    O     O_R   0.588630 0.491750 0.311220 -0.621159
O7    O     O_R   0.694270 0.481880 0.667740 -0.604562
O8    O     O_R   0.305730 0.518120 0.332260 -0.604562
Zn1   Zn    Zn3+2 0.311100 0.517600 0.514050 0.956128
Zn2   Zn    Zn3+2 0.688900 0.482400 0.485950 0.956128

loop_
_geom_bond_atom_site_label_1
_geom_bond_atom_site_label_2
_ccdc_geom_bond_type
N1    Zn2   S    
N1    N7    S    
N2    N8    S    
H12   N5    S    
C6    H7    S    
H6    N8    S    
H9    N3    S    
O2    Zn2   S    
C4    O7    A    
H4    N7    S    
C2    N6    S    
O1    Zn1   S    
C2    C3    S    
C1    O1    A    
H5    N8    S    
C5    O6    A    
C7    H1    S    
C10   N5    S    
C1    O3    A    
O4    Zn1   S    
C3    O4    A    
H13   N5    S    
O8    Zn1   S    
H11   N4    S    
O6    Zn2   S    
O7    Zn2   S    
C5    C7    S    
O5    Zn1   S    
C8    N4    S    
H14   N6    S    
C1    C10   S    
C2    C10   D    
C4    O5    A    
C9    N3    S    
C4    C6    S    
C5    O8    A    
C7    C9    D    
O3    Zn2   S    
C6    C8    D    
H10   N4    S    
C3    O2    A    
H2    N6    S    
N1    N2    D    
H3    N7    S    
H8    N3    S    
N2    Zn1   S    
C8    C9    S    
