data_mof_unit_22352.cif
_audit_creation_date              2012-12-11T14:23:14-0500
_audit_creation_method            fapswitch 2.2
_symmetry_space_group_name_H-M    P1
_symmetry_Int_Tables_number       1
_space_group_crystal_system       triclinic
_cell_length_a                    10.977383
_cell_length_b                    10.934734
_cell_length_c                    18.825655
_cell_angle_alpha                 90.255848
_cell_angle_beta                  89.696094
_cell_angle_gamma                 60.303226
_cell_volume                      1962.84531132

loop_
_atom_site_label
_atom_site_type_symbol
_atom_type_description
_atom_site_fract_x
_atom_site_fract_y
_atom_site_fract_z
_atom_type_partial_charge
Br1   Br    Br    0.666846 0.425691 0.066488 -0.563191
C1    C     C_R   0.240296 0.643974 0.611127 0.541812
C2    C     C_R   0.550563 0.205963 0.719914 -0.161378
C3    C     C_R   0.562147 0.202196 0.792107 -0.163126
C4    C     C_R   0.653532 0.622547 0.600873 0.540880
C5    C     C_R   0.932360 0.123649 0.811863 -0.090074
C6    C     C_R   0.046836 0.094748 0.768499 -0.136601
C7    C     C_R   0.038743 0.084432 0.695335 -0.130541
C8    C     C_R   0.915172 0.105707 0.664692 -0.087965
C9    C     C_R   0.664108 0.179081 0.676102 -0.011727
C10   C     C_R   0.195245 0.656452 0.837658 -0.002888
C11   C     C_R   0.198583 0.542517 0.799835 0.022929
C12   C     C_3   0.662228 0.558640 0.800422 -0.246009
C13   C     C_R   0.191417 0.546888 0.724466 0.018272
C14   C     C_R   0.230181 0.747383 0.728133 -0.152075
C15   C     C_R   0.223037 0.750551 0.801361 -0.154721
C16   C     C_R   0.628225 0.227953 0.602810 0.531043
C17   C     C_R   0.207814 0.424987 0.835411 -0.098707
C18   C     C_R   0.196324 0.321024 0.798484 -0.149694
C19   C     C_R   0.173059 0.333194 0.725750 -0.160520
C20   C     C_R   0.168976 0.445480 0.689008 -0.117377
C21   C     C_R   0.207997 0.651720 0.688006 -0.004142
C22   C     C_R   0.658732 0.678282 0.170692 0.019543
C23   C     C_3   0.699884 0.675379 0.811742 0.041803
C24   C     C_R   0.713161 0.542342 0.198565 0.038084
C25   C     C_R   0.749254 0.524323 0.270804 0.016014
C26   C     C_R   0.617436 0.777261 0.290275 -0.164523
C27   C     C_R   0.620227 0.793612 0.217051 -0.153335
C28   C     C_R   0.284087 0.623558 0.392282 0.566708
C29   C     C_R   0.758395 0.422106 0.154208 0.180300
C30   C     C_R   0.873640 0.295765 0.174162 -0.086565
C31   C     C_R   0.928753 0.281979 0.241755 -0.183873
C32   C     C_R   0.864792 0.392721 0.290651 -0.100284
C33   C     C_R   0.675294 0.642584 0.318038 0.007190
C34   C     C_3   0.669414 0.648720 0.676199 0.056434
C35   C     C_R   0.656492 0.150585 0.177845 0.021382
C36   C     C_R   0.523373 0.206932 0.209575 0.023358
C37   C     C_R   0.517144 0.190585 0.282919 0.031384
C38   C     C_R   0.766669 0.113919 0.292848 -0.157552
C39   C     C_R   0.777596 0.095788 0.220352 -0.147528
C40   C     C_R   0.645821 0.620815 0.392052 0.540329
C41   C     C_R   0.398438 0.265661 0.169485 -0.076626
C42   C     C_R   0.275411 0.280873 0.198868 -0.129857
C43   C     C_R   0.272045 0.249298 0.269776 -0.156054
C44   C     C_R   0.391933 0.200595 0.310898 -0.095686
C45   C     C_3   0.819668 0.619193 0.690414 -0.245168
C46   C     C_R   0.636529 0.166003 0.324740 0.005058
C47   C     C_R   0.174176 0.655500 0.175647 0.006525
C48   C     C_R   0.257837 0.712085 0.198208 0.034956
C49   C     C_R   0.271887 0.725484 0.271431 0.018053
C50   C     C_R   0.167330 0.577311 0.293774 -0.134253
C51   C     C_R   0.126446 0.591871 0.223838 -0.151856
C52   C     C_R   0.615781 0.226408 0.395721 0.542656
C53   C     C_R   0.306515 0.777057 0.149701 -0.061019
C54   C     C_R   0.323525 0.888147 0.172234 -0.111324
C55   C     C_R   0.316254 0.917713 0.244190 -0.151658
C56   C     C_3   0.641389 0.544808 0.720752 -0.215817
C57   C     C_R   0.303481 0.830586 0.293542 -0.107062
C58   C     C_R   0.241354 0.642229 0.318439 0.009312
C59   C     C_R   0.702946 0.103331 0.896378 0.558492
C60   C     C_R   0.724673 0.688624 0.887799 0.561697
C61   C     C_R   0.122397 0.703042 0.906843 0.538114
C62   C     C_R   0.676357 0.105115 0.104467 0.576089
C63   C     C_R   0.697066 0.692313 0.098358 0.588660
C64   C     C_3   0.579868 0.816007 0.781063 -0.229741
C65   C     C_R   0.097911 0.706169 0.110453 0.534177
C66   C     C_3   0.565465 0.801558 0.700565 -0.241655
C67   C     C_R   0.690019 0.162205 0.824761 -0.007133
C68   C     C_3   0.836610 0.637897 0.769891 -0.222987
C69   C     C_R   0.806275 0.142432 0.782332 0.016080
C70   C     C_R   0.795177 0.142384 0.706924 0.012986
Cr1   Cr    Cr6+3 0.392940 0.397950 0.502230 0.995659
Cr2   Cr    Cr6+3 0.398400 0.708500 0.501260 0.986050
Cr3   Cr    Cr6+3 0.708640 0.393530 0.496460 0.994913
Cr4   Cr    Cr6+3 0.937880 0.938320 0.007620 1.013611
Cr5   Cr    Cr6+3 0.625560 0.937220 0.994510 1.002787
Cr6   Cr    Cr6+3 0.938080 0.625010 0.001190 1.021112
H1    H     H_    0.602391 0.903394 0.790586 0.148225
H2    H     H_    0.916159 0.090067 0.607938 0.133767
H3    H     H_    0.254617 0.820855 0.702863 0.136181
H4    H     H_    0.478667 0.844592 0.808119 0.116360
H5    H     H_    0.230167 0.409111 0.891565 0.133060
H6    H     H_    0.231761 0.832284 0.829574 0.132779
H7    H     H_    0.205628 0.231473 0.826976 0.106629
H8    H     H_    0.160253 0.254643 0.697188 0.117114
H9    H     H_    0.144044 0.452437 0.633344 0.138435
H10   H     H_    0.571651 0.868819 0.324956 0.113661
H11   H     H_    0.587923 0.897557 0.196466 0.143366
H12   H     H_    0.713888 0.434305 0.703773 0.152763
H13   H     H_    0.919231 0.207390 0.137568 0.147479
H14   H     H_    0.018287 0.183114 0.257119 0.112786
H15   H     H_    0.455769 0.829823 0.688844 0.128015
H16   H     H_    0.916412 0.375883 0.341131 0.146629
H17   H     H_    0.859349 0.086947 0.323925 0.131050
H18   H     H_    0.395879 0.296433 0.114723 0.148495
H19   H     H_    0.882244 0.039929 0.197692 0.152439
H20   H     H_    0.182505 0.317690 0.166667 0.123144
H21   H     H_    0.177513 0.259161 0.293033 0.100269
H22   H     H_    0.385801 0.163826 0.363229 0.136387
H23   H     H_    0.924213 0.538325 0.790232 0.168957
H24   H     H_    0.132560 0.523245 0.329529 0.143403
H25   H     H_    0.315237 0.753533 0.093309 0.144155
H26   H     H_    0.053110 0.557759 0.208050 0.138926
H27   H     H_    0.587556 0.876903 0.671410 0.119025
H28   H     H_    0.346038 0.948723 0.134379 0.128328
H29   H     H_    0.336190 0.998590 0.262512 0.122973
H30   H     H_    0.312307 0.855426 0.347687 0.165718
H31   H     H_    0.864985 0.721752 0.777546 0.126463
H32   H     H_    0.842748 0.691315 0.658878 0.112266
H33   H     H_    0.747413 0.456524 0.820687 0.142741
H34   H     H_    0.896230 0.509469 0.674180 0.147075
H35   H     H_    0.564470 0.584220 0.830220 0.129207
H36   H     H_    0.532747 0.565420 0.711697 0.130440
H37   H     H_    0.448994 0.234526 0.698555 0.168845
H38   H     H_    0.943510 0.136072 0.867866 0.150735
H39   H     H_    0.471350 0.220355 0.822677 0.154352
H40   H     H_    0.144140 0.075606 0.791903 0.090005
H41   H     H_    0.129337 0.058089 0.662091 0.101123
O1    O     O_R   0.507340 0.255690 0.581430 -0.527421
O2    O     O_R   0.837290 0.593240 0.915240 -0.509023
O3    O     O_R   0.065320 0.635310 0.931580 -0.515260
O4    O     O_R   0.280360 0.527380 0.578910 -0.507254
O5    O     O_R   0.068470 0.828620 0.091850 -0.536136
O6    O     O_R   0.799150 0.057200 0.079350 -0.494590
O7    O     O_R   0.585220 0.080180 0.076770 -0.536900
O8    O     O_R   0.627170 0.809480 0.067050 -0.512873
O9    O     O_R   0.816200 0.596410 0.076500 -0.487374
O10   O     O_R   0.045770 0.638240 0.081070 -0.514524
O11   O     O_3   0.833840 0.833520 0.001110 -0.255186
O12   O     O_R   0.524510 0.695820 0.424050 -0.526457
O13   O     O_R   0.260600 0.739610 0.584580 -0.525445
O14   O     O_R   0.532370 0.695050 0.573830 -0.510256
O15   O     O_R   0.744850 0.503430 0.576380 -0.528062
O16   O     O_R   0.699080 0.276500 0.571950 -0.511575
O17   O     O_R   0.498860 0.256520 0.419860 -0.543271
O18   O     O_R   0.272490 0.528150 0.429140 -0.502830
O19   O     O_R   0.252110 0.740440 0.423010 -0.539675
O20   O     O_R   0.736370 0.504260 0.414810 -0.531607
O21   O     O_R   0.691220 0.277270 0.422180 -0.497797
O22   O     O_3   0.499990 0.499990 0.499980 -0.257715
O23   O     O_R   0.089570 0.825450 0.930590 -0.525705
O24   O     O_R   0.818700 0.054260 0.929860 -0.498102
O25   O     O_R   0.606310 0.077010 0.915520 -0.532169
O26   O     O_R   0.646730 0.806540 0.917560 -0.508728

loop_
_geom_bond_atom_site_label_1
_geom_bond_atom_site_label_2
_ccdc_geom_bond_type
C54   C55   A    
Cr2   O13   S    
C51   H26   S    
C23   C60   S    
Cr5   O8    S    
C6    H40   S    
C18   C19   A    
C52   O17   A    
C10   C61   S    
C62   O6    A    
C7    H41   S    
C6    C7    A    
C4    O15   A    
Cr3   O20   S    
C12   H33   S    
C56   H12   S    
C54   H28   S    
Cr4   O5    S    
C49   C58   A    
C13   C20   A    
C35   C36   A    
C14   C21   A    
C17   C18   A    
C12   H35   S    
C59   O25   A    
C29   C30   A    
Cr1   O18   S    
C31   H14   S    
C12   C56   S    
C9    C16   S    
C48   C53   A    
Cr3   O15   S    
Cr3   O16   S    
C18   H7    S    
C57   H30   S    
C8    H2    S    
C36   C41   A    
C66   H15   S    
C37   C44   A    
Cr4   O23   S    
C59   O24   A    
Cr2   O12   S    
C43   H21   S    
C25   C33   A    
C4    O14   A    
C30   C31   A    
C55   C57   A    
C7    C8    A    
C64   C66   S    
C1    C21   S    
C69   C70   A    
C35   C62   S    
Cr6   O9    S    
C46   C52   S    
C9    C70   A    
Cr6   O2    S    
Cr2   O14   S    
C45   H34   S    
C60   O2    A    
Cr5   O7    S    
C33   C40   S    
C39   H19   S    
C68   H31   S    
C3    H39   S    
C23   C68   S    
C1    O4    A    
C26   C33   A    
Cr4   O6    S    
C49   C57   A    
C8    C70   A    
C35   C39   A    
C44   H22   S    
C38   C39   A    
C3    C67   A    
Cr1   O17   S    
C56   H36   S    
C24   C25   A    
Cr3   O22   S    
C15   H6    S    
C41   H18   S    
C12   C23   S    
C42   C43   A    
Cr5   O25   S    
C38   H17   S    
C27   H11   S    
C36   C37   A    
Cr4   O24   S    
Cr5   O11   S    
C60   O26   A    
C64   H4    S    
C14   H3    S    
C34   C66   S    
C30   H13   S    
C19   H8    S    
C1    O13   A    
C37   C46   A    
Cr6   O11   S    
C22   C27   A    
C26   H10   S    
C55   H29   S    
C40   O20   A    
C62   O7    A    
Cr6   O10   S    
C23   C64   S    
Cr5   O26   S    
C47   C48   A    
C11   C13   A    
C63   O8    A    
Cr1   O22   S    
C50   C58   A    
C41   C42   A    
C61   O23   A    
C2    C3    A    
C16   O16   A    
C43   C44   A    
C38   C46   A    
C24   C29   A    
C5    C69   A    
C53   C54   A    
C22   C63   S    
C64   H1    S    
Cr1   O4    S    
C52   O21   A    
C53   H25   S    
C42   H20   S    
C66   H27   S    
C2    H37   S    
C32   H16   S    
C20   H9    S    
C10   C11   A    
C5    C6    A    
Cr2   O22   S    
C50   H24   S    
C28   O19   A    
Cr3   O21   S    
C34   C56   S    
C31   C32   A    
C13   C21   A    
C50   C51   A    
C2    C9    A    
C63   O9    A    
C40   O12   A    
Cr2   O19   S    
C4    C34   S    
Cr1   O1    S    
Br1   C29   S    
C17   H5    S    
C65   O10   A    
C22   C24   A    
C5    H38   S    
C10   C15   A    
Cr6   O3    S    
C16   O1    A    
C68   H23   S    
Cr4   O11   S    
C47   C51   A    
C28   O18   A    
C19   C20   A    
C59   C67   S    
C67   C69   A    
C48   C49   A    
C45   H32   S    
C11   C17   A    
C26   C27   A    
C45   C68   S    
C28   C58   S    
C65   O5    A    
C47   C65   S    
C34   C45   S    
C61   O3    A    
C14   C15   A    
C25   C32   A    
