data_mof_unit_45420.cif
_audit_creation_date              2012-10-26T19:24:24-0400
_audit_creation_method            fapswitch 2.2
_symmetry_space_group_name_H-M    P1
_symmetry_Int_Tables_number       1
_space_group_crystal_system       triclinic
_cell_length_a                    27.842324
_cell_length_b                    10.795869
_cell_length_c                    9.606405
_cell_angle_alpha                 90.752379
_cell_angle_beta                  90.396045
_cell_angle_gamma                 93.885513
_cell_volume                      2880.53963556

loop_
_atom_site_label
_atom_site_type_symbol
_atom_type_description
_atom_site_fract_x
_atom_site_fract_y
_atom_site_fract_z
_atom_type_partial_charge
C1    C     C_R   0.497033 0.262529 0.499000 0.656816
C2    C     C_R   0.973106 0.392465 0.451149 0.026572
C3    C     C_R   0.978621 0.617164 0.497586 -0.016884
C4    C     C_R   0.407713 0.503180 0.499707 0.581196
C5    C     C_R   0.950512 0.504415 0.476130 0.030530
C6    C     C_R   0.943870 0.283912 0.417960 -0.139234
C7    C     C_R   0.894044 0.283960 0.418547 -0.106107
C8    C     C_R   0.871459 0.391907 0.452793 0.024769
C9    C     C_R   0.899469 0.503062 0.482141 -0.047960
C10   C     C_R   0.876520 0.612034 0.518547 0.028942
C11   C     C_R   0.825531 0.606244 0.519372 0.421453
C12   C     C_R   0.278726 0.493436 0.621463 0.134060
C13   C     C_R   0.821222 0.390731 0.458503 0.404337
C14   C     C_R   0.721321 0.477307 0.372443 -0.095170
C15   C     C_R   0.671009 0.474144 0.372660 0.024852
C16   C     C_R   0.501123 0.737372 0.501334 0.511157
C17   C     C_R   0.673409 0.503540 0.626027 0.051483
C18   C     C_R   0.724139 0.503521 0.623017 0.153234
C19   C     C_R   0.747759 0.492909 0.495719 0.245712
C20   C     C_R   0.023973 0.392371 0.462563 -0.025538
C21   C     C_R   0.051950 0.506921 0.473060 0.005196
C22   C     C_R   0.029296 0.621128 0.477459 0.030656
C23   C     C_R   0.254435 0.513194 0.495314 0.243837
C24   C     C_R   0.047738 0.281054 0.466137 -0.121089
C25   C     C_R   0.108561 0.732169 0.467107 -0.056301
C26   C     C_R   0.955545 0.720283 0.548221 -0.100559
C27   C     C_R   0.905638 0.720515 0.556220 0.093508
C28   C     C_R   0.592691 0.497365 0.500258 0.573141
C29   C     C_R   0.058636 0.733765 0.460344 0.078690
C30   C     C_R   0.406108 0.103176 0.529422 0.245061
C31   C     C_R   0.366546 0.027744 0.577408 -0.042076
C32   C     C_R   0.370003 0.901535 0.595706 0.059993
C33   C     C_R   0.413345 0.849113 0.567884 -0.111430
C34   C     C_R   0.102939 0.507350 0.477595 -0.081237
C35   C     C_R   0.454878 0.923828 0.531047 -0.055929
C36   C     C_R   0.452190 0.053765 0.519607 -0.016958
C37   C     C_R   0.495541 0.128082 0.496433 0.024741
C38   C     C_R   0.539837 0.074587 0.482608 0.103855
C39   C     C_R   0.541730 0.946194 0.488163 0.084394
C40   C     C_R   0.176763 0.399351 0.484350 0.404374
C41   C     C_R   0.499084 0.871044 0.505955 0.006653
C42   C     C_R   0.564643 0.667000 0.146459 -0.055648
C43   C     C_R   0.596141 0.750063 0.075449 0.247520
C44   C     C_R   0.594283 0.752553 0.931862 -0.140652
C45   C     C_R   0.125988 0.394559 0.479629 0.030246
C46   C     C_R   0.563177 0.669238 0.858815 -0.116894
C47   C     C_R   0.531233 0.583022 0.926773 0.138486
C48   C     C_R   0.531542 0.582501 0.076092 0.095158
C49   C     C_R   0.470297 0.420087 0.071788 0.209169
C50   C     C_R   0.470463 0.420449 0.923655 0.005389
C51   C     C_R   0.181271 0.620733 0.486722 0.390464
C52   C     C_R   0.280586 0.533492 0.372950 -0.088337
C53   C     C_R   0.330542 0.532253 0.374764 -0.192568
C54   C     C_R   0.328826 0.491348 0.622485 -0.099030
C55   C     C_3   0.363538 0.219738 0.381619 -0.104931
C56   C     C_R   0.097734 0.281059 0.477712 0.281396
C57   C     C_3   0.665171 0.774524 0.203499 -0.102926
C58   C     C_3   0.115523 0.119555 0.613419 -0.074487
C59   C     C_R   0.130972 0.620930 0.479296 -0.003119
C60   C     C_R   0.355051 0.509365 0.499101 -0.039633
C61   C     C_R   0.646239 0.491621 0.499888 0.050146
Cu1   Cu    Cu3+1 0.500000 0.499990 0.640660 0.959111
Cu2   Cu    Cu3+1 0.500000 0.500010 0.359340 0.990951
H1    H     H_    0.347095 0.474674 0.719716 0.152539
H2    H     H_    0.446254 0.355499 0.866165 0.122624
H3    H     H_    0.740361 0.466644 0.275491 0.129189
H4    H     H_    0.873233 0.198136 0.392924 0.167849
H5    H     H_    0.958487 0.197697 0.387754 0.113941
H6    H     H_    0.028348 0.191192 0.464905 0.122107
H7    H     H_    0.349918 0.547639 0.278480 0.141874
H8    H     H_    0.657419 0.440625 0.819654 0.235402
H9    H     H_    0.662847 0.597730 0.806124 0.220185
H10   H     H_    0.865450 0.812641 0.694384 0.277527
H11   H     H_    0.865912 0.869666 0.528011 0.278237
H12   H     H_    0.262019 0.549291 0.276029 0.140483
H13   H     H_    0.746135 0.597331 0.799213 0.237949
H14   H     H_    0.741557 0.440140 0.813607 0.225122
H15   H     H_    0.036838 0.907939 0.496956 0.223679
H16   H     H_    0.007741 0.830568 0.358368 0.246627
H17   H     H_    0.599362 0.126466 0.371657 0.266105
H18   H     H_    0.606791 0.137153 0.546841 0.259448
H19   H     H_    0.366934 0.142531 0.304776 0.117920
H20   H     H_    0.367300 0.306599 0.322570 0.165777
H21   H     H_    0.327007 0.215007 0.427768 0.141585
H22   H     H_    0.229393 0.397572 0.738961 0.257173
H23   H     H_    0.129939 0.819223 0.456527 0.189999
H24   H     H_    0.232941 0.553203 0.765908 0.249591
H25   H     H_    0.320059 0.760966 0.558877 0.261071
H26   H     H_    0.337760 0.778088 0.727095 0.236580
H27   H     H_    0.592486 0.843753 0.573078 0.213607
H28   H     H_    0.587675 0.833136 0.397719 0.251565
H29   H     H_    0.403424 0.346106 0.106006 0.185744
H30   H     H_    0.446676 0.244135 0.112376 0.213415
H31   H     H_    0.682910 0.716986 0.124340 0.118651
H32   H     H_    0.652869 0.716982 0.293019 0.131997
H33   H     H_    0.692675 0.845445 0.243656 0.169934
H34   H     H_    0.976062 0.801433 0.588002 0.142663
H35   H     H_    0.077456 0.096755 0.643381 0.087218
H36   H     H_    0.133696 0.184360 0.691469 0.131063
H37   H     H_    0.134190 0.032001 0.614990 0.162682
H38   H     H_    0.668591 0.458970 0.158698 0.213098
H39   H     H_    0.630600 0.359993 0.244318 0.261191
H40   H     H_    0.332264 0.066709 0.595216 0.154111
H41   H     H_    0.414279 0.750097 0.579710 0.140428
H42   H     H_    0.567480 0.672247 0.256115 0.176213
H43   H     H_    0.618002 0.817850 0.875901 0.140799
H44   H     H_    0.566273 0.675080 0.749063 0.189971
N1    N     N_R   0.202923 0.511127 0.490095 -0.406900
N2    N     N_3   0.253181 0.476307 0.749362 -0.630215
N3    N     N_3   0.328571 0.826216 0.638055 -0.594120
N4    N     N_3   0.587731 0.894135 0.482393 -0.619756
N5    N     N_3   0.438271 0.333613 0.141967 -0.560925
N6    N     N_3   0.645252 0.451746 0.243485 -0.613674
N7    N     N_R   0.799419 0.496694 0.491085 -0.372210
N8    N     N_R   0.500460 0.501210 0.147910 -0.211167
N9    N     N_R   0.500480 0.501290 0.852040 -0.251868
N10   N     N_3   0.649664 0.515281 0.757086 -0.613998
N11   N     N_3   0.886444 0.832413 0.606620 -0.620013
N12   N     N_3   0.752348 0.513659 0.748735 -0.591801
N13   N     N_3   0.040220 0.847054 0.412720 -0.626831
N14   N     N_3   0.583229 0.152480 0.464573 -0.610733
O1    O     O_R   0.500000 0.319640 0.618810 -0.489660
O2    O     O_R   0.569730 0.499970 0.618800 -0.482609
O3    O     O_R   0.569740 0.499990 0.381230 -0.504132
O4    O     O_2   0.200086 0.293799 0.482531 -0.448941
O5    O     O_3   0.399422 0.222946 0.487099 -0.572554
O6    O     O_3   0.626753 0.835903 0.145792 -0.566886
O7    O     O_3   0.118694 0.168457 0.478087 -0.506583
O8    O     O_2   0.794222 0.284178 0.432645 -0.496094
O9    O     O_2   0.208436 0.729173 0.490557 -0.491640
O10   O     O_2   0.801814 0.708484 0.546565 -0.512195
O11   O     O_R   0.500000 0.319660 0.381240 -0.445460
O12   O     O_R   0.430260 0.500010 0.618770 -0.505575
O13   O     O_R   0.430270 0.500030 0.381200 -0.468475
O14   O     O_R   0.500000 0.680340 0.618760 -0.535014
O15   O     O_R   0.500000 0.680360 0.381190 -0.527454

loop_
_geom_bond_atom_site_label_1
_geom_bond_atom_site_label_2
_ccdc_geom_bond_type
C10   C27   A    
C30   O5    S    
C58   O7    S    
C8    C13   A    
C22   C29   A    
C33   H41   S    
H38   N6    S    
C35   C36   A    
C58   H35   S    
C1    O11   A    
Cu2   O3    S    
C28   O2    A    
C7    C8    A    
C39   C41   A    
C54   C60   A    
Cu1   N9    S    
C12   C23   A    
C26   C27   A    
C37   C38   A    
C32   N3    S    
Cu1   O12   S    
C36   C37   A    
H22   N2    S    
C30   C31   A    
C31   C32   A    
C40   O4    S    
C18   C19   A    
H28   N4    S    
C11   N7    A    
C1    O1    A    
C12   N2    S    
C17   C61   A    
C53   C60   A    
C20   C24   A    
C45   C56   A    
C8    C9    A    
C57   H33   S    
H9    N10   S    
C15   N6    S    
C9    C10   A    
C13   N7    A    
C17   N10   S    
C40   N1    A    
Cu2   N8    S    
C28   C61   S    
C52   H12   S    
C6    H5    S    
C21   C22   A    
H16   N13   S    
C15   C61   A    
C2    C6    A    
H27   N4    S    
C53   H7    S    
Cu1   O2    S    
C50   H2    S    
C51   O9    S    
C44   C46   A    
C24   H6    S    
H17   N14   S    
C25   C29   A    
C40   C45   A    
H11   N11   S    
C29   N13   S    
H13   N12   S    
H8    N10   S    
C2    C20   A    
Cu2   O13   S    
C58   H37   S    
C43   O6    S    
C51   N1    A    
C21   C34   A    
H30   N5    S    
C19   N7    S    
H14   N12   S    
H26   N3    S    
H18   N14   S    
C31   H40   S    
Cu1   O14   S    
H15   N13   S    
C43   C44   A    
C5    C9    A    
Cu1   Cu2   S    
C47   C48   A    
C55   O5    S    
C46   H44   S    
C4    C60   S    
C17   C18   A    
C14   H3    S    
C34   C45   A    
C42   C48   A    
Cu2   O11   S    
C55   H19   S    
C48   N8    A    
C49   N8    A    
C57   H31   S    
C49   N5    S    
C34   C59   A    
C2    C5    A    
C51   C59   A    
C42   C43   A    
C55   H20   S    
C16   O15   A    
Cu1   O1    S    
C52   C53   A    
C4    O13   A    
C27   N11   S    
C46   C47   A    
H10   N11   S    
C14   C19   A    
C3    C26   A    
H29   N5    S    
C58   H36   S    
C3    C5    A    
C11   O10   S    
C57   O6    S    
C28   O3    A    
C6    C7    A    
H24   N2    S    
C44   H43   S    
C24   C56   A    
C30   C36   A    
Cu2   O15   S    
H25   N3    S    
H39   N6    S    
C32   C33   A    
C23   C52   A    
C38   C39   A    
C54   H1    S    
C23   N1    S    
C18   N12   S    
C39   N4    S    
C25   H23   S    
C33   C35   A    
C50   N9    A    
C56   O7    S    
C35   C41   A    
C42   H42   S    
C38   N14   S    
C47   N9    A    
C10   C11   A    
C26   H34   S    
C7    H4    S    
C20   C21   A    
C49   C50   A    
C57   H32   S    
C13   O8    S    
C14   C15   A    
C4    O12   A    
C3    C22   A    
C25   C59   A    
C55   H21   S    
C16   O14   A    
C16   C41   S    
C12   C54   A    
C1    C37   S    
