data_mof_unit_51342.cif
_audit_creation_date              2012-12-11T15:47:07-0500
_audit_creation_method            fapswitch 2.2
_symmetry_space_group_name_H-M    P1
_symmetry_Int_Tables_number       1
_space_group_crystal_system       triclinic
_cell_length_a                    20.139771
_cell_length_b                    7.251787
_cell_length_c                    13.631745
_cell_angle_alpha                 90.004892
_cell_angle_beta                  103.147873
_cell_angle_gamma                 89.996552
_cell_volume                      1938.71806611

loop_
_atom_site_label
_atom_site_type_symbol
_atom_type_description
_atom_site_fract_x
_atom_site_fract_y
_atom_site_fract_z
_atom_type_partial_charge
O1    O     O_R   0.449560 0.506810 0.599700 -0.539929
O2    O     O_R   0.550440 0.006810 0.400300 -0.539940
O3    O     O_R   0.587960 0.180060 0.595760 -0.523831
O4    O     O_R   0.412040 0.680060 0.404240 -0.523855
C1    C     C_R   0.614885 0.344149 0.617455 0.693227
C2    C     C_R   0.385124 0.844153 0.382522 0.692960
O5    O     O_R   0.452380 0.177430 0.611700 -0.548042
O6    O     O_R   0.547620 0.677430 0.388300 -0.548046
O7    O     O_R   0.413900 0.001890 0.416350 -0.530831
O8    O     O_R   0.586100 0.501890 0.583650 -0.530706
C3    C     C_R   0.435262 0.346074 0.636498 0.688265
C4    C     C_R   0.564739 0.846061 0.363504 0.688288
O9    O     O_3   0.487530 0.337490 0.435890 -0.372323
O10   O     O_3   0.512470 0.837490 0.564110 -0.372234
V1    V     V_3+5 0.502310 0.064660 0.511890 1.474285
V2    V     V_3+5 0.497690 0.564660 0.488110 1.474295
C5    C     C_R   0.609557 0.015146 0.127441 0.187487
C6    C     C_R   0.390436 0.515200 0.872572 0.187482
H1    H     H_    0.521077 0.014735 0.190697 0.130743
H2    H     H_    0.478905 0.514868 0.809286 0.130672
C7    C     C_R   0.602946 0.862372 0.283919 -0.175083
C8    C     C_R   0.397055 0.362409 0.716086 -0.175050
C9    C     C_R   0.927941 0.819526 0.311283 0.270830
C10   C     C_R   0.072070 0.319422 0.688740 0.270821
C11   C     C_R   0.892602 0.834728 0.389557 0.093007
C12   C     C_R   0.107410 0.334590 0.610469 0.093066
C13   C     C_R   0.823246 0.888310 0.365184 0.197967
C14   C     C_R   0.176763 0.388175 0.634848 0.197808
C15   C     C_R   0.785509 0.884427 0.262934 0.005481
C16   C     C_R   0.214499 0.384331 0.737098 0.005509
C17   C     C_R   0.822035 0.891870 0.185588 -0.117878
C18   C     C_R   0.177971 0.391810 0.814439 -0.117872
C19   C     C_R   0.712705 0.887736 0.236342 -0.003925
C20   C     C_R   0.287303 0.387674 0.763692 -0.003930
C21   C     C_R   0.678719 0.957439 0.140814 0.014823
C22   C     C_R   0.321283 0.457442 0.859213 0.014800
C23   C     C_R   0.714496 0.961008 0.062425 0.060239
C24   C     C_R   0.285502 0.461044 0.937601 0.060282
C25   C     C_R   0.785947 0.931066 0.085042 0.307417
C26   C     C_R   0.214055 0.431054 0.914984 0.307392
C27   C     C_R   0.672779 0.814862 0.300843 0.310588
C28   C     C_R   0.327232 0.314811 0.699187 0.310647
C29   C     C_R   0.573121 0.966532 0.199333 -0.215594
C30   C     C_R   0.426870 0.466619 0.800664 -0.215564
C31   C     C_R   0.893852 0.860218 0.211739 -0.141087
C32   C     C_R   0.106155 0.360161 0.788281 -0.141060
C33   C     C_R   0.229731 0.998934 0.183937 -0.238192
C34   C     C_R   0.770366 0.499280 0.815756 -0.238380
H3    H     H_    0.215781 0.111702 0.131099 0.187732
H4    H     H_    0.784371 0.612350 0.868391 0.187879
C35   C     C_R   0.296022 0.993509 0.243784 0.337807
C36   C     C_R   0.704081 0.493880 0.755906 0.337787
C37   C     C_R   0.315577 0.849213 0.314722 -0.251728
C38   C     C_R   0.684440 0.349205 0.685230 -0.251947
C39   C     C_R   0.267598 0.707127 0.319810 0.241754
C40   C     C_R   0.732347 0.206792 0.680359 0.241873
C41   C     C_R   0.202249 0.708135 0.253509 0.354164
C42   C     C_R   0.797688 0.207801 0.746673 0.353972
C43   C     C_R   0.182947 0.856760 0.186478 -0.214432
C44   C     C_R   0.817067 0.356752 0.813476 -0.214399
O11   O     O_R   0.913920 0.203370 0.916260 -0.505479
O12   O     O_R   0.086080 0.703370 0.083740 -0.505557
O13   O     O_R   0.047620 0.535540 0.888290 -0.546677
O14   O     O_R   0.952380 0.035540 0.111710 -0.546666
C45   C     C_R   0.064453 0.368230 0.863412 0.884114
C46   C     C_R   0.935551 0.868244 0.136597 0.884202
O15   O     O_R   0.912040 0.532780 0.904220 -0.548996
O16   O     O_R   0.087960 0.032780 0.095780 -0.548951
O17   O     O_R   0.949550 0.708160 0.099720 -0.533730
O18   O     O_R   0.050450 0.208160 0.900280 -0.533765
C47   C     C_R   0.885776 0.364515 0.882526 0.762517
C48   C     C_R   0.114229 0.864519 0.117457 0.762571
O19   O     O_3   0.012480 0.375300 0.064060 -0.375514
O20   O     O_3   0.987520 0.875300 0.935940 -0.375501
V3    V     V_3+5 0.997690 0.648180 0.988110 1.562362
V4    V     V_3+5 0.002310 0.148180 0.011890 1.562430
O21   O     O_3   0.340412 0.129589 0.228596 -0.634348
H5    H     H_    0.386783 0.076325 0.239652 0.283221
O22   O     O_3   0.659771 0.630395 0.770816 -0.634015
H6    H     H_    0.613425 0.577123 0.760238 0.283211
O23   O     O_3   0.282712 0.566794 0.389546 -0.643728
H7    H     H_    0.308663 0.619972 0.453773 0.292312
O24   O     O_3   0.717182 0.066162 0.610799 -0.643428
H8    H     H_    0.691339 0.119193 0.546466 0.292342
O25   O     O_3   0.154834 0.571163 0.256412 -0.621406
H9    H     H_    0.175706 0.471090 0.302550 0.327640
O26   O     O_3   0.845021 0.070490 0.743984 -0.621407
H10   H     H_    0.824078 0.970161 0.698075 0.327739
C49   C     C_3   0.676471 0.957143 0.952694 -0.734650
H11   H     H_    0.702229 0.863829 0.908786 0.257653
H12   H     H_    0.624569 0.898680 0.943267 0.223635
H13   H     H_    0.674497 0.096978 0.919054 0.195230
C50   C     C_3   0.323526 0.457309 0.047335 -0.734377
H14   H     H_    0.297760 0.364137 0.091292 0.257709
H15   H     H_    0.375418 0.398759 0.056775 0.223764
H16   H     H_    0.325522 0.597203 0.080918 0.195166
C51   C     C_3   0.576103 0.153585 0.048633 -0.767687
H17   H     H_    0.614385 0.238502 0.022336 0.219243
H18   H     H_    0.541800 0.082655 0.984489 0.206468
H19   H     H_    0.544837 0.252807 0.081035 0.203804
C52   C     C_3   0.423879 0.653669 0.951379 -0.767670
H20   H     H_    0.385585 0.738682 0.977602 0.219303
H21   H     H_    0.458141 0.582756 0.015566 0.206463
H22   H     H_    0.455186 0.752801 0.919009 0.203759
O27   O     O_3   0.703321 0.694425 0.376518 -0.647290
H23   H     H_    0.669431 0.644387 0.411534 0.296502
O28   O     O_3   0.296702 0.194311 0.623529 -0.647291
H24   H     H_    0.330580 0.144423 0.588440 0.296476
O29   O     O_3   0.996738 0.775980 0.328379 -0.648869
H25   H     H_    0.016853 0.757947 0.400749 0.303754
O30   O     O_3   0.003274 0.275884 0.671641 -0.648952
H26   H     H_    0.983168 0.257731 0.599276 0.303722
C53   C     C_3   0.794961 0.986274 0.445005 -0.670505
H27   H     H_    0.832779 0.087593 0.485641 0.204131
H28   H     H_    0.748635 0.067489 0.411915 0.192637
H29   H     H_    0.783496 0.885814 0.500167 0.254008
C54   C     C_3   0.205042 0.486130 0.555036 -0.670331
H30   H     H_    0.167216 0.587418 0.514389 0.204158
H31   H     H_    0.251355 0.567384 0.588135 0.192768
H32   H     H_    0.216525 0.385652 0.499886 0.253993
C55   C     C_3   0.929211 0.799927 0.498218 -0.761695
H33   H     H_    0.951617 0.659367 0.505550 0.206809
H34   H     H_    0.970086 0.903845 0.522608 0.206430
H35   H     H_    0.895322 0.805130 0.551695 0.230198
C56   C     C_3   0.070802 0.299784 0.501806 -0.761728
H36   H     H_    0.048409 0.159216 0.494463 0.206795
H37   H     H_    0.029919 0.403690 0.477427 0.206486
H38   H     H_    0.104689 0.305005 0.448329 0.230114
O31   O     O_3   0.820826 0.937804 0.008755 -0.652845
H39   H     H_    0.799499 0.031863 0.958751 0.297333
O32   O     O_3   0.179173 0.437812 0.991268 -0.652860
H40   H     H_    0.200475 0.531956 0.041242 0.297257

loop_
_geom_bond_atom_site_label_1
_geom_bond_atom_site_label_2
_ccdc_geom_bond_type
C24   C26   A    
O26   H10   S    
O13   C45   A    
C50   H14   S    
C9    C31   A    
C15   C19   A    
C13   C15   A    
O30   H26   S    
O1    C3    A    
O2    C4    A    
C42   O26   S    
C2    O7    A    
C5    C29   A    
O23   H7    S    
C33   H3    S    
O21   H5    S    
O5    C3    A    
C52   H20   S    
C27   O27   S    
C21   C23   A    
C10   C12   A    
C53   H27   S    
C14   C54   S    
C54   H31   S    
C41   C43   A    
C46   O17   A    
C42   C44   A    
C45   O18   A    
C51   H17   S    
O6    V2    S    
C50   H15   S    
C55   H35   S    
H2    C30   S    
C7    C29   A    
C8    C30   A    
H1    C29   S    
C20   C28   A    
C56   H38   S    
O28   H24   S    
C40   C42   A    
C49   H12   S    
C36   O22   S    
C28   O28   S    
C20   C22   A    
O16   C48   A    
C43   C48   S    
C53   H29   S    
O11   C47   A    
C34   H4    S    
C52   H21   S    
C10   O30   S    
C51   H18   S    
C36   C38   A    
C34   C44   A    
C37   C39   A    
O11   V4    S    
C9    O29   S    
C38   C40   A    
O20   V3    S    
C16   C20   A    
C41   O25   S    
C1    C38   S    
C32   C45   S    
O4    C2    A    
C54   H32   S    
C33   C35   A    
O5    V1    S    
C25   O31   S    
C44   C47   S    
O25   H9    S    
C4    C7    S    
C35   C37   A    
C12   C56   S    
O14   C46   A    
O4    V2    S    
C35   O21   S    
C6    C30   A    
O24   H8    S    
O6    C4    A    
O14   V4    S    
O12   C48   A    
O1    V2    S    
C49   H13   S    
O2    V1    S    
C55   H33   S    
C7    C27   A    
C13   C53   S    
C26   O32   S    
C50   H16   S    
C39   C41   A    
O18   V4    S    
C56   H36   S    
O19   V4    S    
O12   V3    S    
C39   O23   S    
C2    C37   S    
O32   H40   S    
C51   H19   S    
O3    V1    S    
C40   O24   S    
O31   H39   S    
C18   C32   A    
O3    C1    A    
O16   V4    S    
C11   C55   S    
O27   H23   S    
C3    C8    S    
C12   C14   A    
C23   C49   S    
C19   C27   A    
C14   C16   A    
O7    V1    S    
C10   C32   A    
C1    O8    A    
C15   C17   A    
O8    V2    S    
C54   H30   S    
C16   C18   A    
C6    C22   A    
C8    C28   A    
O13   V3    S    
C24   C50   S    
C22   C24   A    
C19   C21   A    
C17   C25   A    
O17   V3    S    
O15   C47   A    
C18   C26   A    
C55   H34   S    
C33   C43   A    
O22   H6    S    
C34   C36   A    
C9    C11   A    
O15   V3    S    
C23   C25   A    
C17   C31   A    
O9    V2    S    
C31   C46   S    
C56   H37   S    
O10   V1    S    
C52   H22   S    
C5    C21   A    
C49   H11   S    
O29   H25   S    
C5    C51   S    
C6    C52   S    
C53   H28   S    
C11   C13   A    
