data_mof_unit_27146.cif
_audit_creation_date              2013-03-05T16:19:18-0500
_audit_creation_method            fapswitch 2.2
_symmetry_space_group_name_H-M    P1
_symmetry_Int_Tables_number       1
_space_group_crystal_system       triclinic
_cell_length_a                    10.879657
_cell_length_b                    9.933542
_cell_length_c                    22.643657
_cell_angle_alpha                 88.931565
_cell_angle_beta                  90.450578
_cell_angle_gamma                 89.674153
_cell_volume                      2446.63715539

loop_
_atom_site_label
_atom_site_type_symbol
_atom_site_description
_atom_site_fract_x
_atom_site_fract_y
_atom_site_fract_z
_atom_type_partial_charge
O1    O     O_R   0.314910 0.616040 0.499990 -0.629777
O2    O     O_R   0.314910 0.383960 0.499990 -0.635075
C1    C     C_R   0.259515 0.500749 0.496906 0.867526
O3    O     O_R   0.500080 0.616070 0.416130 -0.578692
O4    O     O_R   0.500080 0.383930 0.416130 -0.643479
C2    C     C_R   0.495053 0.501115 0.388741 0.863297
Zn1   Zn    Zn3+2 0.500150 0.654960 0.499970 0.988047
Zn2   Zn    Zn3+2 0.500150 0.345040 0.499970 0.958856
O5    O     O_R   0.685320 0.616040 0.499970 -0.576413
O6    O     O_R   0.685320 0.383960 0.499970 -0.616210
O7    O     O_R   0.500150 0.616010 0.583820 -0.581955
O8    O     O_R   0.500150 0.383990 0.583820 -0.586168
C3    C     C_R   0.743278 0.499549 0.497218 0.783890
C4    C     C_R   0.496037 0.499766 0.611835 0.920265
C5    C     C_R   0.355321 0.610296 0.875846 0.576990
N1    N     N_R   0.329957 0.489416 0.850471 -0.351591
C6    C     C_R   0.276860 0.386261 0.881344 0.553268
C7    C     C_R   0.253935 0.399546 0.941719 -0.025798
C8    C     C_R   0.285103 0.521185 0.969479 -0.024472
C9    C     C_R   0.327665 0.631911 0.935735 -0.068230
C10   C     C_R   0.205306 0.292592 0.975279 -0.131219
C11   C     C_R   0.196660 0.301834 0.036357 -0.110748
C12   C     C_R   0.239475 0.416710 0.065004 -0.018319
C13   C     C_R   0.280058 0.528939 0.031445 -0.044810
C14   C     C_R   0.322289 0.645376 0.059966 -0.069618
C15   C     C_R   0.345541 0.763770 0.025873 0.130532
C16   C     C_R   0.346015 0.757502 0.963591 -0.097989
C17   C     C_R   0.251398 0.418484 0.126501 0.518498
N2    N     N_R   0.310847 0.522629 0.152627 -0.365020
C18   C     C_R   0.344553 0.635455 0.121327 0.572907
O9    O     O_2   0.412384 0.706354 0.843475 -0.493609
O10   O     O_2   0.249541 0.270555 0.853995 -0.485792
H1    H     H_    0.177947 0.199660 0.954759 0.211489
H2    H     H_    0.162862 0.215768 0.061256 0.214577
O11   O     O_2   0.211738 0.313456 0.159710 -0.497155
O12   O     O_2   0.406505 0.732739 0.149340 -0.473055
C19   C     C_R   0.461465 0.429335 0.224692 -0.039586
C20   C     C_R   0.507714 0.421516 0.283382 -0.068013
C21   C     C_R   0.455494 0.504613 0.326627 -0.147401
C22   C     C_R   0.351407 0.582979 0.312850 -0.237996
H3    H     H_    0.307641 0.642154 0.346603 0.152542
C23   C     C_R   0.298534 0.580972 0.256967 0.260522
C24   C     C_R   0.354074 0.506615 0.212374 0.137591
C25   C     C_R   0.288728 0.525543 0.745286 0.222031
C26   C     C_R   0.337806 0.548836 0.688844 0.048906
C27   C     C_R   0.456759 0.500540 0.674686 -0.176230
C28   C     C_R   0.533285 0.454581 0.721513 0.134403
C29   C     C_R   0.485765 0.437759 0.778138 -0.135145
H4    H     H_    0.546669 0.410172 0.814519 0.179111
C30   C     C_R   0.364191 0.472125 0.790176 0.165821
C31   C     C_3   0.073530 0.646703 0.496531 -0.399597
C32   C     C_3   0.078199 0.416293 0.547004 -0.370415
H5    H     H_    0.088487 0.700400 0.453762 0.157366
H6    H     H_    0.127997 0.318279 0.551664 0.204627
H7    H     H_    0.123987 0.709688 0.527995 0.241296
H8    H     H_    0.094166 0.470940 0.588742 0.204836
C33   C     C_3   0.936525 0.640831 0.511369 -0.197699
C34   C     C_3   0.941613 0.387494 0.537743 -0.234454
H9    H     H_    0.890363 0.722008 0.485490 0.197827
H10   H     H_    0.940384 0.290207 0.515670 0.202964
H11   H     H_    0.125901 0.490787 0.396998 0.154061
H12   H     H_    0.106999 0.334335 0.435059 0.222622
C35   C     C_3   0.078365 0.442112 0.435161 -0.412289
C36   C     C_3   0.125167 0.501679 0.493966 0.037493
C37   C     C_3   0.883205 0.497541 0.494291 -0.171938
C38   C     C_3   0.934094 0.459413 0.429715 -0.068736
C39   C     C_3   0.380364 0.081941 0.476116 -0.381511
C40   C     C_3   0.374573 0.920178 0.484348 -0.400328
H13   H     H_    0.368074 0.110100 0.428632 0.194283
H14   H     H_    0.336616 0.874558 0.443580 0.193504
H15   H     H_    0.301386 0.127735 0.499398 0.203367
H16   H     H_    0.306709 0.893389 0.519127 0.198781
H17   H     H_    0.604244 0.135144 0.419205 0.138172
H18   H     H_    0.520838 0.929210 0.408645 0.126305
C41   C     C_3   0.600177 0.079110 0.462099 0.042564
C42   C     C_3   0.575546 0.927584 0.450688 0.121786
C43   C     C_3   0.510631 0.075383 0.560277 0.108696
C44   C     C_3   0.524553 0.916815 0.558538 0.102583
N3    N     N_3   0.499750 0.138610 0.498760 -0.111684
N4    N     N_3   0.499750 0.861390 0.498760 -0.107419
H19   H     H_    0.422558 0.096283 0.583414 0.115937
H20   H     H_    0.453587 0.876611 0.589046 0.142522
I1    I     I_    0.250016 0.698400 0.635762 -0.268651
I2    I     I_    0.726436 0.462862 0.719061 -0.205045
C45   C     C_2   0.922221 0.675770 0.575683 0.536627
H21   H     H_    0.871709 0.612551 0.605953 0.066587
O13   O     O_2   0.963954 0.780993 0.594255 -0.488459
C46   C     C_2   0.878720 0.361287 0.595402 0.492109
H22   H     H_    0.787173 0.399652 0.602178 0.083507
O14   O     O_2   0.927109 0.289672 0.633495 -0.473267
C47   C     C_2   0.906072 0.568848 0.383345 0.430092
H23   H     H_    0.950461 0.665718 0.385456 0.104105
O15   O     O_2   0.836583 0.549950 0.341643 -0.542046
C48   C     C_2   0.879182 0.329563 0.406527 0.499328
H24   H     H_    0.783191 0.308677 0.412836 0.075452
O16   O     O_2   0.938804 0.251993 0.376607 -0.512205
I3    I     I_    0.628195 0.158564 0.629178 -0.153322
I4    I     I_    0.678192 0.828740 0.604676 -0.141533
I5    I     I_    0.784247 0.084687 0.498141 -0.251991
I6    I     I_    0.712638 0.823302 0.402429 -0.215158
I7    I     I_    0.361277 0.958608 0.065704 -0.223170
C49   C     C_2   0.359640 0.884511 0.928783 0.569717
H25   H     H_    0.431717 0.955157 0.939704 0.072609
O17   O     O_2   0.287130 0.913469 0.889008 -0.467276
C50   C     C_2   0.528516 0.366608 0.174964 0.553351
H26   H     H_    0.479408 0.332029 0.136389 0.054519
O18   O     O_2   0.640528 0.358219 0.175331 -0.481901
C51   C     C_2   0.608450 0.327154 0.300201 0.569450
H27   H     H_    0.675323 0.356381 0.332683 0.066227
O19   O     O_2   0.614560 0.214652 0.279557 -0.500642
I8    I     I_    0.135283 0.694234 0.241607 -0.158624
I9    I     I_    0.104197 0.581190 0.766655 -0.097416

loop_
_geom_bond_atom_site_label_1
_geom_bond_atom_site_label_2
_geom_bond_distance
_ccdc_geom_bond_type
C40   N4    1.509674 S    
C43   C44   1.582807 S    
C7    C10   1.403127 A    
C8    C9    1.409977 A    
C41   C42   1.556328 S    
C4    C27   1.489295 S    
C3    C37   1.524360 S    
C45   H21   1.077016 S    
Zn1   O7    1.930607 S    
C50   O18   1.220986 D    
C15   C16   1.412879 A    
N2    C18   1.368238 A    
H18   C42   1.118600 S    
C17   N2    1.364908 A    
N1    C30   1.431193 S    
C15   I7    2.157560 S    
C20   C21   1.413016 A    
O7    C4    1.308251 A    
C44   N4    1.493950 S    
C33   H9    1.104083 S    
C10   H1    1.083342 S    
C34   H10   1.096360 S    
C5    N1    1.369360 A    
C51   H27   1.075415 S    
C28   I2    2.104613 S    
C7    C8    1.414125 A    
H11   C35   1.114576 S    
O5    C3    1.317393 A    
C49   H25   1.085469 S    
C17   O11   1.349469 S    
C51   O19   1.221057 D    
N1    C6    1.363378 A    
C44   I4    2.138406 S    
Zn2   N3    2.051305 S    
C12   C13   1.412271 A    
C43   I3    2.186688 S    
C31   C33   1.531732 S    
C39   H15   1.111217 S    
C40   H16   1.113432 S    
C38   C48   1.524943 S    
C43   N3    1.520783 S    
C35   C38   1.581628 S    
C10   C11   1.391664 A    
N2    C24   1.434546 S    
H17   C41   1.111725 S    
C26   I1    2.112705 S    
O3    Zn1   1.944392 S    
C32   H6    1.114411 S    
C45   O13   1.222425 D    
C5    C9    1.411464 A    
C11   H2    1.082992 S    
C39   C40   1.615839 S    
C39   N3    1.508476 S    
C13   C14   1.412525 A    
O3    C2    1.310787 A    
C32   C36   1.549009 S    
C21   C22   1.400381 A    
C14   C15   1.419759 A    
C1    C36   1.462622 S    
O1    C1    1.299951 A    
C19   C24   1.417361 A    
C49   O17   1.221817 D    
C23   I8    2.119985 S    
C19   C50   1.490718 S    
C19   C20   1.417931 A    
C47   O15   1.222894 D    
C44   H20   1.111055 S    
C34   C37   1.583986 S    
C28   C29   1.393782 A    
C43   H19   1.115978 S    
Zn2   O8    1.944746 S    
C2    C21   1.467363 S    
H12   C35   1.113356 S    
C41   I5    2.157984 S    
C6    C7    1.400097 A    
C12   C17   1.397980 A    
C48   O16   1.222385 D    
C29   C30   1.394390 A    
C32   C34   1.528457 S    
C25   I9    2.140774 S    
Zn2   O6    2.053507 S    
C29   H4    1.083392 S    
C46   O14   1.221856 D    
C23   C24   1.400922 A    
C47   H23   1.080777 S    
C25   C26   1.404689 A    
C25   C30   1.396658 A    
C14   C18   1.410047 A    
Zn1   O5    2.049188 S    
C27   C28   1.410567 A    
C22   H3    1.084281 S    
O1    Zn1   2.054254 S    
O2    Zn2   2.049939 S    
C31   C36   1.545558 S    
C42   N4    1.513550 S    
C33   C37   1.593259 S    
O6    C3    1.313796 A    
C34   C46   1.498007 S    
O4    Zn2   1.930273 S    
C5    O9    1.349447 S    
C38   C47   1.525054 S    
C9    C16   1.422789 A    
C42   I6    2.131216 S    
C50   H26   1.082756 S    
C16   C49   1.483853 S    
C18   O12   1.346868 S    
O2    C1    1.304745 A    
O8    C4    1.324445 A    
O4    C2    1.309374 A    
C22   C23   1.386426 A    
C33   C45   1.512375 S    
C8    C13   1.408179 A    
C31   H7    1.102173 S    
C20   C51   1.480962 S    
C48   H24   1.076019 S    
C39   H13   1.112774 S    
C35   C36   1.550680 S    
C26   C27   1.418805 A    
C46   H22   1.077526 S    
C40   H14   1.113473 S    
C37   C38   1.618373 S    
C6    O10   1.349231 S    
C11   C12   1.403150 A    
C31   H5    1.110451 S    
C41   N3    1.502492 S    
C32   H8    1.111627 S    
Zn1   N4    2.050234 S    
