data_mof_unit_57141.cif
_audit_creation_date              2012-12-10T18:56:24-0500
_audit_creation_method            fapswitch 2.2
_symmetry_space_group_name_H-M    P1
_symmetry_Int_Tables_number       1
_space_group_crystal_system       triclinic
_cell_length_a                    10.636373
_cell_length_b                    9.815345
_cell_length_c                    19.367909
_cell_angle_alpha                 90.241577
_cell_angle_beta                  90.152861
_cell_angle_gamma                 90.920961
_cell_volume                      2021.71657682

loop_
_atom_site_label
_atom_site_type_symbol
_atom_type_description
_atom_site_fract_x
_atom_site_fract_y
_atom_site_fract_z
_atom_type_partial_charge
C1    C     C_R   0.871507 0.502528 0.500359 -0.401621
C2    C     C_R   0.127287 0.497424 0.500732 -0.408269
C3    C     C_R   0.384711 0.530437 0.965157 0.114410
C4    C     C_R   0.610214 0.473343 0.036582 0.117030
C5    C     C_R   0.387034 0.535030 0.037458 0.116405
C6    C     C_R   0.609305 0.474558 0.964222 0.117753
C7    C     C_R   0.499309 0.504687 0.072317 -0.034033
C8    C     C_R   0.496134 0.501373 0.929391 -0.033338
C9    C     C_R   0.259970 0.499028 0.499877 1.058710
C10   C     C_R   0.739571 0.500985 0.500650 1.043358
C11   C     C_R   0.500338 0.499936 0.365755 0.930981
C12   C     C_R   0.499001 0.500185 0.634657 0.904832
C13   C     C_R   0.061911 0.424033 0.449329 0.358741
C14   C     C_R   0.936168 0.566660 0.554690 0.360897
C15   C     C_R   0.932228 0.435813 0.446406 0.362223
C16   C     C_R   0.066393 0.572175 0.552342 0.355540
C17   C     C_R   0.505727 0.375697 0.747604 0.155062
C18   C     C_R   0.564968 0.606308 0.254738 0.137001
C19   C     C_R   0.436079 0.396851 0.253331 0.164928
C20   C     C_R   0.484125 0.624563 0.747871 0.178873
C21   C     C_R   0.507797 0.378161 0.819319 -0.227959
C22   C     C_R   0.566410 0.604604 0.183000 -0.223861
C23   C     C_R   0.434010 0.401418 0.181648 -0.229372
C24   C     C_R   0.480826 0.622342 0.819535 -0.230752
C25   C     C_R   0.494681 0.500486 0.854622 0.163204
C26   C     C_R   0.500070 0.503618 0.147077 0.164607
C27   C     C_R   0.591046 0.073887 0.534578 -0.064580
C28   C     C_R   0.409158 0.926161 0.465367 -0.104594
C29   C     C_R   0.409528 0.070104 0.465327 -0.094369
C30   C     C_R   0.591492 0.929823 0.534186 -0.073867
C31   C     C_R   0.496369 0.500254 0.710643 -0.131699
C32   C     C_R   0.500862 0.500605 0.290513 -0.124024
H1    H     H_    0.663538 0.130034 0.562391 0.129447
H2    H     H_    0.336687 0.870156 0.437474 0.118749
H3    H     H_    0.338327 0.123579 0.437389 0.146702
H4    H     H_    0.664838 0.876570 0.561223 0.149751
H5    H     H_    0.516608 0.283846 0.847761 0.138597
H6    H     H_    0.616934 0.683786 0.155141 0.141261
H7    H     H_    0.382709 0.323675 0.152696 0.140784
H8    H     H_    0.470948 0.716768 0.848145 0.140130
N1    N     N_R   0.500000 0.857200 0.500000 -0.069596
N2    N     N_R   0.500000 0.142800 0.500000 -0.072792
O1    O     O_R   0.316770 0.614620 0.500000 -0.625831
O2    O     O_R   0.683230 0.385380 0.500000 -0.614919
O3    O     O_R   0.683230 0.614620 0.500000 -0.612087
O4    O     O_R   0.316770 0.385380 0.500000 -0.613214
O5    O     O_R   0.500030 0.614710 0.398180 -0.613834
O6    O     O_R   0.499970 0.385290 0.601820 -0.609274
O7    O     O_R   0.499970 0.614710 0.601820 -0.577775
O8    O     O_R   0.500030 0.385290 0.398180 -0.583825
Zn1   Zn    Zn3+2 0.500000 0.653120 0.500000 0.975399
Zn2   Zn    Zn3+2 0.500000 0.346880 0.500000 0.978993
O9    O     O_3   0.126387 0.354748 0.398288 -0.591082
C33   C     C_3   0.101357 0.213583 0.404681 -0.253430
H9    H     H_    0.121485 0.176817 0.457848 0.135680
H10   H     H_    0.162691 0.158280 0.368317 0.156635
H11   H     H_    0.003334 0.186217 0.389933 0.206110
O10   O     O_3   0.872087 0.626973 0.608612 -0.600719
C34   C     C_3   0.857762 0.530478 0.661917 -0.299303
H12   H     H_    0.800125 0.440983 0.644582 0.140492
H13   H     H_    0.807591 0.578611 0.705574 0.181321
H14   H     H_    0.950485 0.496776 0.681752 0.189563
O11   O     O_3   0.863651 0.378507 0.392460 -0.589692
C35   C     C_3   0.862673 0.471836 0.337388 -0.296407
H15   H     H_    0.958274 0.485712 0.315094 0.189269
H16   H     H_    0.824854 0.571874 0.353852 0.148237
H17   H     H_    0.800243 0.430594 0.296069 0.188212
O12   O     O_3   0.135054 0.635911 0.604514 -0.588200
C36   C     C_3   0.131517 0.778307 0.594997 -0.206058
H18   H     H_    0.157733 0.808270 0.541451 0.137820
H19   H     H_    0.201059 0.827133 0.630438 0.169512
H20   H     H_    0.037589 0.818741 0.608150 0.183909
N3    N     N_2   0.512855 0.247225 0.713561 -0.284640
H21   H     H_    0.577320 0.182792 0.735468 0.211692
C37   C     C_3   0.391943 0.180370 0.703115 -0.747474
H22   H     H_    0.350958 0.149474 0.753522 0.215000
H23   H     H_    0.403755 0.088113 0.670585 0.230562
H24   H     H_    0.326021 0.249155 0.676198 0.254495
N4    N     N_2   0.631302 0.712216 0.290436 -0.293863
H25   H     H_    0.721608 0.726934 0.272321 0.207828
C38   C     C_3   0.564480 0.839301 0.293876 -0.738926
H26   H     H_    0.556644 0.884687 0.241592 0.215041
H27   H     H_    0.616466 0.911915 0.328038 0.239460
H28   H     H_    0.468717 0.822971 0.315387 0.252330
N5    N     N_2   0.368712 0.290660 0.287466 -0.265126
H29   H     H_    0.277011 0.281198 0.270406 0.239460
C39   C     C_3   0.431813 0.161159 0.286129 -0.782027
H30   H     H_    0.443764 0.125125 0.232093 0.218630
H31   H     H_    0.374716 0.083891 0.314210 0.218106
H32   H     H_    0.525416 0.170477 0.311466 0.271319
N6    N     N_2   0.474214 0.752573 0.714256 -0.266788
H33   H     H_    0.402048 0.810774 0.733264 0.221050
C40   C     C_3   0.591474 0.829133 0.711587 -0.783945
H34   H     H_    0.625247 0.854158 0.764576 0.218806
H35   H     H_    0.577209 0.925738 0.683382 0.228155
H36   H     H_    0.663975 0.769910 0.683989 0.272637
N7    N     N_2   0.272326 0.558327 0.927708 -0.298628
H37   H     H_    0.217678 0.633693 0.948626 0.229506
C41   C     C_3   0.199859 0.438764 0.907245 -0.798054
H38   H     H_    0.118604 0.469962 0.875219 0.237981
H39   H     H_    0.164017 0.384067 0.953457 0.223796
H40   H     H_    0.257963 0.368677 0.876071 0.254603
N8    N     N_2   0.722290 0.444313 0.074064 -0.302904
H41   H     H_    0.803962 0.482639 0.052594 0.229399
C42   C     C_3   0.733042 0.304068 0.095749 -0.811641
H42   H     H_    0.819219 0.293095 0.127591 0.238636
H43   H     H_    0.739365 0.235618 0.050115 0.226219
H44   H     H_    0.650987 0.272580 0.127507 0.256103
N9    N     N_2   0.276753 0.566315 0.075839 -0.299267
H45   H     H_    0.193891 0.527929 0.055394 0.229137
C43   C     C_3   0.268087 0.707449 0.096916 -0.807566
H46   H     H_    0.183331 0.720501 0.129470 0.236743
H47   H     H_    0.260488 0.774278 0.050996 0.225097
H48   H     H_    0.351731 0.739189 0.127747 0.255184
N10   N     N_2   0.720078 0.445211 0.925824 -0.301965
H49   H     H_    0.775935 0.371123 0.946782 0.229839
C44   C     C_3   0.791268 0.563886 0.903537 -0.812992
H50   H     H_    0.731543 0.632415 0.872539 0.254176
H51   H     H_    0.870876 0.531273 0.870741 0.235494
H52   H     H_    0.829389 0.620819 0.948859 0.228573

loop_
_geom_bond_atom_site_label_1
_geom_bond_atom_site_label_2
_ccdc_geom_bond_type
C39   H30   S    
C40   H34   S    
C29   N2    A    
N3    H21   S    
C11   O5    A    
C43   H46   S    
C12   O6    A    
C12   O7    A    
N5    H29   S    
C27   H1    S    
C42   H43   S    
C7    C26   S    
C28   C29   A    
C44   H51   S    
O3    Zn1   S    
N10   H49   S    
C22   H6    S    
C4    N8    S    
O4    Zn2   S    
C28   N1    A    
C23   C26   A    
C36   H19   S    
C2    C13   A    
N7    C41   S    
N8    C42   S    
C20   C24   A    
C18   N4    S    
N10   C44   S    
O8    Zn2   S    
C30   N1    A    
C1    C15   A    
C2    C16   A    
O2    Zn2   S    
C28   H2    S    
C34   H12   S    
C40   H35   S    
C27   C30   A    
C17   N3    S    
C8    C25   S    
N3    C37   S    
C4    C7    A    
C19   C32   A    
C38   H27   S    
N7    H37   S    
C13   O9    S    
N5    C39   S    
C14   O10   S    
C42   H44   S    
C33   H10   S    
C34   H13   S    
C9    O1    A    
C10   O2    A    
C35   H17   S    
C24   C25   A    
C4    C6    A    
C3    C8    A    
C44   H52   S    
N6    H33   S    
C5    C7    A    
O12   C36   S    
C6    C8    A    
O7    Zn1   S    
O10   C34   S    
O9    C33   S    
C38   H26   S    
N4    H25   S    
C35   H16   S    
C36   H20   S    
C19   C23   A    
C37   H22   S    
N6    C40   S    
C3    N7    S    
C41   H38   S    
O6    Zn2   S    
C10   O3    A    
C43   H47   S    
C37   H23   S    
C16   O12   S    
C41   H39   S    
C11   C32   S    
C40   H36   S    
C13   C15   A    
C12   C31   S    
C17   C31   A    
C14   C16   A    
C18   C32   A    
C3    C5    A    
C38   H28   S    
N4    C38   S    
C21   C25   A    
C33   H9    S    
C34   H14   S    
C18   C22   A    
C1    C10   S    
C19   N5    S    
O5    Zn1   S    
C20   C31   A    
C42   H42   S    
C29   H3    S    
C30   H4    S    
C35   H15   S    
N9    C43   S    
C11   O8    A    
N9    H45   S    
C27   N2    A    
O1    Zn1   S    
C5    N9    S    
C23   H7    S    
C24   H8    S    
C43   H48   S    
C36   H18   S    
C37   H24   S    
C17   C21   A    
C6    N10   S    
O11   C35   S    
C20   N6    S    
C9    O4    A    
C41   H40   S    
C21   H5    S    
C22   C26   A    
C39   H32   S    
N8    H41   S    
C39   H31   S    
C15   O11   S    
C1    C14   A    
C44   H50   S    
C2    C9    S    
N1    Zn1   S    
N2    Zn2   S    
C33   H11   S    
