data_mof_unit_13216.cif
_audit_creation_date              2013-03-05T16:42:23-0500
_audit_creation_method            fapswitch 2.2
_symmetry_space_group_name_H-M    P1
_symmetry_Int_Tables_number       1
_space_group_crystal_system       triclinic
_cell_length_a                    9.882171
_cell_length_b                    10.715353
_cell_length_c                    15.486668
_cell_angle_alpha                 90.048893
_cell_angle_beta                  68.336933
_cell_angle_gamma                 89.446004
_cell_volume                      1523.98467928

loop_
_atom_site_label
_atom_site_type_symbol
_atom_site_description
_atom_site_fract_x
_atom_site_fract_y
_atom_site_fract_z
_atom_type_partial_charge
O1    O     O_R   0.385310 0.683210 0.499990 -0.615433
O2    O     O_R   0.614650 0.683240 0.500000 -0.625137
C1    C     C_R   0.500530 0.740007 0.498360 0.938825
O3    O     O_R   0.319830 0.499970 0.632240 -0.609210
O4    O     O_R   0.549170 0.500000 0.632250 -0.615170
C2    C     C_R   0.409212 0.497300 0.675845 0.914784
Zn1   Zn    Zn3+2 0.346870 0.499980 0.499990 0.953006
Zn2   Zn    Zn3+2 0.653130 0.500020 0.500010 0.949455
O5    O     O_R   0.385350 0.316760 0.500000 -0.617599
O6    O     O_R   0.614690 0.316790 0.500010 -0.620055
O7    O     O_R   0.450830 0.500000 0.367750 -0.626968
O8    O     O_R   0.680170 0.500030 0.367760 -0.626870
C3    C     C_R   0.502250 0.260241 0.497022 0.878411
C4    C     C_R   0.590821 0.497628 0.324218 0.860618
C5    C     C_R   0.355746 0.473315 0.775536 -0.046413
C6    C     C_R   0.647541 0.485189 0.223362 -0.052242
C7    C     C_R   0.186450 0.377153 0.914119 -0.206708
C8    C     C_R   0.220301 0.418858 0.823116 -0.193985
C9    C     C_R   0.454588 0.486759 0.819403 -0.234932
C10   C     C_R   0.428977 0.435480 0.906425 0.095453
C11   C     C_R   0.289808 0.385966 0.956415 0.175745
C12   C     C_R   0.537330 0.436819 0.945712 0.073907
C13   C     C_R   0.496640 0.411607 0.041384 0.072272
C14   C     C_R   0.356988 0.361241 0.090304 -0.228151
C15   C     C_R   0.256481 0.346340 0.047530 -0.231232
C16   C     C_R   0.685111 0.461722 0.892135 -0.218020
C17   C     C_R   0.785950 0.478328 0.933924 -0.226310
C18   C     C_R   0.741720 0.473591 0.030152 0.174868
C19   C     C_R   0.596537 0.440166 0.084668 0.096216
C20   C     C_R   0.839559 0.505714 0.072870 -0.206567
C21   C     C_R   0.792742 0.511086 0.169314 -0.202255
C22   C     C_R   0.552195 0.447138 0.181140 -0.257707
H1    H     H_    0.151042 0.306847 0.086712 0.150106
H2    H     H_    0.440888 0.429647 0.224878 0.146438
H3    H     H_    0.868327 0.539325 0.201347 0.156168
H4    H     H_    0.897334 0.500352 0.891035 0.149734
H5    H     H_    0.081210 0.335682 0.950584 0.149519
H6    H     H_    0.143069 0.405511 0.789361 0.153109
H7    H     H_    0.552700 0.537386 0.783849 0.146995
H8    H     H_    0.324065 0.328836 0.160955 0.140133
H9    H     H_    0.726167 0.466147 0.817268 0.145409
H10   H     H_    0.950496 0.531287 0.031792 0.154110
C23   C     C_R   0.382179 0.939026 0.493123 0.012259
C24   C     C_R   0.506296 0.871831 0.487741 -0.044278
C25   C     C_R   0.639295 0.934019 0.466252 -0.208283
H11   H     H_    0.739905 0.883884 0.455747 0.163457
C26   C     C_R   0.640756 0.063302 0.464980 -0.206689
H12   H     H_    0.741748 0.110905 0.454613 0.166521
C27   C     C_R   0.509519 0.128997 0.483902 -0.059347
C28   C     C_R   0.385062 0.065814 0.488272 0.047116
C29   C     C_3   0.230263 0.081325 0.552618 -0.480274
C30   C     C_3   0.226055 0.939930 0.559732 0.142201
H13   H     H_    0.219665 0.130751 0.618091 0.225573
H14   H     H_    0.160484 0.119472 0.516470 0.178576
H15   H     H_    0.151059 0.897156 0.529859 0.081091
C31   C     C_R   0.882738 0.525300 0.579602 0.216414
N1    N     N_R   0.856900 0.500860 0.500610 -0.103354
C32   C     C_R   0.972621 0.464423 0.423434 -0.145016
H16   H     H_    0.954837 0.437544 0.361152 0.142969
C33   C     C_R   0.116347 0.464495 0.423403 -0.118236
H17   H     H_    0.205950 0.437272 0.360986 0.142191
N2    N     N_R   0.142540 0.500820 0.500610 -0.104059
C34   C     C_R   0.025000 0.522915 0.580024 0.162184
C35   C     C_3   0.999170 0.638576 0.636828 -0.424185
C36   C     C_3   0.847750 0.644442 0.633756 -0.489779
H18   H     H_    0.999648 0.620527 0.707410 0.213885
H19   H     H_    0.070253 0.714781 0.598569 0.226447
H20   H     H_    0.761355 0.634520 0.703317 0.198639
H21   H     H_    0.831533 0.724133 0.592481 0.219283
N3    N     N_R   0.201790 0.899010 0.654702 0.223517
O9    O     O_R   0.071917 0.909446 0.718178 -0.390535
O10   O     O_R   0.307638 0.858079 0.678281 -0.402605

loop_
_geom_bond_atom_site_label_1
_geom_bond_atom_site_label_2
_geom_bond_distance
_ccdc_geom_bond_type
O4    Zn2   1.922558 S    
Zn1   O7    1.922558 S    
C23   C24   1.391806 A    
Zn1   N2    2.015632 S    
N2    C34   1.362827 A    
C4    C6    1.457196 S    
Zn2   N1    2.017246 S    
C6    C22   1.394063 A    
C31   C36   1.492754 S    
C29   H13   1.113200 S    
C5    C8    1.400968 A    
C9    C10   1.390809 A    
C30   H15   1.110288 S    
Zn2   O8    1.965223 S    
C13   C14   1.418800 A    
C29   H14   1.111723 S    
C35   C36   1.515267 S    
C36   H20   1.106181 S    
C18   C20   1.403289 A    
C7    C8    1.397751 A    
C8    H6    1.082943 S    
C31   C34   1.408266 A    
C26   C27   1.401710 A    
C7    H5    1.083392 S    
C25   H11   1.083373 S    
C31   N1    1.364424 A    
C6    C21   1.399252 A    
C5    C9    1.388817 A    
C35   H18   1.111940 S    
N1    C32   1.367546 A    
O4    C2    1.296532 A    
C9    H7    1.074266 S    
O3    Zn1   1.965226 S    
C3    C27   1.418095 S    
C13   C19   1.418294 A    
C21   H3    1.083181 S    
O3    C2    1.294977 A    
C18   C19   1.419745 A    
C14   H8    1.078707 S    
C10   C12   1.413564 A    
C23   C30   1.506402 S    
C28   C29   1.493358 S    
C19   C22   1.394842 A    
O2    C1    1.284671 A    
C14   C15   1.392630 A    
C25   C26   1.385610 A    
C16   C17   1.386685 A    
C20   C21   1.391887 A    
C17   H4    1.083494 S    
O7    C4    1.296033 A    
C36   H21   1.112369 S    
C1    C24   1.421488 S    
C32   H16   1.081594 S    
C30   N3    1.468218 S    
C34   C35   1.483657 S    
C32   C33   1.420156 A    
C29   C30   1.519047 S    
C35   H19   1.102690 S    
O8    C4    1.294205 A    
N3    O9    1.300613 A    
C10   C11   1.414572 A    
C33   N2    1.370330 A    
C27   C28   1.389370 A    
C12   C16   1.416235 A    
C15   H1    1.084040 S    
C17   C18   1.390730 A    
Zn1   O5    1.996153 S    
O5    C3    1.284731 A    
C12   C13   1.411693 A    
C20   H10   1.082988 S    
C11   C15   1.393025 A    
O2    Zn2   1.996153 S    
C2    C5    1.459402 S    
O1    Zn1   2.003388 S    
N3    O10   1.301244 A    
Zn2   O6    2.003388 S    
C7    C11   1.406037 A    
C24   C25   1.405925 A    
C26   H12   1.083360 S    
C16   H9    1.079054 S    
C23   C28   1.360704 A    
C33   H17   1.079869 S    
O1    C1    1.288292 A    
O6    C3    1.286425 A    
C22   H2    1.076083 S    
