data_mof_unit_25476.cif
_audit_creation_date              2012-12-11T16:32:30-0500
_audit_creation_method            fapswitch 2.2
_symmetry_space_group_name_H-M    P1
_symmetry_Int_Tables_number       1
_space_group_crystal_system       triclinic
_cell_length_a                    6.940204
_cell_length_b                    14.385724
_cell_length_c                    15.943295
_cell_angle_alpha                 90.093794
_cell_angle_beta                  89.876947
_cell_angle_gamma                 90.136448
_cell_volume                      1591.76602438

loop_
_atom_site_label
_atom_site_type_symbol
_atom_type_description
_atom_site_fract_x
_atom_site_fract_y
_atom_site_fract_z
_atom_type_partial_charge
O1    O     O_R   0.361630 0.167340 0.164570 -0.540057
O2    O     O_R   0.638370 0.832660 0.835430 -0.540057
O3    O     O_R   0.690860 0.157560 0.338690 -0.544319
O4    O     O_R   0.309140 0.842440 0.661310 -0.544320
O5    O     O_R   0.861260 0.336420 0.339380 -0.538484
O6    O     O_R   0.138740 0.663580 0.660620 -0.538484
C1    C     C_R   0.521769 0.134564 0.367939 0.655921
C2    C     C_R   0.478231 0.865436 0.632061 0.655921
O7    O     O_R   0.691330 0.156310 0.165190 -0.542234
O8    O     O_R   0.308670 0.843690 0.834810 -0.542234
O9    O     O_R   0.861730 0.335160 0.164640 -0.541489
O10   O     O_R   0.138270 0.664840 0.835360 -0.541489
C3    C     C_R   0.522520 0.134219 0.136384 0.694550
C4    C     C_R   0.477480 0.865781 0.863615 0.694549
O11   O     O_R   0.361150 0.168600 0.339320 -0.538838
O12   O     O_R   0.638850 0.831400 0.660680 -0.538838
O13   O     O_3   0.527950 0.310560 0.252000 -0.361742
O14   O     O_3   0.472050 0.689440 0.748000 -0.361742
V1    V     V_3+5 0.802770 0.240990 0.251980 1.416955
V2    V     V_3+5 0.197230 0.759010 0.748020 1.416955
O15   O     O_R   0.191450 0.346190 0.165260 -0.525550
O16   O     O_R   0.808550 0.653810 0.834740 -0.525550
C5    C     C_R   0.022759 0.369992 0.138225 0.814793
C6    C     C_R   0.977241 0.630008 0.861775 0.814793
O17   O     O_R   0.190980 0.347440 0.338770 -0.533394
O18   O     O_R   0.809020 0.652560 0.661230 -0.533394
C7    C     C_R   0.022241 0.369073 0.368064 0.730195
C8    C     C_R   0.977758 0.630927 0.631936 0.730196
V3    V     V_3+5 0.302780 0.262760 0.251980 1.439217
V4    V     V_3+5 0.697220 0.737240 0.748020 1.439217
O19   O     O_3   0.027730 0.193200 0.251960 -0.376423
O20   O     O_3   0.972270 0.806800 0.748040 -0.376423
C9    C     C_3   0.928344 0.418071 0.525604 -0.168346
C10   C     C_3   0.071655 0.581928 0.474396 -0.168346
C11   C     C_3   0.101721 0.469359 0.565884 -0.131717
C12   C     C_3   0.898279 0.530641 0.434116 -0.131717
H1    H     H_    0.185391 0.444523 0.620692 0.113250
H2    H     H_    0.814609 0.555477 0.379308 0.113250
H3    H     H_    0.869419 0.350053 0.546339 0.093617
H4    H     H_    0.130580 0.649947 0.453661 0.093617
C13   C     C_3   0.988233 0.561045 0.561910 -0.002464
C14   C     C_3   0.011767 0.438955 0.438090 -0.002464
C15   C     C_3   0.814688 0.510566 0.522438 -0.120690
C16   C     C_3   0.185312 0.489434 0.477562 -0.120690
H5    H     H_    0.661821 0.519506 0.541384 0.107304
H6    H     H_    0.338179 0.480494 0.458616 0.107303
H7    H     H_    0.841160 0.302351 0.766845 0.105460
H8    H     H_    0.158840 0.697649 0.233155 0.105460
C17   C     C_R   0.062838 0.692796 0.026268 -0.160015
C18   C     C_R   0.937162 0.307204 0.973732 -0.160015
C19   C     C_R   0.108517 0.727630 0.104788 -0.143488
C20   C     C_R   0.891482 0.272370 0.895212 -0.143488
C21   C     C_R   0.123946 0.668236 0.172459 -0.207399
C22   C     C_R   0.876054 0.331764 0.827541 -0.207399
C23   C     C_R   0.093195 0.572085 0.163017 0.333666
C24   C     C_R   0.906805 0.427915 0.836983 0.333666
C25   C     C_R   0.047318 0.534300 0.082147 0.044082
C26   C     C_R   0.952681 0.465700 0.917853 0.044082
C27   C     C_R   0.032863 0.596350 0.012852 -0.015270
C28   C     C_R   0.967137 0.403650 0.987148 -0.015270
C29   C     C_R   0.013484 0.437514 0.068458 -0.171729
C30   C     C_R   0.986516 0.562486 0.931542 -0.171729
H9    H     H_    0.050122 0.743246 0.976395 0.117262
H10   H     H_    0.949878 0.256754 0.023605 0.117262
H11   H     H_    0.131112 0.801563 0.113301 0.145950
H12   H     H_    0.868887 0.198437 0.886699 0.145950
C31   C     C_3   0.406014 0.968243 0.432249 -0.142665
C32   C     C_3   0.593986 0.031757 0.567751 -0.142665
C33   C     C_3   0.580271 0.919983 0.474556 -0.140644
C34   C     C_3   0.419729 0.080017 0.525444 -0.140644
H13   H     H_    0.646778 0.853886 0.453295 0.092727
H14   H     H_    0.353222 0.146114 0.546705 0.092727
H15   H     H_    0.328399 0.941794 0.376229 0.098934
H16   H     H_    0.671601 0.058206 0.623771 0.098934
C35   C     C_3   0.488982 0.937304 0.561557 -0.007773
C36   C     C_3   0.511018 0.062696 0.438443 -0.007773
C37   C     C_3   0.314542 0.984931 0.519867 -0.112968
C38   C     C_3   0.685458 0.015069 0.480133 -0.112969
H17   H     H_    0.160975 0.972693 0.536142 0.103110
H18   H     H_    0.839025 0.027307 0.463858 0.103110
H19   H     H_    0.658603 0.820722 0.241749 0.109249
H20   H     H_    0.341397 0.179278 0.758251 0.109249
C39   C     C_R   0.430464 0.190545 0.967144 -0.145499
C40   C     C_R   0.569536 0.809455 0.032856 -0.145499
C41   C     C_R   0.386221 0.219994 0.886241 -0.099699
C42   C     C_R   0.613779 0.780006 0.113759 -0.099699
C43   C     C_R   0.375091 0.155970 0.821055 -0.140369
C44   C     C_R   0.624909 0.844030 0.178945 -0.140369
C45   C     C_R   0.408073 0.061969 0.836263 -0.147337
C46   C     C_R   0.591926 0.938031 0.163737 -0.147337
C47   C     C_R   0.452403 0.029859 0.917848 0.069442
C48   C     C_R   0.547597 0.970141 0.082152 0.069442
C49   C     C_R   0.464245 0.095496 0.984634 0.055380
C50   C     C_R   0.535754 0.904504 0.015366 0.055380
C51   C     C_R   0.487880 0.934357 0.933246 -0.185182
C52   C     C_R   0.512120 0.065643 0.066754 -0.185182
H21   H     H_    0.439327 0.243268 0.015464 0.111424
H22   H     H_    0.560673 0.756732 0.984536 0.111423
H23   H     H_    0.361143 0.292988 0.874042 0.129074
H24   H     H_    0.638857 0.707012 0.125958 0.129073
H25   H     H_    0.399497 0.015051 0.783283 0.099056
H26   H     H_    0.600503 0.984949 0.216717 0.099056
O21   O     O_3   0.106495 0.515488 0.232534 -0.663813
H27   H     H_    0.146225 0.552678 0.282010 0.268981
O22   O     O_3   0.893505 0.484512 0.767466 -0.663813
H28   H     H_    0.853775 0.447322 0.717990 0.268981

loop_
_geom_bond_atom_site_label_1
_geom_bond_atom_site_label_2
_ccdc_geom_bond_type
C26   C30   A    
C41   C43   A    
C17   H9    S    
O13   V3    S    
C12   C14   S    
C31   C37   S    
O4    C2    A    
V1    O19   S    
C32   C35   S    
O9    V1    S    
C9    H3    S    
C10   H4    S    
C9    C14   S    
C11   H1    S    
C36   C38   S    
O3    C1    A    
C42   C44   A    
C25   C27   A    
C32   H16   S    
H20   C43   S    
C39   C49   A    
C23   O21   S    
C8    C13   S    
C48   C52   A    
C18   H10   S    
C19   H11   S    
C33   H13   S    
O7    C3    A    
C46   H26   S    
C9    C11   S    
O5    C7    A    
O7    V1    S    
O6    C8    A    
C16   H6    S    
C17   C19   A    
C18   C20   A    
O3    V1    S    
C31   H15   S    
C45   C47   A    
C42   H24   S    
O14   V2    S    
C37   H17   S    
C2    O12   A    
C34   C37   S    
C32   C38   S    
C13   C15   S    
C33   C38   S    
C10   C13   S    
C14   C16   S    
C11   C13   S    
O1    V3    S    
C20   C22   A    
O11   V3    S    
C21   C23   A    
O17   V3    S    
H8    C21   S    
C22   C24   A    
C3    C52   S    
C9    C15   S    
C10   C16   S    
O8    C4    A    
O8    V2    S    
C1    O11   A    
O15   V3    S    
C2    C35   S    
C28   C29   A    
C31   C33   S    
C41   H23   S    
C47   C49   A    
C15   H5    S    
C46   C48   A    
O10   V2    S    
C48   C50   A    
C40   C50   A    
C11   C16   S    
C35   C37   S    
H7    C22   S    
O14   V4    S    
C39   C41   A    
C44   C46   A    
O18   V4    S    
C49   C52   A    
C23   C25   A    
C34   C36   S    
O16   C6    A    
O1    C3    A    
O12   V4    S    
C12   H2    S    
C4    C51   S    
C20   H12   S    
V2    O20   S    
C27   C30   A    
C6    C30   S    
O16   V4    S    
C45   H25   S    
C40   C42   A    
C25   C29   A    
C1    C36   S    
O5    V1    S    
O17   C7    A    
O6    V2    S    
O22   H28   S    
O10   C6    A    
O18   C8    A    
C17   C27   A    
O2    V4    S    
C40   H22   S    
O15   C5    A    
C18   C28   A    
V3    O19   S    
V4    O20   S    
C7    C14   S    
O9    C5    A    
O13   V1    S    
C10   C12   S    
C24   C26   A    
C33   C35   S    
C38   H18   S    
C50   C51   A    
O2    C4    A    
C24   O22   S    
H19   C44   S    
C47   C51   A    
O4    V2    S    
C5    C29   S    
C32   C34   S    
C39   H21   S    
O21   H27   S    
C43   C45   A    
C12   C15   S    
C34   H14   S    
C31   C36   S    
C19   C21   A    
C26   C28   A    
