data_mof_unit_14980.cif
_audit_creation_date              2013-03-05T16:10:40-0500
_audit_creation_method            fapswitch 2.2
_symmetry_space_group_name_H-M    P1
_symmetry_Int_Tables_number       1
_space_group_crystal_system       triclinic
_cell_length_a                    9.962539
_cell_length_b                    10.627027
_cell_length_c                    15.482187
_cell_angle_alpha                 91.312622
_cell_angle_beta                  68.048262
_cell_angle_gamma                 89.992467
_cell_volume                      1519.82832966

loop_
_atom_site_label
_atom_site_type_symbol
_atom_site_description
_atom_site_fract_x
_atom_site_fract_y
_atom_site_fract_z
_atom_type_partial_charge
O1    O     O_R   0.385370 0.683250 0.500010 -0.591116
O2    O     O_R   0.614630 0.316750 0.499990 -0.595361
O3    O     O_R   0.614700 0.683220 0.500000 -0.537943
O4    O     O_R   0.385300 0.316780 0.500000 -0.538565
C1    C     C_R   0.500967 0.739363 0.498611 0.950290
C2    C     C_R   0.499276 0.260595 0.500960 0.937034
O5    O     O_R   0.319830 0.500020 0.632250 -0.554231
O6    O     O_R   0.680170 0.499980 0.367750 -0.573404
O7    O     O_R   0.549160 0.499990 0.632240 -0.601539
O8    O     O_R   0.450840 0.500010 0.367760 -0.602205
C3    C     C_R   0.409250 0.497259 0.675619 0.890674
C4    C     C_R   0.590927 0.497969 0.324237 0.889476
Zn1   Zn    Zn3+2 0.346870 0.500020 0.500000 1.096982
Zn2   Zn    Zn3+2 0.653130 0.499980 0.500000 1.085646
C5    C     C_R   0.355602 0.472545 0.775001 -0.047213
C6    C     C_R   0.648511 0.490726 0.222645 -0.056144
C7    C     C_R   0.203876 0.354267 0.906812 -0.139372
C8    C     C_R   0.838955 0.524250 0.073316 -0.127988
C9    C     C_R   0.233315 0.399183 0.817734 -0.067179
C10   C     C_R   0.792576 0.519385 0.169907 -0.090953
C11   C     C_R   0.445808 0.502322 0.822136 -0.192451
C12   C     C_R   0.555429 0.455708 0.178212 -0.193638
C13   C     C_R   0.429831 0.444535 0.905542 0.082844
C14   C     C_R   0.600299 0.456664 0.081349 0.082970
C15   C     C_R   0.304060 0.372212 0.950571 0.020999
C16   C     C_R   0.741092 0.501374 0.028512 0.021133
C17   C     C_R   0.536760 0.457582 0.944557 0.019859
C18   C     C_R   0.503976 0.422373 0.037082 0.014819
C19   C     C_R   0.378827 0.350125 0.081426 -0.238108
C20   C     C_R   0.677075 0.500975 0.892518 -0.221660
C21   C     C_R   0.282893 0.319676 0.037438 0.274479
C22   C     C_R   0.779401 0.521567 0.932762 0.287296
H1    H     H_    0.444603 0.434917 0.220626 0.190757
H2    H     H_    0.531665 0.568194 0.790277 0.186094
H3    H     H_    0.867749 0.542513 0.203343 0.198666
H4    H     H_    0.164117 0.372063 0.781004 0.228259
H5    H     H_    0.104941 0.302578 0.939187 0.200702
H6    H     H_    0.950593 0.548195 0.034952 0.190751
H7    H     H_    0.360058 0.307464 0.147544 0.212853
H8    H     H_    0.711823 0.516334 0.818754 0.199922
C23   C     C_R   0.615803 0.934911 0.431024 0.417412
C24   C     C_R   0.384308 0.064881 0.567688 0.418489
C25   C     C_R   0.613320 0.064287 0.433310 -0.174800
C26   C     C_R   0.387040 0.935681 0.565548 -0.168821
H9    H     H_    0.698771 0.115101 0.381159 0.237834
H10   H     H_    0.301459 0.885113 0.617670 0.239582
C27   C     C_R   0.498573 0.128107 0.501339 -0.194085
C28   C     C_R   0.501822 0.871816 0.497734 -0.200595
C29   C     C_R   0.955537 0.407663 0.453166 0.210808
C30   C     C_R   0.045142 0.593903 0.545226 0.235484
C31   C     C_R   0.099099 0.408494 0.452502 0.330390
C32   C     C_R   0.900753 0.591330 0.547579 0.329633
N1    N     N_R   0.142780 0.500030 0.500020 -0.201673
N2    N     N_R   0.857220 0.499970 0.499980 -0.204031
N3    N     N_R   0.168544 0.232146 0.080656 0.207682
O9    O     O_R   0.147333 0.138051 0.032124 -0.328293
O10   O     O_R   0.107267 0.230306 0.170963 -0.278694
N4    N     N_R   0.918311 0.568963 0.875358 0.200073
O11   O     O_R   0.976287 0.530319 0.788945 -0.372783
O12   O     O_R   0.969118 0.669644 0.901208 -0.326516
Cl1   Cl    Cl    0.758598 0.855735 0.341948 -0.501347
Cl2   Cl    Cl    0.240133 0.143349 0.656052 -0.535037
N5    N     N_R   0.913221 0.307589 0.405875 0.263473
O13   O     O_R   0.921256 0.191662 0.428910 -0.287111
O14   O     O_R   0.887917 0.330017 0.331235 -0.340675
N6    N     N_R   0.090242 0.700344 0.585431 0.258462
O15   O     O_R   0.078969 0.812866 0.557265 -0.299847
O16   O     O_R   0.129020 0.687339 0.656003 -0.292423
Cl3   Cl    Cl    0.224471 0.295741 0.382611 -0.472603
Cl4   Cl    Cl    0.774966 0.703199 0.618286 -0.463419

loop_
_geom_bond_atom_site_label_1
_geom_bond_atom_site_label_2
_geom_bond_distance
_ccdc_geom_bond_type
C15   C21   1.409725 A    
C30   C32   1.425544 A    
O7    Zn2   1.918087 S    
N5    O14   1.298510 A    
C16   C22   1.407426 A    
C29   N5    1.428296 S    
C14   C18   1.415522 A    
C23   Cl1   1.764465 S    
C25   H9    1.083718 S    
C24   Cl2   1.763053 S    
Zn1   N1    2.033139 S    
C8    C16   1.410252 A    
C22   N4    1.435220 S    
O6    C4    1.300743 A    
C7    C15   1.411098 A    
C19   H7    1.080061 S    
N3    O9    1.301328 A    
C13   C15   1.420724 A    
N6    O15   1.301199 A    
C8    H6    1.080564 S    
O3    C1    1.287987 A    
C20   H8    1.078730 S    
C19   C21   1.399490 A    
C7    H5    1.080674 S    
C17   C20   1.411034 A    
C20   C22   1.394291 A    
O7    C3    1.302207 A    
O2    C2    1.290250 A    
O3    Zn2   1.984528 S    
C24   C26   1.372672 A    
O1    C1    1.290139 A    
O8    C4    1.303266 A    
C12   C14   1.395845 A    
C6    C10   1.398111 A    
C7    C9    1.394129 A    
C23   C28   1.400296 A    
C14   C16   1.422141 A    
C32   N2    1.371160 A    
O5    C3    1.301318 A    
C8    C10   1.392644 A    
C9    H4    1.080435 S    
N3    O10   1.300383 A    
C11   C13   1.397356 A    
O2    Zn2   1.984664 S    
C1    C28   1.407950 S    
O6    Zn2   1.962785 S    
C5    C11   1.385687 A    
C30   N1    1.374764 A    
O1    Zn1   1.984664 S    
N6    O16   1.297929 A    
C31   N1    1.372421 A    
N4    O12   1.301206 A    
C29   N2    1.372363 A    
Zn2   N2    2.033139 S    
C4    C6    1.459021 S    
C3    C5    1.458005 S    
O5    Zn1   1.962783 S    
C24   C27   1.400027 A    
C32   Cl4   1.759666 S    
C23   C25   1.374512 A    
O4    C2    1.287989 A    
C2    C27   1.408108 S    
C17   C18   1.404812 A    
C12   H1    1.078760 S    
C18   C19   1.414130 A    
C30   N6    1.430331 S    
C11   H2    1.079583 S    
C31   Cl3   1.759663 S    
C21   N3    1.438624 S    
N4    O11   1.299673 A    
C5    C9    1.396789 A    
C10   H3    1.083208 S    
C25   C27   1.393911 A    
C26   H10   1.082815 S    
C13   C17   1.412879 A    
C26   C28   1.392880 A    
O4    Zn1   1.984528 S    
C6    C12   1.391763 A    
N5    O13   1.301069 A    
C29   C31   1.426458 A    
O8    Zn1   1.918089 S    
