data_mof_unit_51204.cif
_audit_creation_date              2012-12-10T17:58:56-0500
_audit_creation_method            fapswitch 2.2
_symmetry_space_group_name_H-M    P1
_symmetry_Int_Tables_number       1
_space_group_crystal_system       triclinic
_cell_length_a                    9.603021
_cell_length_b                    10.858491
_cell_length_c                    13.80341
_cell_angle_alpha                 91.878583
_cell_angle_beta                  82.709717
_cell_angle_gamma                 90.285589
_cell_volume                      1426.93765643

loop_
_atom_site_label
_atom_site_type_symbol
_atom_type_description
_atom_site_fract_x
_atom_site_fract_y
_atom_site_fract_z
_atom_type_partial_charge
C1    C     C_R   0.500701 0.737704 0.500732 0.830465
C2    C     C_R   0.498778 0.262411 0.501772 0.823958
C3    C     C_R   0.496168 0.128491 0.504756 -0.163569
C4    C     C_R   0.502170 0.871826 0.502695 -0.159192
C5    C     C_R   0.475159 0.500134 0.683226 0.817690
C6    C     C_R   0.524880 0.499860 0.316785 0.818034
C7    C     C_R   0.910474 0.557257 0.573482 -0.058064
C8    C     C_R   0.090143 0.439696 0.428315 -0.084789
C9    C     C_R   0.058194 0.561078 0.573172 0.226976
C10   C     C_R   0.943609 0.443852 0.423825 0.226452
C11   C     C_1   0.542982 0.498204 0.212713 -0.199643
C12   C     C_1   0.457765 0.498423 0.787228 -0.192464
C13   C     C_2   0.564380 0.492665 0.019309 0.364072
C14   C     C_2   0.443543 0.492078 0.979126 0.383085
C15   C     C_1   0.448571 0.496044 0.874665 -0.013064
C16   C     C_1   0.554790 0.496065 0.125065 -0.094835
C17   C     C_R   0.628089 0.938783 0.505633 0.459032
C18   C     C_R   0.369901 0.061611 0.503904 0.458735
C19   C     C_R   0.622330 0.066805 0.509888 -0.372549
C20   C     C_R   0.374995 0.933625 0.501165 -0.374623
Cu1   Cu    Cu3+1 0.359340 0.499980 0.500000 0.935738
Cu2   Cu    Cu3+1 0.640660 0.500020 0.500000 0.948057
H1    H     H_    0.842578 0.605122 0.631031 0.165523
H2    H     H_    0.159869 0.391787 0.371850 0.157092
H3    H     H_    0.717317 0.117945 0.517703 0.181441
H4    H     H_    0.278685 0.882671 0.497011 0.182485
N1    N     N_R   0.147930 0.499970 0.499980 -0.191750
N2    N     N_R   0.852070 0.500030 0.500020 -0.184637
O1    O     O_R   0.381260 0.680340 0.500000 -0.613539
O2    O     O_R   0.618740 0.319660 0.500000 -0.583377
O3    O     O_R   0.618830 0.680370 0.500010 -0.531211
O4    O     O_R   0.381170 0.319630 0.499990 -0.531431
O5    O     O_R   0.364420 0.499960 0.637840 -0.586263
O6    O     O_R   0.635580 0.500040 0.362160 -0.585745
O7    O     O_R   0.601990 0.499990 0.637850 -0.571540
O8    O     O_R   0.398010 0.500010 0.362150 -0.574114
C21   C     C_3   0.108208 0.638797 0.654868 -0.373344
C22   C     C_3   0.081875 0.574125 0.752407 -0.840146
H5    H     H_    0.127836 0.480152 0.746066 0.264749
H6    H     H_    0.130076 0.628286 0.809173 0.244290
H7    H     H_    0.967430 0.566411 0.776481 0.248108
H8    H     H_    0.218324 0.666793 0.639872 0.251093
H9    H     H_    0.049834 0.727537 0.662347 0.157740
C23   C     C_3   0.903345 0.395930 0.325839 -0.341006
C24   C     C_3   0.829810 0.270676 0.328530 -0.756244
H10   H     H_    0.856024 0.217200 0.390695 0.226512
H11   H     H_    0.714962 0.280979 0.331314 0.257311
H12   H     H_    0.864944 0.216187 0.260311 0.203754
H13   H     H_    0.851570 0.466581 0.287538 0.207593
H14   H     H_    0.999892 0.381805 0.272981 0.133729
O9    O     O_3   0.314485 0.503902 0.036292 -0.633666
C25   C     C_3   0.258874 0.385863 0.058898 0.044174
H15   H     H_    0.177179 0.398631 0.122952 0.173152
H16   H     H_    0.338708 0.322310 0.081764 0.123011
C26   C     C_3   0.190950 0.327763 0.973366 -0.369812
H17   H     H_    0.132543 0.399120 0.939374 0.225546
H18   H     H_    0.273967 0.290152 0.916914 0.206308
C27   C     C_3   0.090756 0.223632 0.006866 -0.924491
H19   H     H_    0.147727 0.150748 0.040492 0.260617
H20   H     H_    0.045471 0.182591 0.943053 0.255636
H21   H     H_    0.003567 0.259434 0.060918 0.247646
O10   O     O_3   0.691465 0.488673 0.956958 -0.634839
C28   C     C_3   0.812643 0.498681 0.005279 0.069734
H22   H     H_    0.901675 0.463279 0.952997 0.172375
H23   H     H_    0.807936 0.439188 0.069791 0.137728
C29   C     C_3   0.843391 0.633697 0.031427 -0.384022
H24   H     H_    0.848820 0.688872 0.964615 0.230438
H25   H     H_    0.757978 0.671734 0.085734 0.219975
C30   C     C_3   0.982081 0.646359 0.073842 -0.872304
H26   H     H_    0.980614 0.590007 0.139700 0.249880
H27   H     H_    0.999150 0.744295 0.094913 0.250995
H28   H     H_    0.070253 0.616243 0.018397 0.287426
O11   O     O_3   0.754054 0.878796 0.511305 -0.597925
C31   C     C_3   0.854834 0.909612 0.431801 0.049468
H29   H     H_    0.903228 0.000181 0.447210 0.143025
H30   H     H_    0.807625 0.913167 0.362047 0.134979
C32   C     C_3   0.970282 0.812025 0.418903 -0.310125
H31   H     H_    0.016988 0.805366 0.488149 0.205143
H32   H     H_    0.924021 0.721310 0.401349 0.231021
C33   C     C_3   0.085841 0.843079 0.336959 -0.922791
H33   H     H_    0.042240 0.846947 0.266349 0.253503
H34   H     H_    0.168255 0.770807 0.330388 0.270380
H35   H     H_    0.134505 0.933268 0.353031 0.273560
O12   O     O_3   0.243652 0.121358 0.499319 -0.596847
C34   C     C_3   0.148054 0.097477 0.583372 0.044929
H36   H     H_    0.200726 0.097715 0.651040 0.131373
H37   H     H_    0.096434 0.006764 0.573803 0.143185
C35   C     C_3   0.035672 0.197835 0.596366 -0.300966
H38   H     H_    0.085645 0.287990 0.610565 0.237535
H39   H     H_    0.986035 0.203313 0.528292 0.212948
C36   C     C_3   0.922328 0.172306 0.681162 -0.927570
H40   H     H_    0.869323 0.083240 0.667999 0.267971
H41   H     H_    0.842709 0.246978 0.687958 0.272165
H42   H     H_    0.969067 0.169202 0.750649 0.252958

loop_
_geom_bond_atom_site_label_1
_geom_bond_atom_site_label_2
_ccdc_geom_bond_type
C23   H13   S    
C29   H25   S    
C26   H17   S    
C28   H23   S    
O11   C31   S    
Cu1   O8    S    
C34   H36   S    
C23   C24   S    
Cu2   O7    S    
C21   C22   S    
C31   H30   S    
C22   H5    S    
C34   C35   S    
C29   C30   S    
Cu1   O5    S    
C27   H20   S    
C1    O3    A    
C3    C18   A    
C2    O4    A    
C21   H8    S    
C30   H27   S    
C23   H14   S    
C17   C19   A    
C13   O10   S    
C31   C32   S    
C5    O5    A    
C18   O12   S    
C12   C15   T    
C3    C19   A    
C25   C26   S    
C32   H31   S    
C27   H21   S    
C24   H11   S    
C29   H24   S    
Cu1   N1    S    
C28   C29   S    
Cu2   N2    S    
C13   C14   D    
C17   O11   S    
C33   H35   S    
C9    C21   S    
C25   H16   S    
C32   H32   S    
Cu2   O6    S    
Cu1   O4    S    
C31   H29   S    
C34   H37   S    
C10   C23   S    
O9    C25   S    
O12   C34   S    
C22   H7    S    
C33   H34   S    
Cu2   O3    S    
C36   H40   S    
C24   H12   S    
C27   H19   S    
C24   H10   S    
Cu1   O1    S    
C7    N2    A    
C6    O6    A    
C21   H9    S    
C30   H28   S    
O10   C28   S    
C36   H41   S    
C11   C16   T    
C14   O9    S    
C35   C36   S    
C1    O1    A    
C5    C12   S    
C4    C17   A    
C35   H39   S    
C26   H18   S    
C13   C16   S    
C6    C11   S    
C25   H15   S    
C9    N1    A    
C32   C33   S    
C10   N2    A    
C7    C9    A    
Cu2   O2    S    
C33   H33   S    
C2    O2    A    
C1    C4    S    
C2    C3    S    
C36   H42   S    
C22   H6    S    
C20   H4    S    
C7    H1    S    
C5    O7    A    
C8    H2    S    
C6    O8    A    
C18   C20   A    
C30   H26   S    
C19   H3    S    
C28   H22   S    
C4    C20   A    
C35   H38   S    
C8    C10   A    
C26   C27   S    
C8    N1    A    
C14   C15   S    
Cu1   Cu2   S    
