data_mof_unit_25919.cif
_audit_creation_date              2013-03-05T16:19:20-0500
_audit_creation_method            fapswitch 2.2
_symmetry_space_group_name_H-M    P1
_symmetry_Int_Tables_number       1
_space_group_crystal_system       triclinic
_cell_length_a                    10.614978
_cell_length_b                    9.752723
_cell_length_c                    23.390614
_cell_angle_alpha                 89.180022
_cell_angle_beta                  90.807167
_cell_angle_gamma                 90.092723
_cell_volume                      2421.02124428

loop_
_atom_site_label
_atom_site_type_symbol
_atom_site_description
_atom_site_fract_x
_atom_site_fract_y
_atom_site_fract_z
_atom_type_partial_charge
O1    O     O_R   0.314910 0.616040 0.499990 -0.640605
O2    O     O_R   0.314910 0.383960 0.499990 -0.627037
C1    C     C_R   0.258407 0.499526 0.503491 0.927027
O3    O     O_R   0.500080 0.616070 0.416130 -0.632763
O4    O     O_R   0.500080 0.383930 0.416130 -0.634914
C2    C     C_R   0.499836 0.500989 0.389273 0.860711
Zn1   Zn    Zn3+2 0.500150 0.654960 0.499970 0.954854
Zn2   Zn    Zn3+2 0.500150 0.345040 0.499970 0.968626
O5    O     O_R   0.685320 0.616040 0.499970 -0.621948
O6    O     O_R   0.685320 0.383960 0.499970 -0.598321
O7    O     O_R   0.500150 0.616010 0.583820 -0.590539
O8    O     O_R   0.500150 0.383990 0.583820 -0.585415
C3    C     C_R   0.742286 0.500010 0.502562 0.908849
C4    C     C_R   0.499745 0.499618 0.610406 0.912070
C5    C     C_R   0.592289 0.557338 0.880036 0.526840
N1    N     N_R   0.485047 0.520237 0.851272 -0.361136
C6    C     C_R   0.375851 0.488392 0.878865 0.547830
C7    C     C_R   0.369771 0.497543 0.938740 -0.137188
C8    C     C_R   0.482571 0.527586 0.969109 -0.056080
C9    C     C_R   0.594244 0.558735 0.939559 -0.006920
C10   C     C_R   0.257308 0.472763 0.969492 0.333490
C11   C     C_R   0.261769 0.467836 0.029223 -0.211621
C12   C     C_R   0.374346 0.492798 0.059233 -0.074943
C13   C     C_R   0.484622 0.525067 0.029236 -0.016346
C14   C     C_R   0.597532 0.553555 0.059348 -0.011314
C15   C     C_R   0.707213 0.586297 0.029355 -0.137511
C16   C     C_R   0.705518 0.589172 0.969962 -0.111580
C17   C     C_R   0.379163 0.488458 0.118980 0.534027
N2    N     N_R   0.489753 0.515374 0.147247 -0.361068
C18   C     C_R   0.597775 0.547845 0.119014 0.508778
O9    O     O_2   0.696828 0.592008 0.850893 -0.534413
O10   O     O_2   0.275831 0.443302 0.848271 -0.512972
H1    H     H_    0.175520 0.447727 0.052146 0.221895
O11   O     O_2   0.274378 0.458461 0.148746 -0.544652
O12   O     O_2   0.704969 0.573526 0.148741 -0.546239
H2    H     H_    0.794799 0.608976 0.051618 0.203440
H3    H     H_    0.792050 0.613642 0.947995 0.221231
C19   C     C_R   0.488524 0.385082 0.237023 -0.096917
H4    H     H_    0.483540 0.290407 0.213460 0.140955
C20   C     C_R   0.491584 0.381240 0.296402 -0.226292
H5    H     H_    0.488437 0.282668 0.318271 0.151863
C21   C     C_R   0.498152 0.504000 0.326937 -0.037594
C22   C     C_R   0.501953 0.630324 0.297417 -0.222714
H6    H     H_    0.507038 0.726398 0.320007 0.152252
C23   C     C_R   0.499062 0.633724 0.238128 -0.099372
H7    H     H_    0.501853 0.731251 0.215448 0.139989
C24   C     C_R   0.492254 0.511274 0.208032 0.316729
C25   C     C_R   0.412626 0.602372 0.757422 -0.098142
H8    H     H_    0.352393 0.676421 0.777606 0.154560
C26   C     C_R   0.416493 0.596930 0.698298 -0.184511
H9    H     H_    0.358943 0.667202 0.672951 0.175423
C27   C     C_R   0.494457 0.501349 0.672108 -0.035938
C28   C     C_R   0.571080 0.413857 0.705101 -0.176677
H10   H     H_    0.637187 0.346029 0.685175 0.210899
C29   C     C_R   0.566733 0.418657 0.764317 -0.085134
H11   H     H_    0.625988 0.350721 0.789923 0.166731
C30   C     C_R   0.487544 0.513041 0.790497 0.289029
C31   C     C_3   0.072663 0.617660 0.543980 0.356929
C32   C     C_3   0.072153 0.354373 0.525992 0.320220
H12   H     H_    0.097612 0.713834 0.520394 0.116126
H13   H     H_    0.096737 0.278931 0.492351 0.082400
C33   C     C_3   0.927060 0.617787 0.543851 -0.464520
C34   C     C_3   0.928069 0.361191 0.529439 -0.442236
H14   H     H_    0.885413 0.609271 0.586945 0.188092
H15   H     H_    0.896284 0.348062 0.574245 0.209059
H16   H     H_    0.893861 0.718344 0.526307 0.203473
H17   H     H_    0.889063 0.273748 0.504708 0.173422
H18   H     H_    0.106047 0.623926 0.426853 0.196452
H19   H     H_    0.106994 0.443175 0.414822 0.195952
H20   H     H_    0.891752 0.621285 0.425098 0.189464
H21   H     H_    0.892602 0.438899 0.415260 0.187669
C35   C     C_3   0.071930 0.523566 0.443960 -0.593638
C36   C     C_3   0.122155 0.498087 0.505926 0.019706
C37   C     C_3   0.878730 0.500359 0.504877 0.029766
C38   C     C_3   0.927460 0.522442 0.443366 -0.428019
C39   C     C_3   0.386364 0.081949 0.468770 -0.350972
C40   C     C_3   0.380708 0.919587 0.473740 -0.364730
H22   H     H_    0.386434 0.113766 0.422872 0.178433
H23   H     H_    0.362332 0.875502 0.430816 0.185523
H24   H     H_    0.299537 0.126266 0.486373 0.161933
H25   H     H_    0.299109 0.888963 0.500444 0.156002
H26   H     H_    0.613075 0.127711 0.424052 0.145621
H27   H     H_    0.584823 0.893590 0.417337 0.144200
C41   C     C_3   0.609352 0.081251 0.467707 -0.244850
C42   C     C_3   0.601973 0.920416 0.462912 -0.251649
C43   C     C_3   0.497819 0.076796 0.558182 0.236788
C44   C     C_3   0.510973 0.915640 0.557958 0.228305
N3    N     N_3   0.499750 0.138610 0.498760 -0.087680
N4    N     N_3   0.499750 0.861390 0.498760 -0.101323
H28   H     H_    0.403584 0.099845 0.576044 0.045216
H29   H     H_    0.430097 0.873967 0.582708 0.070641
H30   H     H_    0.699768 0.109755 0.488325 0.209418
H31   H     H_    0.694055 0.872576 0.473235 0.197887
N5    N     N_R   0.136776 0.459524 0.941503 0.243722
O13   O     O_R   0.094381 0.559331 0.909135 -0.350197
O14   O     O_R   0.059231 0.363728 0.957873 -0.368074
O15   O     O_3   0.136054 0.633531 0.597834 -0.656180
C45   C     C_3   0.092817 0.550754 0.643820 0.149236
H32   H     H_    0.172956 0.486739 0.659465 0.186330
H33   H     H_    0.015275 0.479831 0.632981 0.169659
C46   C     C_3   0.051191 0.641932 0.692644 -0.458074
H34   H     H_    0.131649 0.706591 0.706815 0.238393
H35   H     H_    0.973627 0.710183 0.677409 0.259568
C47   C     C_3   0.005618 0.556526 0.743511 -0.756423
H36   H     H_    0.922701 0.493602 0.730876 0.254045
H37   H     H_    0.977647 0.625560 0.778461 0.306417
H38   H     H_    0.082054 0.488004 0.759698 0.287297
O16   O     O_3   0.128502 0.314468 0.578983 -0.661422
C48   C     C_3   0.112693 0.172746 0.590227 0.045060
H39   H     H_    0.161454 0.111196 0.557751 0.125032
H40   H     H_    0.011277 0.143668 0.590359 0.182999
C49   C     C_3   0.169444 0.139117 0.649120 -0.312562
H41   H     H_    0.268808 0.175034 0.651201 0.244707
H42   H     H_    0.115804 0.193888 0.682280 0.230673
C50   C     C_3   0.165405 0.985397 0.661822 -0.894612
H43   H     H_    0.066414 0.948321 0.660823 0.281919
H44   H     H_    0.206536 0.964239 0.704958 0.271318
H45   H     H_    0.220657 0.928779 0.629811 0.260169
N6    N     N_R   0.588639 0.136948 0.598581 0.245897
O17   O     O_R   0.694587 0.190240 0.582243 -0.407200
O18   O     O_R   0.571333 0.116399 0.653004 -0.398022
N7    N     N_R   0.626748 0.867915 0.587930 0.254879
O19   O     O_R   0.737917 0.904011 0.570445 -0.428935
O20   O     O_R   0.618036 0.815587 0.639224 -0.353978

loop_
_geom_bond_atom_site_label_1
_geom_bond_atom_site_label_2
_geom_bond_distance
_ccdc_geom_bond_type
C31   C33   1.545539 S    
C19   C20   1.388795 A    
C29   H11   1.082923 S    
C34   H15   1.111137 S    
C46   H34   1.110507 S    
C44   H29   1.115107 S    
C7    C10   1.420988 A    
C8    C9    1.411078 A    
C47   H37   1.110395 S    
O15   C45   1.416780 S    
C25   C30   1.398433 A    
C28   H10   1.080169 S    
Zn1   O7    1.992404 S    
C40   N4    1.494445 S    
C15   C16   1.388984 A    
C18   O12   1.350078 S    
N2    C24   1.421673 S    
C17   N2    1.366102 A    
C39   H22   1.113252 S    
C48   H40   1.112836 S    
C19   H4    1.082920 S    
O7    C4    1.286518 A    
C43   N3    1.507481 S    
C10   N5    1.435455 S    
C31   H12   1.114791 S    
C50   H43   1.110748 S    
Zn1   N4    2.013060 S    
O16   C48   1.413446 S    
C7    C8    1.415983 A    
C23   C24   1.396167 A    
O5    C3    1.284164 A    
C47   H36   1.111197 S    
C33   H14   1.108343 S    
C42   H31   1.105889 S    
C41   C42   1.575924 S    
C4    C27   1.445468 S    
N1    C6    1.367753 A    
C50   H44   1.110470 S    
C26   C27   1.400811 A    
C12   C13   1.406140 A    
C43   N6    1.467946 S    
C32   C36   1.565981 S    
H18   C35   1.114003 S    
N6    O18   1.301374 A    
C17   O11   1.349991 S    
C46   H35   1.111151 S    
C10   C11   1.397438 A    
C31   O15   1.429987 S    
C35   C38   1.533436 S    
C49   H42   1.111951 S    
C49   H41   1.111485 S    
C26   H9    1.083474 S    
C28   C29   1.387984 A    
C5    C9    1.392405 A    
C34   H17   1.113360 S    
C32   H13   1.118742 S    
C37   C38   1.547825 S    
C33   H16   1.113511 S    
C39   H24   1.105835 S    
C13   C14   1.410857 A    
O3    C2    1.294000 A    
C43   H28   1.113949 S    
C48   C49   1.527232 S    
C42   N4    1.490545 S    
C43   C44   1.578222 S    
O3    Zn1   2.002722 S    
C14   C15   1.401807 A    
C23   H7    1.083002 S    
O1    C1    1.286152 A    
C34   C37   1.555013 S    
H19   C35   1.114074 S    
C22   H6    1.083167 S    
N2    C18   1.365791 A    
C44   N7    1.478742 S    
C40   H25   1.112953 S    
Zn2   O8    2.003079 S    
C50   H45   1.111201 S    
C6    C7    1.407017 A    
C40   H23   1.112444 S    
C12   C17   1.397762 A    
C39   C40   1.587180 S    
N5    O14   1.301230 A    
C25   C26   1.385904 A    
C22   C23   1.386641 A    
C19   C24   1.397420 A    
C15   H2    1.083269 S    
C20   H5    1.083182 S    
H27   C42   1.113700 S    
O8    C4    1.295594 A    
C46   C47   1.526435 S    
H26   C41   1.112386 S    
C44   N4    1.492508 S    
C21   C22   1.404458 A    
N7    O20   1.301534 A    
C27   C28   1.396747 A    
C14   C18   1.395898 A    
Zn1   O5    2.002494 S    
C11   H1    1.083686 S    
C39   N3    1.493727 S    
C25   H8    1.083047 S    
O1    Zn1   2.002021 S    
O2    Zn2   2.003230 S    
C41   N3    1.493858 S    
C35   C36   1.554076 S    
O6    C3    1.284145 A    
O4    Zn2   1.992064 S    
N6    O17   1.298278 A    
C5    O9    1.350514 S    
C9    C16   1.403656 A    
C45   C46   1.527975 S    
C32   C34   1.534299 S    
C32   O16   1.418327 S    
C29   C30   1.400726 A    
C8    C13   1.406135 A    
C48   H39   1.109241 S    
H21   C38   1.113756 S    
O4    C2    1.295160 A    
C16   H3    1.083400 S    
C20   C21   1.403984 A    
O2    C1    1.281784 A    
N1    C30   1.424927 S    
C49   C50   1.524824 S    
N5    O13   1.301517 A    
C1    C36   1.448273 S    
C45   H33   1.103421 S    
C3    C37   1.448605 S    
Zn2   O6    2.001288 S    
C45   H32   1.110732 S    
C2    C21   1.457820 S    
H20   C38   1.113713 S    
C6    O10   1.348633 S    
C11   C12   1.400124 A    
C33   C37   1.555839 S    
C41   H30   1.104956 S    
Zn2   N3    2.013856 S    
N7    O19   1.300717 A    
C47   H38   1.110912 S    
C5    N1    1.365113 A    
C31   C36   1.572622 S    
