data_mof_unit_21729.cif
_audit_creation_date              2012-12-10T19:49:26-0500
_audit_creation_method            fapswitch 2.2
_symmetry_space_group_name_H-M    P1
_symmetry_Int_Tables_number       1
_space_group_crystal_system       triclinic
_cell_length_a                    15.132843
_cell_length_b                    14.270118
_cell_length_c                    14.796533
_cell_angle_alpha                 89.998897
_cell_angle_beta                  90.094613
_cell_angle_gamma                 90.001375
_cell_volume                      3195.26929042

loop_
_atom_site_label
_atom_site_type_symbol
_atom_type_description
_atom_site_fract_x
_atom_site_fract_y
_atom_site_fract_z
_atom_type_partial_charge
C1    C     C_R   0.327492 0.500649 0.503703 1.051720
C2    C     C_R   0.815361 0.426393 0.448050 0.218238
C3    C     C_R   0.817599 0.581071 0.524976 0.342965
C4    C     C_R   0.184628 0.426413 0.551920 0.217790
C5    C     C_R   0.230673 0.503113 0.511029 -0.416831
C6    C     C_R   0.769323 0.503129 0.488877 -0.416856
C7    C     C_R   0.047692 0.495035 0.501664 -0.183866
C8    C     C_R   0.952299 0.495031 0.498286 -0.183927
C9    C     C_R   0.529636 0.104180 0.425572 -0.402230
C10   C     C_R   0.512689 0.895946 0.579486 -0.383314
C11   C     C_R   0.470365 0.104176 0.574429 -0.402178
C12   C     C_R   0.672507 0.500653 0.496264 1.051843
C13   C     C_R   0.487316 0.895948 0.420513 -0.383560
C14   C     C_R   0.524834 0.203948 0.423317 0.630343
C15   C     C_R   0.508000 0.797016 0.579628 0.561377
C16   C     C_R   0.475163 0.203945 0.576681 0.630314
C17   C     C_R   0.492000 0.797019 0.420371 0.561125
C18   C     C_R   0.500001 0.053245 0.500001 0.117578
C19   C     C_R   0.500003 0.947307 0.500000 0.075700
C20   C     C_R   0.494978 0.500046 0.327194 0.970858
C21   C     C_R   0.505014 0.500046 0.672806 0.970916
C22   C     C_R   0.585836 0.497786 0.816869 0.374982
C23   C     C_R   0.338864 0.545929 0.042750 0.416889
C24   C     C_R   0.414167 0.497722 0.183124 0.375129
C25   C     C_R   0.506064 0.501825 0.768672 -0.209902
C26   C     C_R   0.493933 0.501821 0.231328 -0.209897
C27   C     C_R   0.425913 0.520732 0.810189 -0.198849
C28   C     C_R   0.574078 0.520773 0.189813 -0.198805
C29   C     C_R   0.421092 0.529325 0.903377 -0.052919
C30   C     C_R   0.578900 0.529363 0.096623 -0.052941
C31   C     C_R   0.501160 0.527273 0.953013 -0.090953
C32   C     C_R   0.498834 0.527271 0.046985 -0.091003
C33   C     C_R   0.583800 0.522607 0.908697 -0.170838
C34   C     C_R   0.661122 0.546019 0.957250 0.416828
C35   C     C_R   0.416197 0.522555 0.091299 -0.170807
C36   C     C_R   0.339534 0.544165 0.947898 0.340192
C37   C     C_R   0.660453 0.544241 0.052103 0.340252
C38   C     C_3   0.276083 0.675417 0.103516 0.144135
C39   C     C_3   0.193753 0.714507 0.148365 -0.661136
C40   C     C_3   0.723840 0.675541 0.896465 0.144212
C41   C     C_3   0.806169 0.714680 0.851646 -0.661304
C42   C     C_3   0.025030 0.614840 0.329376 0.102464
C43   C     C_3   0.991312 0.699893 0.277917 -0.654187
C44   C     C_3   0.995610 0.366530 0.336944 0.162309
C45   C     C_R   0.091905 0.570795 0.461798 0.380187
C46   C     C_3   0.035859 0.277062 0.299228 -0.636294
C47   C     C_3   0.974885 0.614989 0.670490 0.102511
C48   C     C_3   0.008517 0.700102 0.721913 -0.654339
C49   C     C_3   0.004389 0.366663 0.663103 0.162336
C50   C     C_3   0.964125 0.277231 0.700890 -0.636187
C51   C     C_3   0.546496 0.203761 0.265199 0.104260
C52   C     C_3   0.548349 0.270124 0.184786 -0.703068
C53   C     C_3   0.443064 0.764617 0.715945 0.158353
C54   C     C_3   0.471167 0.765144 0.814681 -0.840765
C55   C     C_3   0.453511 0.203760 0.734799 0.104253
C56   C     C_R   0.907627 0.424218 0.451176 0.349548
C57   C     C_3   0.451660 0.270128 0.815205 -0.703098
C58   C     C_3   0.556908 0.764623 0.284039 0.158434
C59   C     C_3   0.528782 0.765146 0.185308 -0.840721
C60   C     C_R   0.908091 0.570837 0.538065 0.380182
C61   C     C_R   0.092362 0.424252 0.548815 0.349630
C62   C     C_R   0.182409 0.581013 0.474825 0.343006
H1    H     H_    0.367757 0.526713 0.768142 0.231107
H2    H     H_    0.820212 0.489435 0.226870 0.369167
H3    H     H_    0.333114 0.688557 0.149394 0.149178
H4    H     H_    0.286338 0.713991 0.038829 0.130097
H5    H     H_    0.200031 0.791620 0.156059 0.195555
H6    H     H_    0.134453 0.698781 0.106736 0.262859
H7    H     H_    0.185878 0.683033 0.216300 0.282837
H8    H     H_    0.666823 0.688628 0.850556 0.149226
H9    H     H_    0.713533 0.714120 0.961138 0.130015
H10   H     H_    0.814105 0.683178 0.783732 0.282743
H11   H     H_    0.799840 0.791783 0.843910 0.195526
H12   H     H_    0.632228 0.526789 0.231863 0.231121
H13   H     H_    0.865456 0.699024 0.893319 0.262885
H14   H     H_    0.971701 0.561631 0.327883 0.104942
H15   H     H_    0.084439 0.586954 0.294088 0.162674
H16   H     H_    0.041899 0.756226 0.278232 0.260519
H17   H     H_    0.976511 0.680123 0.206887 0.224427
H18   H     H_    0.929934 0.726612 0.309954 0.279991
H19   H     H_    0.050725 0.416642 0.346328 0.116710
H20   H     H_    0.948397 0.395282 0.286274 0.152368
H21   H     H_    0.983655 0.223880 0.287071 0.271144
H22   H     H_    0.069748 0.292370 0.234361 0.223401
H23   H     H_    0.556943 0.065264 0.369699 0.144217
H24   H     H_    0.084917 0.248330 0.347818 0.244638
H25   H     H_    0.028233 0.561804 0.672073 0.105092
H26   H     H_    0.915453 0.587107 0.705746 0.162690
H27   H     H_    0.957906 0.756408 0.721497 0.260529
H28   H     H_    0.023256 0.680402 0.792976 0.224318
H29   H     H_    0.069916 0.726826 0.689917 0.279935
H30   H     H_    0.949285 0.416782 0.653695 0.116723
H31   H     H_    0.051620 0.395438 0.713744 0.152319
H32   H     H_    0.016318 0.224048 0.713080 0.271126
H33   H     H_    0.930245 0.292596 0.765748 0.223422
H34   H     H_    0.525695 0.931806 0.642597 0.174798
H35   H     H_    0.915056 0.248473 0.652326 0.244665
H36   H     H_    0.308175 0.793833 0.527295 0.359904
H37   H     H_    0.767892 0.238977 0.499560 0.359389
H38   H     H_    0.691800 0.793778 0.472146 0.359813
H39   H     H_    0.232152 0.239243 0.500236 0.359284
H40   H     H_    0.484815 0.161406 0.259792 0.101919
H41   H     H_    0.605798 0.158052 0.260056 0.174301
H42   H     H_    0.607490 0.315931 0.187771 0.306878
H43   H     H_    0.550708 0.229068 0.121089 0.192939
H44   H     H_    0.487795 0.313620 0.183862 0.235518
H45   H     H_    0.443057 0.065257 0.630302 0.144219
H46   H     H_    0.395999 0.705954 0.704912 0.208371
H47   H     H_    0.406670 0.831283 0.702891 0.116369
H48   H     H_    0.514278 0.826556 0.828190 0.240030
H49   H     H_    0.508203 0.700367 0.830919 0.256056
H50   H     H_    0.412018 0.769144 0.858844 0.233449
H51   H     H_    0.515200 0.161419 0.740200 0.101927
H52   H     H_    0.394218 0.158037 0.739955 0.174302
H53   H     H_    0.392511 0.315921 0.812223 0.306894
H54   H     H_    0.449315 0.229077 0.878907 0.192956
H55   H     H_    0.512209 0.313636 0.816116 0.235455
H56   H     H_    0.474307 0.931811 0.357402 0.174857
H57   H     H_    0.603972 0.705960 0.295062 0.208497
H58   H     H_    0.593306 0.831290 0.297082 0.116321
H59   H     H_    0.587924 0.769106 0.141132 0.233436
H60   H     H_    0.485702 0.826579 0.171796 0.240029
H61   H     H_    0.491709 0.700386 0.169092 0.256065
H62   H     H_    0.647376 0.308213 0.724679 0.354692
H63   H     H_    0.352666 0.308046 0.275350 0.354729
H64   H     H_    0.179854 0.489341 0.773088 0.369194
N1    N     N_R   0.500000 0.252470 0.500000 -0.148861
N2    N     N_R   0.500000 0.747530 0.500000 -0.163912
O1    O     O_R   0.369060 0.579480 0.500010 -0.565184
O2    O     O_2   0.740460 0.404018 0.837854 -0.265365
O3    O     O_3   0.658319 0.366124 0.689581 -0.552803
O4    O     O_2   0.265133 0.524264 0.278827 -0.281268
O5    O     O_2   0.259691 0.403723 0.162051 -0.265497
O6    O     O_3   0.341758 0.365988 0.310410 -0.552857
O7    O     O_2   0.160964 0.575832 0.947599 -0.220826
O8    O     O_2   0.249142 0.646162 0.826882 -0.371667
O9    O     O_3   0.219498 0.466849 0.821812 -0.514078
O10   O     O_2   0.839017 0.575941 0.052402 -0.220900
O11   O     O_2   0.750831 0.646262 0.173113 -0.371599
O12   O     O_R   0.630940 0.420520 0.499990 -0.527546
O13   O     O_3   0.780496 0.466955 0.178201 -0.514141
O14   O     O_3   0.265019 0.578328 0.087951 -0.498006
O15   O     O_3   0.734956 0.578463 0.912057 -0.497987
O16   O     O_3   0.044121 0.641193 0.419269 -0.501564
O17   O     O_3   0.953009 0.346084 0.419718 -0.524524
O18   O     O_3   0.955871 0.641259 0.580558 -0.501616
O19   O     O_3   0.046970 0.346149 0.580335 -0.524486
O20   O     O_2   0.294753 0.686992 0.374815 -0.251072
O21   O     O_2   0.161741 0.766421 0.426770 -0.235512
O22   O     O_3   0.282573 0.732527 0.544590 -0.564306
O23   O     O_R   0.630940 0.579480 0.499990 -0.565090
O24   O     O_2   0.686669 0.378548 0.332668 -0.268584
O25   O     O_2   0.818763 0.282808 0.323958 -0.257750
O26   O     O_3   0.717125 0.258752 0.461770 -0.506458
O27   O     O_2   0.705440 0.687332 0.624898 -0.251073
O28   O     O_2   0.838373 0.766605 0.572484 -0.235254
O29   O     O_3   0.717331 0.732402 0.454979 -0.564495
O30   O     O_2   0.313315 0.378577 0.667319 -0.268665
O31   O     O_2   0.181209 0.282847 0.676042 -0.257494
O32   O     O_3   0.282853 0.258762 0.538242 -0.506314
O33   O     O_3   0.549413 0.255262 0.347089 -0.515696
O34   O     O_R   0.369060 0.420520 0.500010 -0.527619
O35   O     O_3   0.518592 0.750909 0.660813 -0.556771
O36   O     O_3   0.450572 0.255256 0.652905 -0.515698
O37   O     O_3   0.481392 0.750913 0.339189 -0.556679
O38   O     O_R   0.499980 0.579490 0.367850 -0.599659
O39   O     O_R   0.500020 0.420510 0.632150 -0.532342
O40   O     O_R   0.500020 0.579490 0.632150 -0.599696
O41   O     O_R   0.499980 0.420510 0.367850 -0.532296
O42   O     O_2   0.734759 0.524530 0.721050 -0.281375
S1    S     S_3+6 0.683032 0.448543 0.766758 0.025802
S2    S     S_3+6 0.317003 0.448350 0.233187 0.025854
S3    S     S_3+6 0.239036 0.561515 0.886508 0.020873
S4    S     S_3+6 0.760947 0.561614 0.113494 0.020837
S5    S     S_3+6 0.229966 0.694211 0.451341 0.082957
S6    S     S_3+6 0.759627 0.335553 0.387446 0.084201
S7    S     S_3+6 0.770092 0.694336 0.548232 0.082958
S8    S     S_3+6 0.240353 0.335579 0.612547 0.084263
Zn1   Zn    Zn3+2 0.500000 0.606140 0.500000 1.098831
Zn2   Zn    Zn3+2 0.500000 0.393860 0.500000 1.167170

loop_
_geom_bond_atom_site_label_1
_geom_bond_atom_site_label_2
_ccdc_geom_bond_type
H63   O6    S    
C59   H59   S    
C30   C32   A    
C11   C18   A    
C40   H9    S    
C27   C29   A    
C34   C37   A    
C39   H6    S    
C3    C6    A    
C28   H12   S    
C8    C56   A    
C13   H56   S    
C7    C8    S    
C57   H53   S    
C53   C54   S    
C16   O36   S    
C43   H16   S    
O1    Zn1   S    
C29   C36   A    
C54   H48   S    
C21   O40   A    
C40   H8    S    
C1    C5    S    
N1    Zn2   S    
C7    C45   A    
C15   O35   S    
O5    S2    D    
C24   C26   A    
C55   O36   S    
C1    O1    A    
C10   C15   A    
C6    C12   S    
C38   C39   S    
C50   H33   S    
H2    O13   S    
C51   H41   S    
H37   O26   S    
C45   C62   A    
C49   O19   S    
C18   C19   S    
O28   S7    D    
C56   O17   S    
C58   O37   S    
C7    C61   A    
C2    S6    S    
C37   S4    S    
H38   O29   S    
C38   H4    S    
H39   O32   S    
C39   H5    S    
C48   H29   S    
O10   S4    D    
C45   O16   S    
C5    C62   A    
C31   C33   A    
C23   O14   S    
C51   O33   S    
O2    S1    D    
O41   Zn2   S    
O34   Zn2   S    
C22   S1    S    
C9    H23   S    
C3    C60   A    
C59   H60   S    
C20   O41   A    
C47   O18   S    
C52   H44   S    
C36   S3    S    
O6    S2    S    
C38   O14   S    
C12   O23   A    
C2    C6    A    
C60   O18   S    
C44   C46   S    
C44   H20   S    
C33   C34   A    
C57   H54   S    
C59   H61   S    
C34   O15   S    
O30   S8    D    
O20   S5    D    
C13   C19   A    
C51   C52   S    
C24   C35   A    
C32   C35   A    
C44   H19   S    
C50   H32   S    
C55   H51   S    
C58   C59   S    
C4    C61   A    
C22   C25   A    
C14   N1    A    
C30   C37   A    
C51   H40   S    
C47   H25   S    
C9    C14   A    
O9    S3    S    
C41   H13   S    
C11   C16   A    
O23   Zn1   S    
C47   C48   S    
O25   S6    D    
C38   H3    S    
C10   H34   S    
C10   C19   A    
H64   O9    S    
O3    S1    S    
C58   H58   S    
C44   O17   S    
C39   H7    S    
C54   H50   S    
N2    Zn1   S    
O29   S7    S    
O32   S8    S    
C27   H1    S    
C41   H10   S    
C46   H22   S    
C40   C41   S    
C1    O34   A    
C49   C50   S    
C23   C35   A    
C12   O12   A    
C55   C57   S    
C42   O16   S    
O13   S4    S    
C42   C43   S    
O31   S8    D    
O7    S3    D    
C57   H55   S    
H36   O22   S    
C53   H47   S    
C22   C33   A    
C21   C25   S    
O8    S3    D    
C52   H42   S    
C50   H35   S    
C48   H28   S    
C26   C28   A    
C31   C32   A    
C53   O35   S    
O12   Zn2   S    
C4    S8    S    
C4    C5    A    
C52   H43   S    
C17   N2    A    
C55   H52   S    
O26   S6    S    
C25   C27   A    
O40   Zn1   S    
C20   O38   A    
C42   H14   S    
C21   O39   A    
C13   C17   A    
C15   N2    A    
C49   H31   S    
C47   H26   S    
C14   O33   S    
C28   C30   A    
C61   O19   S    
C29   C31   A    
C2    C56   A    
C8    C60   A    
C11   H45   S    
C53   H46   S    
C20   C26   S    
C62   S5    S    
C58   H57   S    
C43   H18   S    
C54   H49   S    
O22   S5    S    
C3    S7    S    
C24   S2    S    
C16   N1    A    
O39   Zn2   S    
O4    S2    D    
C41   H11   S    
C46   H21   S    
O24   S6    D    
C9    C18   A    
H62   O3    S    
C42   H15   S    
C23   C36   A    
O42   S1    D    
C40   O15   S    
O11   S4    D    
C17   O37   S    
O38   Zn1   S    
C49   H30   S    
O21   S5    D    
C43   H17   S    
C48   H27   S    
O27   S7    D    
C46   H24   S    
