data_mof_unit_54681.cif
_audit_creation_date              2012-12-10T20:27:56-0500
_audit_creation_method            fapswitch 2.2
_symmetry_space_group_name_H-M    P1
_symmetry_Int_Tables_number       1
_space_group_crystal_system       triclinic
_cell_length_a                    12.908683
_cell_length_b                    10.648364
_cell_length_c                    9.896906
_cell_angle_alpha                 89.486558
_cell_angle_beta                  96.578995
_cell_angle_gamma                 90.865451
_cell_volume                      1351.2442482

loop_
_atom_site_label
_atom_site_type_symbol
_atom_type_description
_atom_site_fract_x
_atom_site_fract_y
_atom_site_fract_z
_atom_type_partial_charge
C1    C     C_R   0.498497 0.260275 0.500447 0.884668
C2    C     C_R   0.028072 0.497884 0.560702 0.164119
C3    C     C_R   0.971015 0.513842 0.430474 0.150675
C4    C     C_R   0.863503 0.518935 0.422988 -0.295892
C5    C     C_R   0.870550 0.489575 0.668051 -0.206055
C6    C     C_R   0.977955 0.487076 0.678313 -0.216726
C7    C     C_R   0.531675 0.063420 0.617672 0.126092
C8    C     C_R   0.489449 0.128305 0.502463 -0.097319
C9    C     C_R   0.433461 0.064759 0.393538 -0.229915
C10   C     C_R   0.433242 0.934770 0.393282 -0.217351
C11   C     C_R   0.490363 0.871354 0.500899 -0.096868
C12   C     C_R   0.298388 0.499940 0.473730 0.894638
C13   C     C_R   0.532470 0.935455 0.616539 0.140171
C14   C     C_3   0.640220 0.929855 0.689630 -0.499412
C15   C     C_3   0.639309 0.072155 0.691363 -0.488856
C16   C     C_R   0.433327 0.422788 0.062001 0.185051
C17   C     C_R   0.558263 0.586142 0.077347 0.129567
C18   C     C_R   0.558154 0.584111 0.933884 -0.157983
C19   C     C_R   0.433301 0.422940 0.919794 0.207261
C20   C     C_3   0.429081 0.283130 0.914537 -0.495876
C21   C     C_3   0.429100 0.282893 0.067932 -0.515208
C22   C     C_R   0.498796 0.739680 0.499593 0.874113
C23   C     C_R   0.701650 0.501637 0.525993 0.871015
C24   C     C_R   0.813622 0.504248 0.540279 -0.049616
C25   C     C_R   0.186528 0.502221 0.457336 -0.082552
C26   C     C_R   0.023439 0.522424 0.312277 0.095136
C27   C     C_R   0.131679 0.516517 0.328107 -0.249657
C28   C     C_R   0.134907 0.492208 0.572659 -0.288201
H1    H     H_    0.817610 0.533143 0.325999 0.164724
H2    H     H_    0.697532 0.891179 0.625747 0.196102
H3    H     H_    0.639866 0.111101 0.795254 0.200899
H4    H     H_    0.696351 0.116646 0.628882 0.200914
H5    H     H_    0.606972 0.649098 0.883916 0.148283
H6    H     H_    0.354744 0.247516 0.859363 0.199313
H7    H     H_    0.500781 0.242551 0.881442 0.215780
H8    H     H_    0.354553 0.247366 0.100950 0.193489
H9    H     H_    0.500731 0.241829 0.123112 0.220257
H10   H     H_    0.832260 0.478477 0.759336 0.162815
H11   H     H_    0.021733 0.475057 0.777709 0.133854
H12   H     H_    0.173327 0.524688 0.239266 0.163396
H13   H     H_    0.177812 0.479989 0.672687 0.164440
H14   H     H_    0.393422 0.115014 0.307943 0.158115
H15   H     H_    0.392136 0.884614 0.308259 0.155353
H16   H     H_    0.641493 0.886628 0.792326 0.198601
N1    N     N_R   0.499290 0.499140 0.142710 -0.123798
N2    N     N_R   0.499290 0.499180 0.857070 -0.119754
O1    O     O_R   0.500010 0.316790 0.614690 -0.617541
O2    O     O_R   0.500000 0.316760 0.385350 -0.619423
O3    O     O_R   0.346360 0.499990 0.595720 -0.620929
O4    O     O_R   0.346350 0.499960 0.366370 -0.626818
O5    O     O_R   0.500000 0.683240 0.614650 -0.616161
O6    O     O_R   0.499990 0.683210 0.385310 -0.634219
O7    O     O_R   0.653650 0.500040 0.633630 -0.623406
O8    O     O_R   0.653640 0.500010 0.404280 -0.646190
Zn1   Zn    Zn3+2 0.500010 0.500020 0.653130 0.938825
Zn2   Zn    Zn3+2 0.499990 0.499980 0.346870 0.927050
C29   C     C_3   0.627696 0.684782 0.151297 -0.401962
C30   C     C_3   0.584500 0.817010 0.122400 -0.348253
C31   C     C_3   0.652127 0.916251 0.202121 -0.868418
H17   H     H_    0.656184 0.897205 0.313113 0.265207
H18   H     H_    0.732253 0.916657 0.171392 0.254425
H19   H     H_    0.617917 0.010428 0.180805 0.253343
H20   H     H_    0.581592 0.839512 0.012304 0.206861
H21   H     H_    0.503837 0.821099 0.150255 0.237103
H22   H     H_    0.640060 0.668835 0.260847 0.263357
H23   H     H_    0.706111 0.679803 0.116716 0.178962
C32   C     C_3   0.968804 0.537770 0.168944 -0.440855
C33   C     C_3   0.942436 0.675712 0.137791 -0.339498
C34   C     C_3   0.896953 0.693547 0.989583 -0.902536
H24   H     H_    0.956720 0.672983 0.920839 0.267245
H25   H     H_    0.828479 0.630272 0.964160 0.254500
H26   H     H_    0.871817 0.792238 0.972394 0.253302
H27   H     H_    0.885726 0.708706 0.205492 0.215653
H28   H     H_    0.014321 0.734746 0.157022 0.228465
H29   H     H_    0.020320 0.505107 0.093941 0.200004
H30   H     H_    0.898027 0.476789 0.152862 0.194104

loop_
_geom_bond_atom_site_label_1
_geom_bond_atom_site_label_2
_ccdc_geom_bond_type
C16   C21   S    
C1    C8    S    
C19   C20   S    
C29   H23   S    
C12   O3    A    
C19   N2    A    
C7    C8    A    
C21   H8    S    
C25   C28   A    
C9    H14   S    
C26   C32   S    
O1    Zn1   S    
C17   N1    A    
C5    C6    A    
C4    C24   A    
C33   H28   S    
C28   H13   S    
C34   H25   S    
C33   C34   S    
C20   H7    S    
N1    Zn2   S    
C8    C9    A    
N2    Zn1   S    
C23   C24   S    
C9    C10   A    
C4    H1    S    
C20   H6    S    
C7    C15   S    
C31   H17   S    
C13   C14   S    
C2    C6    A    
C14   H2    S    
C18   N2    A    
C23   O7    A    
O7    Zn1   S    
C30   H21   S    
O8    Zn2   S    
C31   H18   S    
C32   C33   S    
C15   H4    S    
C1    O1    A    
C33   H27   S    
O3    Zn1   S    
O4    Zn2   S    
C34   H26   S    
C27   H12   S    
C17   C18   A    
C26   C27   A    
C32   H29   S    
C3    C4    A    
C23   O8    A    
C14   H16   S    
C30   H20   S    
O2    Zn2   S    
C31   H19   S    
C10   H15   S    
C6    H11   S    
C3    C26   A    
C29   H22   S    
C16   N1    A    
C12   O4    A    
C1    O2    A    
C15   H3    S    
C25   C27   A    
C11   C22   S    
C12   C25   S    
C2    C3    A    
C30   C31   S    
C11   C13   A    
C29   C30   S    
C5    C24   A    
C16   C19   A    
C22   O6    A    
O5    Zn1   S    
C34   H24   S    
C18   H5    S    
C10   C11   A    
C7    C13   A    
C21   H9    S    
C20   C21   S    
C14   C15   S    
C2    C28   A    
C32   H30   S    
C5    H10   S    
O6    Zn2   S    
C17   C29   S    
C22   O5    A    
