data_mof_unit_68485.cif
_audit_creation_date              2013-03-05T16:49:10-0500
_audit_creation_method            fapswitch 2.2
_symmetry_space_group_name_H-M    P1
_symmetry_Int_Tables_number       1
_space_group_crystal_system       triclinic
_cell_length_a                    10.862759
_cell_length_b                    10.717526
_cell_length_c                    9.441288
_cell_angle_alpha                 88.672503
_cell_angle_beta                  90.997612
_cell_angle_gamma                 88.127629
_cell_volume                      1098.10943144

loop_
_atom_site_label
_atom_site_type_symbol
_atom_site_description
_atom_site_fract_x
_atom_site_fract_y
_atom_site_fract_z
_atom_type_partial_charge
O1    O     O_R   0.500060 0.316850 0.620870 -0.514026
O2    O     O_R   0.499940 0.683150 0.379130 -0.513995
O3    O     O_R   0.500000 0.316860 0.379090 -0.528351
O4    O     O_R   0.500000 0.683140 0.620910 -0.528377
C1    C     C_R   0.505985 0.259553 0.501567 0.933326
C2    C     C_R   0.493994 0.740446 0.498436 0.933514
O5    O     O_R   0.319670 0.500010 0.620890 -0.526721
O6    O     O_R   0.680330 0.499990 0.379110 -0.526733
O7    O     O_R   0.319620 0.500010 0.379110 -0.572754
O8    O     O_R   0.680380 0.499990 0.620890 -0.572723
C3    C     C_R   0.262596 0.499635 0.498698 0.932787
C4    C     C_R   0.737403 0.500372 0.501300 0.932725
Cu1   Cu    Cu3+1 0.500030 0.499990 0.643150 1.151455
Cu2   Cu    Cu3+1 0.499970 0.500010 0.356850 1.151457
C5    C     C_R   0.149998 0.864597 0.205458 -0.175800
C6    C     C_R   0.850241 0.135334 0.794499 -0.175784
H1    H     H_    0.164198 0.960883 0.230208 0.272852
H2    H     H_    0.836147 0.039036 0.769744 0.273067
C7    C     C_R   0.136323 0.777225 0.316701 0.219517
C8    C     C_R   0.863807 0.222722 0.683247 0.219511
C9    C     C_R   0.112216 0.652251 0.284690 -0.159336
C10   C     C_R   0.887792 0.347724 0.715260 -0.159391
C11   C     C_R   0.109596 0.616177 0.142568 0.596630
C12   C     C_R   0.890339 0.383808 0.857378 0.596607
C13   C     C_R   0.122552 0.704363 0.032660 0.545808
C14   C     C_R   0.877453 0.295612 0.967294 0.545821
C15   C     C_R   0.141477 0.830218 0.063181 0.218571
C16   C     C_R   0.858707 0.169717 0.936781 0.218259
C17   C     C_R   0.930141 0.566783 0.396353 0.676482
C18   C     C_R   0.069859 0.433221 0.603624 0.676284
C19   C     C_R   0.871398 0.499773 0.503313 -0.214850
C20   C     C_R   0.128602 0.500247 0.496680 -0.214909
C21   C     C_R   0.941748 0.431228 0.607228 -0.027631
C22   C     C_R   0.058253 0.568780 0.392752 -0.027740
C23   C     C_3   0.535291 0.032060 0.630378 0.669600
C24   C     C_3   0.464661 0.967941 0.369643 0.669552
C25   C     C_3   0.608222 0.947444 0.530976 0.168020
C26   C     C_3   0.391729 0.052554 0.469051 0.167999
C27   C     C_3   0.491736 0.877337 0.496131 -0.351349
C28   C     C_3   0.508217 0.122663 0.503886 -0.351372
C29   C     C_3   0.416360 0.961803 0.596694 -0.268454
C30   C     C_3   0.583597 0.038194 0.403331 -0.268537
H3    H     H_    0.347350 0.930676 0.674088 0.278179
H4    H     H_    0.652608 0.069329 0.325946 0.278189
C31   C     C_3   0.450509 0.601522 0.045940 0.559461
C32   C     C_3   0.549492 0.398478 0.954060 0.559566
C33   C     C_3   0.388072 0.510503 0.946423 -0.365063
C34   C     C_3   0.611928 0.489497 0.053577 -0.364872
H5    H     H_    0.294662 0.516159 0.897430 0.283563
H6    H     H_    0.705339 0.483843 0.102570 0.283624
N1    N     N_3   0.500090 0.499970 0.858290 -0.324372
N2    N     N_3   0.499910 0.500030 0.141710 -0.324378
C35   C     C_3   0.560851 0.591113 0.949396 0.692884
C36   C     C_3   0.439150 0.408886 0.050604 0.692815
N3    N     N_R   0.151091 0.923393 0.951613 0.183603
O9    O     O_R   0.118675 0.899897 0.821896 -0.198763
O10   O     O_R   0.187128 0.034878 0.980029 -0.216483
N4    N     N_R   0.849246 0.076497 0.048347 0.183811
O11   O     O_R   0.814446 0.964610 0.019747 -0.217189
O12   O     O_R   0.880521 0.100403 0.178312 -0.198617
F1    F     F_    0.400614 0.710507 0.098803 -0.588796
F2    F     F_    0.599400 0.289496 0.901199 -0.588756
F3    F     F_    0.624819 0.688770 0.892056 -0.506241
F4    F     F_    0.375184 0.311227 0.107939 -0.506280
N5    N     N_R   0.138518 0.818869 0.460336 0.158083
O13   O     O_R   0.191212 0.751274 0.561499 -0.355280
O14   O     O_R   0.099624 0.931052 0.488354 -0.197510
N6    N     N_R   0.861582 0.181082 0.539601 0.158206
O15   O     O_R   0.809091 0.248794 0.438405 -0.354939
O16   O     O_R   0.900169 0.068791 0.511604 -0.197739
F5    F     F_    0.088132 0.495956 0.110582 -0.516686
F6    F     F_    0.911694 0.504055 0.889358 -0.516664
F7    F     F_    0.113804 0.666975 0.896645 -0.537282
F8    F     F_    0.886188 0.333034 0.103295 -0.537219
F9    F     F_    0.862453 0.633964 0.296719 -0.583061
F10   F     F_    0.137549 0.366006 0.703228 -0.583203
N7    N     N_R   0.725126 0.881998 0.563816 0.161865
O17   O     O_R   0.791802 0.841553 0.460382 -0.241714
O18   O     O_R   0.745822 0.835478 0.690670 -0.207562
N8    N     N_R   0.274801 0.117970 0.436256 0.161695
O19   O     O_R   0.207960 0.158064 0.539733 -0.241477
O20   O     O_R   0.254191 0.164808 0.309526 -0.207778
F11   F     F_    0.574386 0.064894 0.763988 -0.524282
F12   F     F_    0.425584 0.935113 0.236025 -0.524351

loop_
_geom_bond_atom_site_label_1
_geom_bond_atom_site_label_2
_geom_bond_distance
_ccdc_geom_bond_type
C6    C16   1.403430 A    
C26   C28   1.527430 S    
N3    O9    1.300910 A    
C24   C30   1.548425 S    
C33   H5    1.107066 S    
N7    O17   1.299951 A    
C5    C7    1.403911 A    
C36   F4    1.380480 S    
C32   F2    1.379240 S    
O1    C1    1.296903 A    
C7    C9    1.411687 A    
C12   C14   1.399367 A    
C15   N3    1.442069 S    
N4    O12   1.300930 A    
O4    Cu1   1.969261 S    
C31   F1    1.379228 S    
C25   C30   1.545102 S    
Cu1   N1    2.031183 S    
Cu2   N2    2.031182 S    
N6    O15   1.298637 A    
N5    O14   1.295952 A    
C19   C21   1.410685 A    
C6    C8    1.403922 A    
C28   C30   1.552353 S    
C31   C35   1.521176 S    
Cu1   Cu2   2.703025 S    
C29   H3    1.109630 S    
O2    C2    1.296929 A    
C30   H4    1.109607 S    
C23   C29   1.548398 S    
N2    C36   1.480204 S    
C31   C33   1.535541 S    
C34   C35   1.534035 S    
C32   C34   1.535538 S    
C11   F5    1.356804 S    
C26   C29   1.545106 S    
N8    O20   1.299698 A    
C23   F11   1.380988 S    
C33   N1    1.488758 S    
C9    C22   1.482437 S    
C31   N2    1.479225 S    
N4    O11   1.301866 A    
C25   N7    1.455603 S    
C32   N1    1.479229 S    
N1    C35   1.480202 S    
C20   C22   1.410694 A    
O5    C3    1.300299 A    
O7    Cu2   1.973975 S    
C18   F10   1.361566 S    
C5    C15   1.403413 A    
O5    Cu1   1.966798 S    
O6    C4    1.300285 A    
C32   C36   1.521178 S    
N7    O18   1.299668 A    
C6    H2    1.078659 S    
O7    C3    1.297228 A    
O3    Cu2   1.969261 S    
O8    C4    1.297243 A    
C33   C36   1.534039 S    
O4    C2    1.296299 A    
C8    C10   1.411702 A    
C3    C20   1.455144 S    
N3    O10   1.301778 A    
C4    C19   1.455151 S    
C10   C12   1.405040 A    
O1    Cu1   1.978876 S    
C24   C26   1.532719 S    
C12   F6    1.356826 S    
C5    H1    1.078714 S    
C10   C21   1.482422 S    
O6    Cu2   1.966798 S    
C18   C21   1.393496 A    
C23   C25   1.532703 S    
C8    N6    1.437581 S    
C24   C27   1.539790 S    
N8    O19   1.300020 A    
O3    C1    1.296318 A    
O8    Cu1   1.973975 S    
C17   F9    1.361567 S    
C16   N4    1.442207 S    
C13   C15   1.406680 A    
C14   C16   1.406751 A    
C9    C11   1.405057 A    
C23   C28   1.539804 S    
C17   C19   1.400544 A    
C18   C20   1.400521 A    
C35   F3    1.380484 S    
C26   N8    1.455605 S    
C24   F12   1.380982 S    
C17   C22   1.393509 A    
C34   H6    1.107065 S    
C14   F8    1.356722 S    
C7    N5    1.437493 S    
C13   F7    1.356737 S    
C11   C13   1.399359 A    
O2    Cu2   1.978876 S    
C34   N2    1.488762 S    
C27   C29   1.552359 S    
C25   C27   1.527424 S    
N5    O13   1.298658 A    
C1    C28   1.466181 S    
N6    O16   1.295979 A    
C2    C27   1.466181 S    
