data_mof_unit_55112.cif
_audit_creation_date              2013-03-05T15:52:07-0500
_audit_creation_method            fapswitch 2.2
_symmetry_space_group_name_H-M    P1
_symmetry_Int_Tables_number       1
_space_group_crystal_system       triclinic
_cell_length_a                    6.960237
_cell_length_b                    19.590193
_cell_length_c                    23.376726
_cell_angle_alpha                 96.037669
_cell_angle_beta                  91.202844
_cell_angle_gamma                 88.642266
_cell_volume                      3168.35269371

loop_
_atom_site_label
_atom_site_type_symbol
_atom_site_description
_atom_site_fract_x
_atom_site_fract_y
_atom_site_fract_z
_atom_type_partial_charge
O1    O     O_R   0.617180 0.809390 0.808140 -0.571726
O2    O     O_R   0.382820 0.190610 0.191860 -0.571724
O3    O     O_R   0.293300 0.672410 0.795490 -0.589363
O4    O     O_R   0.706700 0.327590 0.204510 -0.589363
O5    O     O_R   0.117220 0.690610 0.691850 -0.570840
O6    O     O_R   0.882780 0.309390 0.308150 -0.570841
C1    C     C_R   0.464908 0.647814 0.805223 0.922164
C2    C     C_R   0.535092 0.352186 0.194777 0.922164
O7    O     O_R   0.287840 0.807750 0.814460 -0.573912
O8    O     O_R   0.712160 0.192250 0.185540 -0.573912
O9    O     O_R   0.111720 0.826910 0.710960 -0.586326
O10   O     O_R   0.888280 0.173090 0.289040 -0.586323
C3    C     C_R   0.456513 0.830750 0.833172 0.959186
C4    C     C_R   0.543487 0.169249 0.166827 0.959187
O11   O     O_R   0.622680 0.673080 0.789040 -0.590079
O12   O     O_R   0.377320 0.326920 0.210960 -0.590080
O13   O     O_3   0.448820 0.756130 0.716020 -0.254031
O14   O     O_3   0.551180 0.243870 0.283980 -0.254031
V1    V     V_3+5 0.176220 0.748860 0.756300 1.171512
V2    V     V_3+5 0.823780 0.251140 0.243700 1.171509
O15   O     O_R   0.781670 0.827580 0.704500 -0.575841
O16   O     O_R   0.218330 0.172420 0.295500 -0.575833
C5    C     C_R   0.947835 0.851750 0.693922 0.978188
C6    C     C_R   0.052165 0.148250 0.306078 0.978178
O17   O     O_R   0.787130 0.692240 0.685530 -0.569481
O18   O     O_R   0.212870 0.307760 0.314470 -0.569480
C7    C     C_R   0.956090 0.669256 0.666781 0.964590
C8    C     C_R   0.043910 0.330744 0.333219 0.964579
V3    V     V_3+5 0.675510 0.751130 0.743690 1.185701
V4    V     V_3+5 0.324490 0.248870 0.256310 1.185704
O19   O     O_3   0.952780 0.743870 0.783980 -0.270453
O20   O     O_3   0.047220 0.256130 0.216020 -0.270452
C9    C     C_1   0.966601 0.617210 0.614715 -0.283947
C10   C     C_1   0.033399 0.382790 0.385285 -0.283965
C11   C     C_1   0.978169 0.573694 0.571899 0.100151
C12   C     C_1   0.021831 0.426306 0.428100 0.100140
C13   C     C_1   0.993414 0.521871 0.521308 0.030469
C14   C     C_1   0.006586 0.478129 0.478692 0.030466
C15   C     C_R   0.946314 0.914250 0.663506 -0.190000
C16   C     C_R   0.053689 0.085747 0.336489 -0.189997
C17   C     C_R   0.882476 0.036766 0.665842 0.400102
C18   C     C_R   0.117495 0.963226 0.334138 0.400074
C19   C     C_R   0.883673 0.976219 0.692568 -0.255149
C20   C     C_R   0.116268 0.023777 0.307415 -0.255145
C21   C     C_R   0.995268 0.911879 0.605337 -0.120038
C22   C     C_R   0.004807 0.088113 0.394663 -0.120014
C23   C     C_R   0.970090 0.970501 0.574347 0.119989
C24   C     C_R   0.030004 0.029486 0.425646 0.120016
C25   C     C_R   0.928736 0.034425 0.606764 -0.074353
C26   C     C_R   0.071324 0.965564 0.393223 -0.074365
C27   C     C_R   0.991948 0.968399 0.512916 -0.088097
C28   C     C_R   0.008188 0.031586 0.487078 -0.088060
C29   C     C_R   0.002750 0.094330 0.523852 0.328699
C30   C     C_R   0.997425 0.905654 0.476142 0.328741
C31   C     C_R   0.942953 0.094997 0.580491 -0.206219
C32   C     C_R   0.057177 0.904991 0.419500 -0.206219
H1    H     H_    0.924877 0.144305 0.605395 0.220261
H2    H     H_    0.075279 0.855683 0.394599 0.220262
H3    H     H_    0.945491 0.135971 0.414484 0.149237
H4    H     H_    0.054629 0.864024 0.585528 0.149282
H5    H     H_    0.155257 0.021852 0.262603 0.153639
H6    H     H_    0.844617 0.978147 0.737375 0.153613
C33   C     C_R   0.485201 0.585666 0.835391 -0.106092
C34   C     C_R   0.514799 0.414334 0.164609 -0.106091
C35   C     C_R   0.590645 0.467041 0.833488 -0.148463
C36   C     C_R   0.409355 0.532959 0.166512 -0.148461
C37   C     C_R   0.553542 0.525026 0.805160 -0.155349
C38   C     C_R   0.446458 0.474974 0.194840 -0.155348
C39   C     C_R   0.454744 0.588137 0.894813 -0.241380
C40   C     C_R   0.545256 0.411863 0.105187 -0.241381
C41   C     C_R   0.496214 0.529978 0.925220 0.112543
C42   C     C_R   0.503785 0.470022 0.074780 0.112543
C43   C     C_R   0.564448 0.469077 0.892983 0.163679
C44   C     C_R   0.435552 0.530923 0.107017 0.163676
C45   C     C_R   0.475882 0.530303 0.986282 0.059290
C46   C     C_R   0.524118 0.469697 0.013718 0.059292
C47   C     C_R   0.590193 0.410763 0.979154 -0.193030
C48   C     C_R   0.409807 0.589237 0.020845 -0.193028
C49   C     C_R   0.609241 0.410631 0.920200 -0.209721
C50   C     C_R   0.390759 0.589369 0.079799 -0.209716
H7    H     H_    0.661410 0.364111 0.895599 0.153911
H8    H     H_    0.338590 0.635889 0.104401 0.153915
H9    H     H_    0.595028 0.363362 0.084056 0.105894
H10   H     H_    0.404972 0.636638 0.915944 0.105895
H11   H     H_    0.420148 0.477193 0.240531 0.120228
H12   H     H_    0.579852 0.522807 0.759469 0.120227
H13   H     H_    0.643617 0.420661 0.808899 0.142131
H14   H     H_    0.356383 0.579339 0.191101 0.142132
H15   H     H_    0.629561 0.363419 0.996312 0.137239
H16   H     H_    0.370439 0.636580 0.003688 0.137242
C51   C     C_1   0.467240 0.882820 0.885229 -0.310262
C52   C     C_1   0.532760 0.117180 0.114771 -0.310258
C53   C     C_1   0.478671 0.926338 0.928053 0.079765
C54   C     C_1   0.521329 0.073662 0.071947 0.079770
C55   C     C_1   0.493576 0.978141 0.978676 0.013701
C56   C     C_1   0.506424 0.021859 0.021324 0.013704
N1    N     N_R   0.835801 0.100125 0.699744 0.230961
O21   O     O_R   0.682830 0.104500 0.731085 -0.365796
O22   O     O_R   0.965262 0.147002 0.709359 -0.367243
N2    N     N_R   0.164095 0.899868 0.300223 0.230974
O23   O     O_R   0.316910 0.895510 0.268813 -0.365829
O24   O     O_R   0.034651 0.852975 0.290662 -0.367259
N3    N     N_R   0.081511 0.156480 0.507621 0.225831
O25   O     O_R   0.251278 0.155036 0.485141 -0.382730
O26   O     O_R   0.999561 0.215602 0.523696 -0.379170
N4    N     N_R   0.918764 0.843491 0.492378 0.225815
O27   O     O_R   0.000883 0.784387 0.476342 -0.379186
O28   O     O_R   0.748956 0.844897 0.514829 -0.382709

loop_
_geom_bond_atom_site_label_1
_geom_bond_atom_site_label_2
_geom_bond_distance
_ccdc_geom_bond_type
C36   C38   1.390234 A    
C21   H4    1.078149 S    
O11   V3    1.995239 S    
C22   H3    1.078152 S    
O13   V3    1.697247 S    
C55   C56   1.247283 T    
O4    C2    1.301912 A    
V1    O19   1.705769 S    
N1    O21   1.301130 A    
C23   C25   1.420470 A    
C48   H16   1.075985 S    
C16   C22   1.404537 A    
O9    V1    1.987768 S    
C34   C38   1.395585 A    
O16   C6    1.298285 A    
C11   C13   1.479261 S    
O3    C1    1.301914 A    
C36   H14   1.083992 S    
C9    C11   1.247238 T    
C48   C50   1.387009 A    
N4    O27   1.301616 A    
O12   V4    1.995240 S    
C36   C44   1.402775 A    
C35   C43   1.402775 A    
C21   C23   1.426371 A    
C17   C25   1.420463 A    
C39   C41   1.425792 A    
O7    C3    1.317081 A    
C6    C16   1.478837 S    
O5    C7    1.311204 A    
O7    V1    1.857735 S    
O6    C8    1.311206 A    
C33   C39   1.405199 A    
O8    V2    1.857734 S    
C35   C37   1.390234 A    
O3    V1    1.986414 S    
O14   V4    1.697247 S    
C34   C40   1.405199 A    
V4    O20   2.137884 S    
C10   C12   1.247238 T    
C42   C46   1.436710 A    
C15   C21   1.404544 A    
C24   C26   1.420471 A    
C8    C10   1.505163 S    
C2    O12   1.294829 A    
C44   C50   1.393186 A    
C3    C51   1.505198 S    
C38   H11   1.083666 S    
C17   C19   1.397329 A    
C18   C20   1.397338 A    
C4    C52   1.505198 S    
O1    V3    1.838307 S    
N1    O22   1.301194 A    
C35   H13   1.083992 S    
C22   C24   1.426369 A    
C29   C31   1.394881 A    
O17   V3    1.858740 S    
C33   C37   1.395584 A    
C30   N4    1.436795 S    
C27   C28   1.441069 A    
C46   C47   1.411204 A    
C42   C44   1.419815 A    
O8    C4    1.317083 A    
C49   H7    1.084415 S    
C15   C19   1.392577 A    
C1    O11   1.294829 A    
C25   C31   1.398747 A    
O15   V3    1.999446 S    
C26   C32   1.398756 A    
C45   C46   1.437343 A    
C13   C14   1.247276 T    
C18   N2    1.434948 S    
C51   C53   1.247256 T    
C16   C20   1.392572 A    
C47   H15   1.075985 S    
O10   V2    1.987769 S    
C52   C54   1.247255 T    
C43   C49   1.393186 A    
C47   C49   1.387009 A    
N3    O26   1.301598 A    
C54   C56   1.479278 S    
C40   H9    1.076863 S    
C1    C33   1.472369 S    
C18   C26   1.420482 A    
C50   H8    1.084415 S    
C2    C34   1.472369 S    
O18   V4    1.858742 S    
C31   H1    1.080199 S    
C17   N1    1.434925 S    
O1    C3    1.312203 A    
C12   C14   1.479261 S    
N3    O25   1.301749 A    
C28   C29   1.424131 A    
C41   C43   1.419815 A    
N2    O24   1.301210 A    
V2    O20   1.705769 S    
C37   H12   1.083667 S    
O16   V4    1.999448 S    
C23   C27   1.443441 A    
C30   C32   1.394876 A    
O5    V1    1.837200 S    
C20   H5    1.084247 S    
O17   C7    1.316378 A    
O6    V2    1.837198 S    
O10   C6    1.300761 A    
O18   C8    1.316377 A    
O2    V4    1.838305 S    
C27   C30   1.424143 A    
O15   C5    1.298288 A    
V3    O19   2.137882 S    
C39   H10   1.076864 S    
C41   C45   1.436710 A    
N4    O28   1.301752 A    
C29   N3    1.436810 S    
C5    C15   1.478838 S    
O9    C5    1.300761 A    
N2    O23   1.301168 A    
O13   V1    2.150098 S    
C32   H2    1.080195 S    
O14   V2    2.150097 S    
O2    C4    1.312204 A    
C45   C48   1.411204 A    
O4    V2    1.986414 S    
C24   C28   1.443430 A    
C53   C55   1.479276 S    
C7    C9    1.505163 S    
C40   C42   1.425792 A    
C19   H6    1.084250 S    
