data_mof_unit_55441.cif
_audit_creation_date              2012-12-11T15:48:00-0500
_audit_creation_method            fapswitch 2.2
_symmetry_space_group_name_H-M    P1
_symmetry_Int_Tables_number       1
_space_group_crystal_system       triclinic
_cell_length_a                    6.930114
_cell_length_b                    17.594431
_cell_length_c                    19.405594
_cell_angle_alpha                 108.434665
_cell_angle_beta                  89.489524
_cell_angle_gamma                 90.486609
_cell_volume                      2244.60284142

loop_
_atom_site_label
_atom_site_type_symbol
_atom_type_description
_atom_site_fract_x
_atom_site_fract_y
_atom_site_fract_z
_atom_type_partial_charge
O1    O     O_R   0.494330 0.415710 0.413720 -0.543659
O2    O     O_R   0.819360 0.430070 0.560210 -0.532481
O3    O     O_R   0.994320 0.584290 0.586280 -0.510327
C1    C     C_R   0.650093 0.415271 0.582036 0.720058
O4    O     O_R   0.823740 0.406290 0.412670 -0.545107
O5    O     O_R   0.998730 0.560340 0.437690 -0.541786
C2    C     C_R   0.655017 0.383313 0.384632 0.705004
O6    O     O_R   0.489920 0.439660 0.562310 -0.539806
O7    O     O_3   0.662330 0.550570 0.508380 -0.363989
V1    V     V_3+5 0.935370 0.490620 0.498440 1.461400
O8    O     O_R   0.328720 0.569930 0.439790 -0.546617
C3    C     C_R   0.160677 0.585344 0.418469 0.686758
O9    O     O_R   0.324340 0.593710 0.587330 -0.542354
C4    C     C_R   0.154644 0.618022 0.614469 0.716066
V2    V     V_3+5 0.435940 0.509380 0.501560 1.425923
O10   O     O_3   0.159110 0.449430 0.491620 -0.368212
C5    C     C_R   0.304146 0.710034 0.727930 -0.215976
H1    H     H_    0.438545 0.677698 0.713555 0.177050
C6    C     C_R   0.294155 0.773500 0.793169 -0.150656
H2    H     H_    0.421598 0.788763 0.826788 0.136346
C7    C     C_R   0.121106 0.815563 0.815469 -0.099774
C8    C     C_R   0.959807 0.794069 0.770001 -0.244241
H3    H     H_    0.825438 0.826207 0.785552 0.130049
C9    C     C_R   0.970876 0.732871 0.702692 0.423085
C10   C     C_R   0.142665 0.687840 0.682311 -0.151060
C11   C     C_R   0.284011 0.621009 0.310952 -0.192297
C12   C     C_R   0.153335 0.634841 0.369377 -0.077488
C13   C     C_R   0.014138 0.695226 0.379972 -0.191778
C14   C     C_R   0.006570 0.742208 0.333333 0.056002
C15   C     C_R   0.135837 0.727038 0.273956 0.034917
C16   C     C_R   0.274135 0.665802 0.262558 0.054886
C17   C     C_R   0.873629 0.804794 0.345709 -0.269379
C18   C     C_R   0.864902 0.851564 0.299010 0.395850
C19   C     C_R   0.990636 0.835533 0.238490 0.007068
C20   C     C_R   0.127025 0.773125 0.226077 -0.072643
C21   C     C_R   0.255371 0.757045 0.166077 0.016207
C22   C     C_R   0.390019 0.694318 0.154044 0.390090
C23   C     C_R   0.398254 0.649370 0.202286 -0.280935
C24   C     C_R   0.983350 0.880921 0.190348 -0.205937
C25   C     C_R   0.111494 0.865878 0.131181 -0.103257
C26   C     C_R   0.247780 0.804475 0.119703 -0.205558
H4    H     H_    0.390405 0.573991 0.302228 0.111745
H5    H     H_    0.914010 0.706465 0.425308 0.115476
H6    H     H_    0.778346 0.818647 0.392595 0.141356
H7    H     H_    0.879438 0.928788 0.199067 0.155582
H8    H     H_    0.346175 0.793278 0.073905 0.156769
H9    H     H_    0.500126 0.600540 0.191694 0.139106
C27   C     C_R   0.779642 0.183989 0.867981 -0.224363
C28   C     C_R   0.622289 0.133121 0.867928 -0.082958
C29   C     C_R   0.468790 0.128718 0.819865 -0.203018
C30   C     C_R   0.471509 0.174109 0.772026 0.068495
C31   C     C_R   0.626615 0.226563 0.773470 0.062023
C32   C     C_R   0.781485 0.231571 0.821832 0.105544
C33   C     C_R   0.321187 0.167325 0.722776 -0.228484
C34   C     C_R   0.320068 0.212365 0.674424 -0.023685
C35   C     C_R   0.474947 0.267067 0.676304 0.019888
C36   C     C_R   0.627622 0.273766 0.726493 0.035051
C37   C     C_R   0.783750 0.326950 0.729299 0.120779
C38   C     C_R   0.935666 0.331972 0.777970 -0.175597
C39   C     C_R   0.935183 0.284338 0.823461 -0.198870
C40   C     C_R   0.486675 0.313517 0.628653 -0.195187
C41   C     C_R   0.640677 0.366870 0.632037 -0.097557
C42   C     C_R   0.787876 0.373505 0.682670 -0.131297
H10   H     H_    0.898226 0.187900 0.905065 0.123177
H11   H     H_    0.347926 0.088851 0.818967 0.122901
H12   H     H_    0.202316 0.126714 0.722497 0.161764
H13   H     H_    0.381566 0.307657 0.586724 0.173540
H14   H     H_    0.907267 0.414565 0.685270 0.121420
H15   H     H_    0.056644 0.372083 0.780130 0.130783
H16   H     H_    0.055218 0.288812 0.859982 0.131912
C43   C     C_R   0.804360 0.266969 0.288190 -0.141080
H17   H     H_    0.939601 0.277478 0.317346 0.145604
C44   C     C_R   0.791580 0.203086 0.223391 -0.198798
H18   H     H_    0.917450 0.165932 0.204897 0.182906
C45   C     C_R   0.619203 0.186942 0.183248 -0.160962
C46   C     C_R   0.459106 0.237803 0.209370 0.417985
C47   C     C_R   0.471475 0.299949 0.275763 -0.235152
H19   H     H_    0.345627 0.336867 0.295259 0.134438
C48   C     C_R   0.643849 0.315684 0.315542 -0.109625
O11   O     O_R   0.774940 0.060470 0.937800 -0.542538
O12   O     O_R   0.440880 0.093730 0.087350 -0.509918
O13   O     O_R   0.266130 0.939630 0.062280 -0.537953
C49   C     C_R   0.609407 0.117587 0.114991 0.717708
O14   O     O_R   0.445480 0.069960 0.939820 -0.544616
O15   O     O_R   0.270770 0.915690 0.913690 -0.543738
C50   C     C_R   0.614646 0.084876 0.918075 0.699175
O16   O     O_R   0.770300 0.084410 0.086380 -0.544818
O17   O     O_3   0.602600 0.949510 0.991670 -0.372977
V3    V     V_3+5 0.329470 0.009370 0.001550 1.433712
O18   O     O_R   0.940760 0.906160 0.912560 -0.543695
C51   C     C_R   0.110139 0.883136 0.884656 0.703538
O19   O     O_R   0.936150 0.929930 0.060100 -0.541730
C52   C     C_R   0.104135 0.915015 0.081820 0.715649
V4    V     V_3+5 0.828930 0.990450 0.998310 1.400963
O20   O     O_3   0.105670 0.050490 0.008320 -0.367699
O21   O     O_3   0.499474 0.671172 0.090998 -0.553061
C53   C     C_3   0.689695 0.699934 0.107114 0.080549
H20   H     H_    0.756309 0.676451 0.148318 0.124166
H21   H     H_    0.691596 0.766559 0.127120 0.117913
C54   C     C_3   0.810820 0.672296 0.038047 -0.666877
H22   H     H_    0.752509 0.697468 0.996781 0.212981
H23   H     H_    0.962125 0.692844 0.049849 0.191298
H24   H     H_    0.808920 0.605858 0.015895 0.223370
C55   C     C_2   0.153651 0.198891 0.623683 0.753373
O22   O     O_2   0.089669 0.253208 0.604230 -0.575632
O23   O     O_R   0.063603 0.123676 0.600549 -0.663582
H25   H     H_    0.949632 0.121936 0.567662 0.303854
O24   O     O_3   0.286954 0.225974 0.171849 -0.553197
C56   C     C_3   0.283174 0.277719 0.129102 0.107401
H26   H     H_    0.397737 0.261055 0.086390 0.104738
H27   H     H_    0.303466 0.341501 0.162949 0.103327
C57   C     C_3   0.088351 0.270563 0.091948 -0.700228
H28   H     H_    0.971659 0.289738 0.133263 0.214895
H29   H     H_    0.086275 0.309445 0.056677 0.164632
H30   H     H_    0.061478 0.207723 0.057929 0.236197
O25   O     O_3   0.811795 0.716561 0.657597 -0.551194
C58   C     C_3   0.800593 0.775859 0.622773 0.088355
H31   H     H_    0.933045 0.775712 0.589684 0.100681
H32   H     H_    0.781309 0.836535 0.663029 0.116035
C59   C     C_3   0.627620 0.758994 0.572313 -0.668755
H33   H     H_    0.493521 0.755919 0.603096 0.216633
H34   H     H_    0.613150 0.807638 0.547639 0.162222
H35   H     H_    0.647343 0.701589 0.528048 0.227138
O26   O     O_3   0.748443 0.918498 0.317364 -0.550396
C60   C     C_3   0.558017 0.894655 0.295402 0.074889
H36   H     H_    0.499358 0.853140 0.323587 0.128019
H37   H     H_    0.552033 0.865220 0.235598 0.110008
C61   C     C_3   0.431135 0.968622 0.314603 -0.648143
H38   H     H_    0.482690 0.010027 0.285348 0.212618
H39   H     H_    0.279909 0.951114 0.298802 0.192772
H40   H     H_    0.435472 0.000030 0.374029 0.228884

loop_
_geom_bond_atom_site_label_1
_geom_bond_atom_site_label_2
_ccdc_geom_bond_type
C49   O16   A    
C34   C35   A    
C44   H18   S    
C20   C21   A    
C25   C52   S    
C1    O6    A    
C61   H38   S    
C57   H29   S    
C53   H20   S    
O15   C51   A    
C47   H19   S    
O25   C58   S    
C13   C14   A    
C11   C12   A    
C41   C42   A    
O13   V3    S    
C15   C20   A    
C21   C22   A    
C6    C7    A    
C22   C23   A    
O14   C50   A    
C14   C17   A    
C58   H32   S    
O5    C3    A    
C15   C16   A    
C27   H10   S    
O23   H25   S    
O4    V1    S    
V2    O10   S    
O16   V4    S    
C1    C41   S    
O24   C56   S    
C19   C20   A    
C57   H28   S    
O11   C50   A    
C53   H21   S    
C42   H14   S    
O8    V2    S    
C6    H2    S    
C18   O26   S    
C26   H8    S    
O1    V2    S    
O9    C4    A    
O7    V1    S    
C59   H35   S    
C24   H7    S    
O12   V3    S    
C59   H33   S    
C38   C39   A    
C46   O24   S    
O13   C52   A    
C7    C8    A    
C44   C45   A    
C21   C26   A    
V4    O20   S    
O19   V4    S    
C55   O22   D    
O12   C49   A    
C32   C39   A    
C59   H34   S    
O18   V4    S    
O4    C2    A    
C47   C48   A    
C27   C32   A    
O17   V4    S    
C3    C12   S    
C30   C31   A    
C46   C47   A    
C56   C57   S    
C24   C25   A    
C43   C44   A    
O15   V3    S    
C29   C30   A    
C37   C38   A    
C34   C55   S    
C54   H24   S    
C43   C48   A    
C19   C24   A    
C22   O21   S    
V3    O20   S    
O2    C1    A    
C45   C46   A    
C14   C15   A    
C60   C61   S    
C40   H13   S    
C39   H16   S    
O21   C53   S    
C54   H23   S    
C5    H1    S    
C17   H6    S    
C9    C10   A    
C23   H9    S    
O3    C4    A    
C38   H15   S    
C25   C26   A    
C9    O25   S    
O6    V2    S    
O9    V2    S    
C60   H36   S    
C8    C9    A    
C58   C59   S    
C35   C36   A    
O11   V4    S    
O2    V1    S    
C61   H40   S    
C53   C54   S    
C31   C32   A    
C11   H4    S    
C2    C48   S    
C7    C51   S    
C37   C42   A    
C33   C34   A    
C27   C28   A    
O1    C2    A    
C28   C50   S    
C8    H3    S    
C61   H39   S    
O5    V1    S    
O8    C3    A    
C55   O23   S    
C33   H12   S    
C13   H5    S    
C16   C23   A    
C30   C33   A    
C5    C10   A    
C17   C18   A    
C56   H27   S    
O7    V2    S    
C43   H17   S    
O3    V1    S    
V1    O10   S    
C58   H31   S    
C45   C49   S    
O18   C51   A    
O19   C52   A    
C5    C6    A    
C18   C19   A    
C4    C10   S    
C40   C41   A    
C29   H11   S    
C31   C36   A    
C11   C16   A    
O17   V3    S    
C28   C29   A    
O14   V3    S    
C12   C13   A    
C60   H37   S    
C35   C40   A    
C54   H22   S    
C36   C37   A    
C56   H26   S    
C57   H30   S    
O26   C60   S    
