data_mof_unit_36664.cif
_audit_creation_date              2012-12-11T15:06:52-0500
_audit_creation_method            fapswitch 2.2
_symmetry_space_group_name_H-M    P1
_symmetry_Int_Tables_number       1
_space_group_crystal_system       triclinic
_cell_length_a                    19.767435
_cell_length_b                    11.399685
_cell_length_c                    18.719318
_cell_angle_alpha                 90.000312
_cell_angle_beta                  89.234446
_cell_angle_gamma                 89.999877
_cell_volume                      4217.88198711

loop_
_atom_site_label
_atom_site_type_symbol
_atom_type_description
_atom_site_fract_x
_atom_site_fract_y
_atom_site_fract_z
_atom_type_partial_charge
C1    C     C_R   0.762352 0.520453 0.638151 0.552699
C2    C     C_R   0.237649 0.520457 0.361847 0.552696
C3    C     C_R   0.262353 0.020452 0.638151 0.552694
C4    C     C_R   0.737648 0.020455 0.361848 0.552696
C5    C     C_3   0.808820 0.129870 0.447880 -0.268215
C6    C     C_3   0.191179 0.129863 0.552119 -0.268211
C7    C     C_3   0.308820 0.629874 0.447879 -0.268213
C8    C     C_3   0.691180 0.629867 0.552120 -0.268209
C9    C     C_3   0.746055 0.054126 0.437985 0.066008
C10   C     C_3   0.253946 0.054122 0.562013 0.066006
C11   C     C_3   0.246056 0.554128 0.437984 0.066009
C12   C     C_3   0.753945 0.554124 0.562014 0.066008
C13   C     C_3   0.761964 0.093611 0.574262 0.051974
C14   C     C_3   0.238037 0.093611 0.425737 0.051975
C15   C     C_3   0.261965 0.593612 0.574261 0.051971
C16   C     C_3   0.738036 0.593611 0.425738 0.051975
C17   C     C_3   0.757703 0.961746 0.564936 0.152267
C18   C     C_3   0.242299 0.961746 0.435060 0.152264
C19   C     C_3   0.257706 0.461747 0.564934 0.152270
C20   C     C_3   0.742297 0.461746 0.435062 0.152265
C21   C     C_3   0.823271 0.135379 0.527725 -0.282429
C22   C     C_3   0.176729 0.135376 0.472274 -0.282428
C23   C     C_3   0.323271 0.635382 0.527724 -0.282429
C24   C     C_3   0.676729 0.635378 0.472275 -0.282429
C25   C     C_3   0.004157 0.201584 0.458784 -0.237895
C26   C     C_3   0.995844 0.201584 0.541215 -0.237895
C27   C     C_3   0.504157 0.701584 0.458784 -0.237894
C28   C     C_3   0.495844 0.701584 0.541215 -0.237895
C29   C     C_3   0.063349 0.401289 0.472645 -0.210622
C30   C     C_3   0.936652 0.401289 0.527355 -0.210623
C31   C     C_3   0.563349 0.901289 0.472645 -0.210621
C32   C     C_3   0.436652 0.901289 0.527356 -0.210621
C33   C     C_3   0.941225 0.383984 0.446453 -0.249978
C34   C     C_3   0.058775 0.383984 0.553548 -0.249976
C35   C     C_3   0.441225 0.883984 0.446453 -0.249980
C36   C     C_3   0.558775 0.883984 0.553548 -0.249979
C37   C     C_3   0.009806 0.329657 0.430640 0.045059
C38   C     C_3   0.990195 0.329657 0.569360 0.045060
C39   C     C_3   0.509805 0.829657 0.430640 0.045059
C40   C     C_3   0.490195 0.829657 0.569360 0.045060
C41   C     C_3   0.813751 0.010883 0.043955 0.114857
C42   C     C_3   0.186253 0.010879 0.956047 0.114847
C43   C     C_3   0.313752 0.510882 0.043955 0.114860
C44   C     C_3   0.686252 0.510879 0.956046 0.114857
C45   C     C_R   0.776322 0.125832 0.648227 0.537083
C46   C     C_R   0.223678 0.125833 0.351772 0.537084
C47   C     C_R   0.276323 0.625833 0.648227 0.537081
C48   C     C_R   0.723677 0.625833 0.351773 0.537084
C49   C     C_3   0.819543 0.030068 0.964550 -0.189524
C50   C     C_3   0.180463 0.030057 0.035453 -0.189526
C51   C     C_3   0.319544 0.530067 0.964550 -0.189534
C52   C     C_3   0.680463 0.530054 0.035452 -0.189521
C53   C     C_3   0.685130 0.028938 0.033497 -0.257009
C54   C     C_3   0.314875 0.028930 0.966505 -0.257001
C55   C     C_3   0.185132 0.528938 0.033497 -0.257014
C56   C     C_3   0.814874 0.528931 0.966505 -0.257010
C57   C     C_3   0.755145 0.201812 0.060072 -0.254114
C58   C     C_3   0.244861 0.201809 0.939934 -0.254126
C59   C     C_3   0.255148 0.701812 0.060073 -0.254108
C60   C     C_3   0.744858 0.701808 0.939931 -0.254109
C61   C     C_3   0.748834 0.070049 0.074925 0.093438
C62   C     C_3   0.251170 0.070045 0.925078 0.093432
C63   C     C_3   0.248836 0.570048 0.074925 0.093439
C64   C     C_3   0.751169 0.570044 0.925077 0.093436
C65   C     C_3   0.759209 0.102933 0.935521 0.023443
C66   C     C_3   0.240796 0.102927 0.064482 0.023459
C67   C     C_3   0.259211 0.602935 0.935522 0.023442
C68   C     C_3   0.740794 0.602929 0.064481 0.023460
C69   C     C_3   0.696620 0.027869 0.951117 -0.259891
C70   C     C_3   0.303386 0.027863 0.048885 -0.259895
C71   C     C_3   0.196621 0.527872 0.951118 -0.259887
C72   C     C_3   0.803385 0.527868 0.048885 -0.259894
C73   C     C_3   0.748151 0.219149 0.978318 -0.231688
C74   C     C_3   0.251857 0.219144 0.021687 -0.231682
C75   C     C_3   0.248153 0.719150 0.978320 -0.231693
C76   C     C_3   0.751854 0.719146 0.021684 -0.231686
C77   C     C_3   0.008215 0.479486 0.039088 -0.209207
C78   C     C_3   0.991795 0.479487 0.960908 -0.209196
C79   C     C_3   0.508212 0.979485 0.039089 -0.209235
C80   C     C_3   0.491800 0.979486 0.960907 -0.209231
C81   C     C_3   0.067288 0.280009 0.015491 -0.213668
C82   C     C_3   0.932734 0.279998 0.984497 -0.213654
C83   C     C_3   0.567287 0.780009 0.015495 -0.213669
C84   C     C_3   0.432732 0.780003 0.984496 -0.213658
C85   C     C_3   0.950924 0.290752 0.064593 0.162736
C86   C     C_3   0.049098 0.290766 0.935395 0.162699
C87   C     C_3   0.450923 0.790748 0.064592 0.162744
C88   C     C_3   0.549095 0.790755 0.935400 0.162722
C89   C     C_R   0.969871 0.341599 0.645511 0.523849
C90   C     C_R   0.030129 0.341600 0.354490 0.523849
C91   C     C_R   0.469871 0.841599 0.645511 0.523847
C92   C     C_R   0.530129 0.841600 0.354489 0.523847
C93   C     C_3   0.019452 0.352565 0.066658 0.038626
C94   C     C_3   0.980568 0.352565 0.933334 0.038641
C95   C     C_3   0.519449 0.852565 0.066659 0.038617
C96   C     C_3   0.480568 0.852565 0.933334 0.038623
C97   C     C_R   0.759906 0.534850 0.848252 0.544500
C98   C     C_R   0.240095 0.534852 0.151749 0.544497
C99   C     C_R   0.259906 0.034850 0.848253 0.544470
C100  C     C_R   0.740095 0.034852 0.151749 0.544480
C101  C     C_R   0.773418 0.131357 0.858229 0.526599
C102  C     C_R   0.226584 0.131353 0.141773 0.526593
C103  C     C_R   0.273419 0.631359 0.858230 0.526599
C104  C     C_R   0.726583 0.631355 0.141772 0.526594
C105  C     C_R   0.953141 0.355499 0.859905 0.531549
C106  C     C_R   0.046882 0.355501 0.140087 0.531529
C107  C     C_R   0.453143 0.855498 0.859905 0.531566
C108  C     C_R   0.546879 0.855500 0.140088 0.531545
C109  C     C_3   0.684861 0.122407 0.468529 0.104666
C110  C     C_3   0.315139 0.122406 0.531470 0.104671
C111  C     C_3   0.184861 0.622407 0.468529 0.104666
C112  C     C_3   0.815139 0.622406 0.531471 0.104669
C113  C     C_3   0.694396 0.147134 0.548131 -0.174267
C114  C     C_3   0.305604 0.147135 0.451869 -0.174257
C115  C     C_3   0.194396 0.647133 0.548131 -0.174261
C116  C     C_3   0.805604 0.647134 0.451869 -0.174259
C117  C     C_3   0.756959 0.939605 0.483168 -0.200073
C118  C     C_3   0.243043 0.939602 0.516829 -0.200080
C119  C     C_3   0.256961 0.439607 0.483166 -0.200069
C120  C     C_3   0.743042 0.439603 0.516830 -0.200078
Cr1   Cr    Cr6+3 0.885690 0.492860 0.745310 1.002661
Cr2   Cr    Cr6+3 0.114310 0.492860 0.254690 1.002648
Cr3   Cr    Cr6+3 0.385690 0.992860 0.745310 1.002645
Cr4   Cr    Cr6+3 0.614310 0.992860 0.254690 1.002645
Cr5   Cr    Cr6+3 0.729880 0.332270 0.748190 0.996226
Cr6   Cr    Cr6+3 0.270120 0.332270 0.251810 0.996226
Cr7   Cr    Cr6+3 0.229880 0.832270 0.748190 0.996237
Cr8   Cr    Cr6+3 0.770120 0.832270 0.251810 0.996226
Cr9   Cr    Cr6+3 0.888120 0.178590 0.753010 0.983507
Cr10  Cr    Cr6+3 0.111880 0.178590 0.246990 0.983498
Cr11  Cr    Cr6+3 0.388120 0.678590 0.753010 0.983501
Cr12  Cr    Cr6+3 0.611880 0.678590 0.246990 0.983497
H1    H     H_    0.641534 0.067727 0.463103 0.129766
H2    H     H_    0.358466 0.067727 0.536896 0.129757
H3    H     H_    0.141535 0.567725 0.463102 0.129761
H4    H     H_    0.858466 0.567726 0.536897 0.129758
H5    H     H_    0.864437 0.071607 0.536468 0.108054
H6    H     H_    0.135564 0.071604 0.463530 0.108056
H7    H     H_    0.364437 0.571610 0.536465 0.108051
H8    H     H_    0.635563 0.571606 0.463532 0.108054
H9    H     H_    0.808703 0.909864 0.469129 0.104668
H10   H     H_    0.191300 0.909859 0.530866 0.104674
H11   H     H_    0.308705 0.409867 0.469126 0.104666
H12   H     H_    0.691298 0.409862 0.530868 0.104666
H13   H     H_    0.804442 0.922320 0.586682 0.175596
H14   H     H_    0.195561 0.922318 0.413313 0.175603
H15   H     H_    0.304446 0.422323 0.586679 0.175591
H16   H     H_    0.695559 0.422320 0.413315 0.175597
H17   H     H_    0.047069 0.149425 0.441238 0.140679
H18   H     H_    0.952932 0.149425 0.558761 0.140678
H19   H     H_    0.547069 0.649425 0.441237 0.140679
H20   H     H_    0.452932 0.649424 0.558762 0.140677
H21   H     H_    0.960481 0.156221 0.434624 0.103790
H22   H     H_    0.039520 0.156221 0.565375 0.103790
H23   H     H_    0.460481 0.656221 0.434624 0.103789
H24   H     H_    0.539521 0.656221 0.565375 0.103788
H25   H     H_    0.614659 0.886179 0.452000 0.110647
H26   H     H_    0.385342 0.886181 0.548001 0.110646
H27   H     H_    0.114659 0.386178 0.452000 0.110647
H28   H     H_    0.885342 0.386179 0.548000 0.110645
H29   H     H_    0.598613 0.823360 0.571245 0.174826
H30   H     H_    0.401388 0.823360 0.428756 0.174827
H31   H     H_    0.098613 0.323361 0.571245 0.174824
H32   H     H_    0.901388 0.323361 0.428755 0.174826
H33   H     H_    0.934861 0.469244 0.418501 0.148253
H34   H     H_    0.065140 0.469244 0.581500 0.148250
H35   H     H_    0.434860 0.969244 0.418501 0.148253
H36   H     H_    0.565140 0.969244 0.581500 0.148249
H37   H     H_    0.950218 0.494515 0.536890 0.125392
H38   H     H_    0.049782 0.494515 0.463112 0.125390
H39   H     H_    0.450219 0.994515 0.536890 0.125392
H40   H     H_    0.549782 0.994515 0.463112 0.125392
H41   H     H_    0.810211 0.917002 0.053586 0.131303
H42   H     H_    0.189793 0.916999 0.946412 0.131323
H43   H     H_    0.310212 0.417001 0.053587 0.131308
H44   H     H_    0.689791 0.416999 0.946410 0.131310
H45   H     H_    0.868105 0.070263 0.951699 0.165612
H46   H     H_    0.131898 0.070241 0.048307 0.165602
H47   H     H_    0.368106 0.570257 0.951698 0.165601
H48   H     H_    0.631895 0.570228 0.048308 0.165596
H49   H     H_    0.821977 0.943355 0.937300 0.077641
H50   H     H_    0.178033 0.943343 0.062699 0.077631
H51   H     H_    0.321976 0.443354 0.937301 0.077637
H52   H     H_    0.678037 0.443338 0.062698 0.077622
H53   H     H_    0.665226 0.947130 0.054818 0.107852
H54   H     H_    0.334777 0.947121 0.945183 0.107860
H55   H     H_    0.165228 0.447129 0.054816 0.107854
H56   H     H_    0.834777 0.447120 0.945185 0.107860
H57   H     H_    0.705515 0.937393 0.932182 0.167016
H58   H     H_    0.294493 0.937388 0.067822 0.167006
H59   H     H_    0.205516 0.437397 0.932181 0.167019
H60   H     H_    0.794494 0.437393 0.067823 0.167008
H61   H     H_    0.715396 0.251681 0.089642 0.087981
H62   H     H_    0.284610 0.251676 0.910363 0.087991
H63   H     H_    0.215400 0.751680 0.089645 0.087975
H64   H     H_    0.784607 0.751676 0.910361 0.087979
H65   H     H_    0.804364 0.234373 0.077318 0.214096
H66   H     H_    0.195643 0.234373 0.922692 0.214060
H67   H     H_    0.304367 0.734367 0.077321 0.214138
H68   H     H_    0.695639 0.734368 0.922685 0.214132
H69   H     H_    0.778362 0.291282 0.957400 0.099921
H70   H     H_    0.221651 0.291282 0.042608 0.099914
H71   H     H_    0.278363 0.791284 0.957401 0.099919
H72   H     H_    0.721649 0.791285 0.042605 0.099913
H73   H     H_    0.694776 0.244106 0.969683 0.111731
H74   H     H_    0.305233 0.244097 0.030322 0.111734
H75   H     H_    0.194778 0.744107 0.969686 0.111730
H76   H     H_    0.805229 0.744101 0.030319 0.111730
H77   H     H_    0.646424 0.096316 0.045011 0.127966
H78   H     H_    0.353582 0.096304 0.954990 0.127966
H79   H     H_    0.146427 0.596317 0.045012 0.127968
H80   H     H_    0.853578 0.596308 0.954988 0.127968
H81   H     H_    0.692632 0.240127 0.559353 0.139725
H82   H     H_    0.307366 0.240128 0.440650 0.139727
H83   H     H_    0.192631 0.740125 0.559353 0.139729
H84   H     H_    0.807367 0.740127 0.440649 0.139726
H85   H     H_    0.651764 0.063903 0.923490 0.158699
H86   H     H_    0.348243 0.063898 0.076512 0.158686
H87   H     H_    0.151765 0.563908 0.923491 0.158723
H88   H     H_    0.848242 0.563906 0.076510 0.158696
H89   H     H_    0.051546 0.535369 0.047976 0.105147
H90   H     H_    0.948459 0.535358 0.952023 0.105150
H91   H     H_    0.551540 0.035374 0.047983 0.105159
H92   H     H_    0.448468 0.035367 0.952015 0.105165
H93   H     H_    0.966822 0.524034 0.069311 0.178032
H94   H     H_    0.033184 0.524048 0.930686 0.178036
H95   H     H_    0.466813 0.024027 0.069308 0.178022
H96   H     H_    0.533195 0.024035 0.930689 0.178017
H97   H     H_    0.620228 0.795905 0.023119 0.134921
H98   H     H_    0.379791 0.795895 0.976869 0.134926
H99   H     H_    0.120230 0.295898 0.023119 0.134909
H100  H     H_    0.879793 0.295887 0.976868 0.134921
H101  H     H_    0.956801 0.200657 0.086534 0.165018
H102  H     H_    0.043227 0.200674 0.913446 0.165044
H103  H     H_    0.456803 0.700650 0.086524 0.164998
H104  H     H_    0.543216 0.700658 0.913463 0.165014
H105  H     H_    0.941299 0.187632 0.970283 0.071152
H106  H     H_    0.058728 0.187639 0.029700 0.071165
H107  H     H_    0.441291 0.687637 0.970282 0.071138
H108  H     H_    0.558731 0.687640 0.029709 0.071161
H109  H     H_    0.650781 0.111432 0.579207 0.129618
H110  H     H_    0.349219 0.111435 0.420793 0.129620
H111  H     H_    0.150782 0.611428 0.579206 0.129620
H112  H     H_    0.849219 0.611433 0.420793 0.129622
H113  H     H_    0.721168 0.870529 0.469469 0.126293
H114  H     H_    0.278835 0.870526 0.530526 0.126290
H115  H     H_    0.221169 0.370530 0.469467 0.126296
H116  H     H_    0.778834 0.370527 0.530528 0.126292
H117  H     H_    0.853061 0.093038 0.418315 0.110950
H118  H     H_    0.146939 0.093028 0.581684 0.110950
H119  H     H_    0.353061 0.593044 0.418313 0.110948
H120  H     H_    0.646939 0.593034 0.581685 0.110948
H121  H     H_    0.799838 0.217816 0.427364 0.225069
H122  H     H_    0.200159 0.217808 0.572638 0.225070
H123  H     H_    0.299837 0.717820 0.427363 0.225073
H124  H     H_    0.700161 0.717812 0.572639 0.225073
H125  H     H_    0.841541 0.221375 0.543704 0.122552
H126  H     H_    0.158460 0.221373 0.456299 0.122554
H127  H     H_    0.341541 0.721377 0.543704 0.122551
H128  H     H_    0.658460 0.721375 0.456298 0.122553
O1    O     O_R   0.957210 0.449410 0.665480 -0.529675
O2    O     O_R   0.042790 0.449410 0.334520 -0.529679
O3    O     O_R   0.457210 0.949410 0.665480 -0.529686
O4    O     O_R   0.542790 0.949410 0.334520 -0.529684
O5    O     O_R   0.736260 0.212010 0.826560 -0.509479
O6    O     O_R   0.263740 0.212010 0.173440 -0.509480
O7    O     O_R   0.236260 0.712010 0.826560 -0.509473
O8    O     O_R   0.763740 0.712010 0.173440 -0.509478
O9    O     O_R   0.832520 0.095300 0.836000 -0.538053
O10   O     O_R   0.167480 0.095300 0.164000 -0.538058
O11   O     O_R   0.332520 0.595300 0.836000 -0.538056
O12   O     O_R   0.667480 0.595300 0.164000 -0.538059
O13   O     O_R   0.946380 0.253940 0.826940 -0.527049
O14   O     O_R   0.053620 0.253940 0.173060 -0.527035
O15   O     O_R   0.446380 0.753940 0.826940 -0.527031
O16   O     O_R   0.553620 0.753940 0.173060 -0.527025
O17   O     O_3   0.834560 0.334570 0.748840 -0.291588
O18   O     O_3   0.165440 0.334570 0.251160 -0.291593
O19   O     O_3   0.334560 0.834570 0.748840 -0.291584
O20   O     O_3   0.665440 0.834570 0.251160 -0.291591
O21   O     O_R   0.820730 0.541240 0.668250 -0.474954
O22   O     O_R   0.179270 0.541240 0.331750 -0.474956
O23   O     O_R   0.320730 0.041240 0.668250 -0.474955
O24   O     O_R   0.679270 0.041240 0.331750 -0.474952
O25   O     O_R   0.714240 0.455060 0.663710 -0.547527
O26   O     O_R   0.285760 0.455060 0.336290 -0.547527
O27   O     O_R   0.214240 0.955060 0.663710 -0.547526
O28   O     O_R   0.785760 0.955060 0.336290 -0.547527
O29   O     O_R   0.736780 0.204870 0.675910 -0.521271
O30   O     O_R   0.263220 0.204870 0.324090 -0.521270
O31   O     O_R   0.236780 0.704870 0.675910 -0.521267
O32   O     O_R   0.763220 0.704870 0.324090 -0.521267
O33   O     O_R   0.833070 0.087590 0.673490 -0.541394
O34   O     O_R   0.166930 0.087590 0.326510 -0.541396
O35   O     O_R   0.333070 0.587590 0.673490 -0.541397
O36   O     O_R   0.666930 0.587590 0.326510 -0.541396
O37   O     O_R   0.946890 0.246800 0.676300 -0.512371
O38   O     O_R   0.053110 0.246800 0.323700 -0.512368
O39   O     O_R   0.446890 0.746800 0.676300 -0.512367
O40   O     O_R   0.553110 0.746800 0.323700 -0.512366
O41   O     O_R   0.956650 0.457120 0.827980 -0.523913
O42   O     O_R   0.043350 0.457120 0.172020 -0.523924
O43   O     O_R   0.456650 0.957120 0.827980 -0.523943
O44   O     O_R   0.543350 0.957120 0.172020 -0.523940
O45   O     O_R   0.820220 0.548390 0.818890 -0.527915
O46   O     O_R   0.179780 0.548390 0.181110 -0.527923
O47   O     O_R   0.320220 0.048390 0.818890 -0.527910
O48   O     O_R   0.679780 0.048390 0.181110 -0.527918
O49   O     O_R   0.713680 0.462770 0.826210 -0.487821
O50   O     O_R   0.286320 0.462770 0.173790 -0.487817
O51   O     O_R   0.213680 0.962770 0.826210 -0.487822
O52   O     O_R   0.786320 0.962770 0.173790 -0.487826
O53   O     O_3   0.672877 0.225238 0.430069 -0.744897
H129  H     H_    0.626650 0.252344 0.443538 0.302310
O54   O     O_3   0.327121 0.225237 0.569932 -0.744899
H130  H     H_    0.373351 0.252337 0.556472 0.302314
O55   O     O_3   0.172876 0.725239 0.430070 -0.744905
H131  H     H_    0.126646 0.752336 0.443530 0.302318
O56   O     O_3   0.827122 0.725237 0.569932 -0.744896
H132  H     H_    0.873352 0.752337 0.556472 0.302315
O57   O     O_3   0.871950 0.051789 0.078251 -0.744109
H133  H     H_    0.908894 0.995092 0.067500 0.305692
O58   O     O_3   0.128054 0.051785 0.921754 -0.744140
H134  H     H_    0.091107 0.995101 0.932513 0.305700
O59   O     O_3   0.371951 0.551788 0.078252 -0.744085
H135  H     H_    0.408898 0.495105 0.067490 0.305684
O60   O     O_3   0.628053 0.551790 0.921753 -0.744093
H136  H     H_    0.591107 0.495101 0.932508 0.305684
O61   O     O_3   0.599301 0.856082 0.898230 -0.613622
C121  C     C_3   0.610675 0.815237 0.827843 -0.142707
H137  H     H_    0.571917 0.849410 0.791059 0.169415
H138  H     H_    0.614180 0.718127 0.823962 0.162577
H139  H     H_    0.660236 0.850140 0.809757 0.104526
O62   O     O_3   0.400713 0.856065 0.101763 -0.613614
C122  C     C_3   0.389345 0.815222 0.172150 -0.142647
H140  H     H_    0.428097 0.849438 0.208941 0.169436
H141  H     H_    0.385864 0.718099 0.176038 0.162588
H142  H     H_    0.339768 0.850091 0.190225 0.104519
O63   O     O_3   0.099297 0.356117 0.898231 -0.613611
C123  C     C_3   0.110700 0.315243 0.827857 -0.142872
H143  H     H_    0.071860 0.349145 0.791077 0.169456
H144  H     H_    0.114374 0.218144 0.824035 0.162628
H145  H     H_    0.160190 0.350391 0.809724 0.104587
O64   O     O_3   0.900717 0.356084 0.101759 -0.613604
C124  C     C_3   0.889332 0.315229 0.172140 -0.142744
H146  H     H_    0.928132 0.349289 0.208925 0.169469
H147  H     H_    0.885751 0.218113 0.175994 0.162620
H148  H     H_    0.839797 0.350247 0.190246 0.104542
O65   O     O_3   0.698618 0.916879 0.598198 -0.628427
C125  C     C_3   0.709412 0.881402 0.669543 -0.148703
H149  H     H_    0.757420 0.832277 0.676844 0.168031
H150  H     H_    0.667963 0.820641 0.684931 0.106137
H151  H     H_    0.706444 0.957476 0.706291 0.143650
O66   O     O_3   0.301386 0.916883 0.401797 -0.628430
C126  C     C_3   0.290591 0.881401 0.330452 -0.148714
H152  H     H_    0.293548 0.957473 0.293704 0.143656
H153  H     H_    0.242588 0.832260 0.323155 0.168027
H154  H     H_    0.332046 0.820653 0.315062 0.106138
O67   O     O_3   0.198621 0.416876 0.598195 -0.628421
C127  C     C_3   0.209419 0.381394 0.669539 -0.148707
H155  H     H_    0.257424 0.332257 0.676834 0.168044
H156  H     H_    0.167966 0.320640 0.684929 0.106144
H157  H     H_    0.206461 0.457467 0.706287 0.143646
O68   O     O_3   0.801384 0.416881 0.401799 -0.628426
C128  C     C_3   0.790587 0.381395 0.330456 -0.148715
H158  H     H_    0.793540 0.457466 0.293706 0.143651
H159  H     H_    0.742585 0.332249 0.323162 0.168037
H160  H     H_    0.832044 0.320650 0.315065 0.106143

loop_
_geom_bond_atom_site_label_1
_geom_bond_atom_site_label_2
_ccdc_geom_bond_type
C78   H94   S    
C82   C94   S    
C119  H11   S    
C120  H12   S    
C21   H5    S    
C116  H84   S    
C47   O31   A    
C43   C63   S    
C44   C64   S    
C112  O56   S    
Cr6   O18   S    
C70   H86   S    
Cr1   O21   S    
C85   H101  S    
C50   H46   S    
Cr1   O17   S    
C63   C98   S    
C51   H51   S    
Cr10  O10   S    
Cr3   O19   S    
C31   H40   S    
C28   C40   S    
Cr12  O16   S    
C36   H36   S    
C87   H103  S    
C81   H106  S    
C30   C38   S    
C75   H75   S    
C56   C72   S    
C98   O50   A    
C99   O47   A    
C103  O7    A    
C84   H98   S    
C18   C118  S    
C81   C86   S    
C57   H65   S    
C83   C88   S    
C53   C69   S    
C72   H88   S    
C41   C49   S    
C49   H45   S    
Cr5   O25   S    
C121  H137  S    
C6    H118  S    
C89   O37   A    
O58   H134  S    
Cr7   O27   S    
C123  H143  S    
Cr8   O28   S    
C14   C46   S    
C122  H141  S    
Cr2   O2    S    
C59   H63   S    
C14   C114  S    
C73   H69   S    
C8    H124  S    
C24   H8    S    
Cr12  O36   S    
C15   C19   S    
C30   H37   S    
C126  H152  S    
C54   C70   S    
Cr9   O33   S    
C68   C72   S    
C115  H83   S    
C105  O41   A    
C124  H148  S    
C31   H25   S    
C107  O43   A    
C108  O44   A    
C64   C97   S    
Cr4   O4    S    
C36   H29   S    
C15   C115  S    
C89   O1    A    
Cr5   O49   S    
C20   C120  S    
C91   O3    A    
C70   H58   S    
C44   O60   S    
C24   H128  S    
Cr1   O45   S    
Cr5   O5    S    
Cr2   O42   S    
C19   O67   S    
C52   H52   S    
Cr12  O12   S    
C118  H114  S    
C57   C61   S    
C82   C85   S    
Cr10  O34   S    
C59   C63   S    
C60   C64   S    
C128  H158  S    
C1    O21   A    
C21   H125  S    
C66   C70   S    
C78   C94   S    
Cr9   O37   S    
C7    H123  S    
C125  H149  S    
C95   C108  S    
C60   H68   S    
C122  H140  S    
C5    C21   S    
O57   H133  S    
C81   H99   S    
C57   H61   S    
O67   C127  S    
C45   O29   A    
C31   C36   S    
C55   C71   S    
C76   H76   S    
C13   C45   S    
C116  H112  S    
O65   C125  S    
C114  H82   S    
C123  H145  S    
C65   C101  S    
C111  H3    S    
Cr4   O20   S    
C67   C103  S    
C37   C90   S    
Cr10  O38   S    
C10   C118  S    
C100  O52   A    
C66   C74   S    
C86   O63   S    
C25   H17   S    
C57   C73   S    
C119  H115  S    
C85   C93   S    
C55   C63   S    
C56   C64   S    
C47   O35   A    
C110  C114  S    
C48   O36   A    
C44   C52   S    
C50   H50   S    
C1    C12   S    
C43   H43   S    
C112  H4    S    
C51   H47   S    
C2    C11   S    
Cr2   O18   S    
C127  H155  S    
C111  O55   S    
Cr4   O24   S    
Cr12  O20   S    
C42   H42   S    
C128  H160  S    
C75   H71   S    
O62   C122  S    
C18   O66   S    
C25   C26   S    
C101  O9    A    
C62   C99   S    
C7    H119  S    
C103  O11   A    
C5    C9    S    
C93   C106  S    
C8    C12   S    
Cr3   O3    S    
C51   C67   S    
C78   H90   S    
C49   H49   S    
C126  H153  S    
C42   C50   S    
Cr6   O26   S    
C88   H104  S    
C110  O54   S    
Cr4   O48   S    
C61   C100  S    
C67   C75   S    
C112  C116  S    
C107  O15   A    
C58   C74   S    
C73   H73   S    
C83   H108  S    
C8    H120  S    
Cr12  O40   S    
C114  H110  S    
C33   H33   S    
C44   H44   S    
C87   O62   S    
C79   H91   S    
C68   C76   S    
C97   O45   A    
C13   C17   S    
C105  O13   A    
C14   C22   S    
C106  O42   A    
C7    C23   S    
C8    C24   S    
C40   C91   S    
C90   O2    A    
Cr5   O29   S    
Cr6   O50   S    
C110  H2    S    
C84   H107  S    
C54   H78   S    
O64   C124  S    
O66   C126  S    
Cr2   O46   S    
Cr6   O6    S    
C41   O57   S    
C120  H116  S    
C71   H59   S    
C4    C9    S    
C72   H60   S    
C127  H157  S    
C58   C62   S    
C88   C96   S    
C94   C105  S    
C77   H93   S    
Cr9   O13   S    
C12   C112  S    
C1    O25   A    
C2    O22   A    
C77   C78   S    
C22   H126  S    
C3    O27   A    
C86   H102  S    
C121  H138  S    
C69   H85   S    
C123  H144  S    
C6    C22   S    
C82   H105  S    
C71   H87   S    
C14   C18   S    
C41   H41   S    
Cr6   O30   S    
C121  H139  S    
Cr7   O7    S    
C15   C47   S    
Cr10  O14   S    
Cr11  O19   S    
C17   C117  S    
C19   C119  S    
O54   H130  S    
C9    C109  S    
Cr11  O39   S    
C16   C116  S    
C27   H23   S    
C117  H9    S    
C25   H21   S    
C5    H117  S    
C26   H18   S    
C74   H70   S    
C125  H151  S    
C18   H14   S    
C109  H1    S    
C29   C34   S    
C58   H62   S    
C33   C37   S    
C41   C61   S    
C35   C39   S    
C104  O12   A    
C79   C95   S    
C48   O32   A    
C88   O61   S    
C80   H92   S    
O63   C123  S    
C31   C39   S    
C91   O39   A    
Cr8   O8    S    
C80   H96   S    
C125  H150  S    
Cr2   O22   S    
C32   H39   S    
C39   C92   S    
Cr7   O51   S    
C101  O5    A    
C27   H19   S    
C102  O10   A    
C109  O53   S    
C26   C38   S    
C68   C104  S    
C108  O16   A    
C17   H13   S    
C6    C10   S    
C122  H142  S    
C117  H113  S    
C54   C62   S    
C22   H6    S    
O60   H136  S    
C43   O59   S    
C43   C51   S    
O53   H129  S    
Cr5   O17   S    
C65   C69   S    
C77   C93   S    
C60   C76   S    
C10   C110  S    
C67   C71   S    
O59   H135  S    
C19   H15   S    
O56   H132  S    
Cr11  O11   S    
C53   H77   S    
C54   H54   S    
C29   C37   S    
C11   C111  S    
C34   H34   S    
C97   O49   A    
C98   O46   A    
C9    C117  S    
O61   C121  S    
C66   C102  S    
C99   O51   A    
C106  O14   A    
C84   C87   S    
C113  H81   S    
C11   C119  S    
C16   C48   S    
C127  H156  S    
C29   H27   S    
O68   C128  S    
C30   H28   S    
C38   C89   S    
C4    O28   A    
C49   C65   S    
C92   O40   A    
C23   H7    S    
C56   H80   S    
C128  H159  S    
C84   C96   S    
C42   O58   S    
C17   O65   S    
C5    H121  S    
C65   C73   S    
C6    H122  S    
Cr3   O47   S    
C46   O30   A    
C85   O64   S    
C53   H53   S    
C86   C94   S    
Cr1   O1    S    
C12   C120  S    
C96   C107  S    
C56   H56   S    
C59   H67   S    
C35   H35   S    
Cr9   O17   S    
C55   H55   S    
C29   H38   S    
C80   C96   S    
C52   C68   S    
C16   C20   S    
C2    O26   A    
C25   C37   S    
C15   C23   S    
C23   H127  S    
C16   C24   S    
C53   C61   S    
C79   H95   S    
C32   H26   S    
C4    O24   A    
C35   H30   S    
C13   C21   S    
C32   C35   S    
C36   C40   S    
C33   H32   S    
C34   H31   S    
C27   C39   S    
Cr7   O31   S    
Cr1   O41   S    
C87   C95   S    
C20   O68   S    
Cr10  O18   S    
Cr3   O43   S    
C52   H48   S    
Cr11  O15   S    
Cr4   O44   S    
C81   C93   S    
C7    C11   S    
Cr8   O32   S    
C83   C95   S    
C20   H16   S    
C82   H100  S    
Cr11  O35   S    
C92   O4    A    
C50   C66   S    
C115  H111  S    
C77   H89   S    
C28   H20   S    
C113  H109  S    
C26   H22   S    
C59   C75   S    
C60   H64   S    
C74   H74   S    
C42   C62   S    
C58   H66   S    
C30   C33   S    
C34   C38   S    
C45   O33   A    
C83   H97   S    
C104  O8    A    
C118  H10   S    
C76   H72   S    
C109  C113  S    
C46   O34   A    
Cr8   O52   S    
Cr7   O19   S    
C3    C10   S    
Cr3   O23   S    
C90   O38   A    
C124  H147  S    
C3    O23   A    
Cr8   O20   S    
C32   C40   S    
O55   H131  S    
Cr9   O9    S    
C55   H79   S    
C79   C80   S    
C100  O48   A    
C69   H57   S    
C126  H154  S    
C102  O6    A    
C27   C28   S    
C28   H24   S    
C111  C115  S    
C124  H146  S    
C13   C113  S    
