data_mof_unit_16023.cif
_audit_creation_date              2012-12-10T18:21:51-0500
_audit_creation_method            fapswitch 2.2
_symmetry_space_group_name_H-M    P1
_symmetry_Int_Tables_number       1
_space_group_crystal_system       triclinic
_cell_length_a                    19.26124
_cell_length_b                    10.671313
_cell_length_c                    9.553124
_cell_angle_alpha                 88.428059
_cell_angle_beta                  88.095649
_cell_angle_gamma                 87.587836
_cell_volume                      1960.08520812

loop_
_atom_site_label
_atom_site_type_symbol
_atom_type_description
_atom_site_fract_x
_atom_site_fract_y
_atom_site_fract_z
_atom_type_partial_charge
C1    C     C_R   0.499908 0.259701 0.501546 0.752189
C2    C     C_R   0.500772 0.740327 0.498604 0.752348
C3    C     C_3   0.563434 0.039839 0.456860 -0.185335
C4    C     C_3   0.438638 0.960405 0.544715 -0.187792
C5    C     C_3   0.515007 0.963883 0.368855 -0.150131
C6    C     C_3   0.486980 0.036535 0.632193 -0.137454
C7    C     C_3   0.501667 0.877801 0.497240 0.023187
C8    C     C_3   0.500288 0.122275 0.503957 0.029133
C9    C     C_3   0.550155 0.951808 0.585439 -0.151248
C10   C     C_3   0.451742 0.048451 0.416536 -0.151415
C11   C     C_3   0.491522 0.611755 0.046734 0.390411
C12   C     C_3   0.508257 0.387180 0.952763 0.402903
C13   C     C_3   0.441316 0.548832 0.951403 -0.044473
C14   C     C_3   0.558546 0.450303 0.048302 -0.064017
C15   C     C_3   0.549343 0.563477 0.946080 0.439706
C16   C     C_3   0.450385 0.435804 0.054135 0.442986
C17   C     C_R   0.368094 0.499609 0.501989 0.811496
C18   C     C_R   0.632363 0.503468 0.498385 0.811058
C19   C     C_R   0.252025 0.598806 0.551557 -0.267302
C20   C     C_R   0.747095 0.544424 0.376618 -0.261899
C21   C     C_R   0.179402 0.595418 0.554583 0.458911
C22   C     C_R   0.820312 0.543656 0.376459 0.454383
C23   C     C_R   0.147560 0.489628 0.504025 -0.090707
C24   C     C_R   0.854765 0.508281 0.500342 -0.068397
C25   C     C_R   0.188930 0.384615 0.460412 0.118842
C26   C     C_R   0.815987 0.481737 0.624345 0.109248
C27   C     C_R   0.261217 0.388430 0.462184 -0.233237
C28   C     C_R   0.743900 0.483415 0.622108 -0.210140
C29   C     C_R   0.292668 0.495404 0.506332 -0.089222
C30   C     C_R   0.708788 0.509932 0.497860 -0.109327
C31   C     C_R   0.931022 0.502103 0.499478 0.474133
C32   C     C_R   0.071570 0.491280 0.497820 0.449840
Cu1   Cu    Cu3+1 0.500020 0.499990 0.643150 1.014243
Cu2   Cu    Cu3+1 0.499980 0.500010 0.356850 1.011802
H1    H     H_    0.276568 0.682696 0.582813 0.161842
H2    H     H_    0.720213 0.571204 0.282453 0.165172
H3    H     H_    0.293079 0.308277 0.427719 0.160272
H4    H     H_    0.715555 0.463662 0.718967 0.198327
H5    H     H_    0.528845 0.931295 0.262308 0.178064
H6    H     H_    0.472976 0.070330 0.737367 0.166333
H7    H     H_    0.614594 0.075276 0.421082 0.147337
H8    H     H_    0.387486 0.925084 0.580764 0.142446
H9    H     H_    0.590505 0.909942 0.654765 0.138572
H10   H     H_    0.409659 0.094052 0.354655 0.141000
N1    N     N_R   0.035118 0.396056 0.555997 -0.196728
N2    N     N_R   0.967503 0.597122 0.440830 -0.210067
N3    N     N_R   0.966011 0.401067 0.556060 -0.181994
N4    N     N_R   0.036589 0.591966 0.440438 -0.181838
N5    N     N_3   0.500050 0.499970 0.858290 -0.238561
N6    N     N_3   0.499950 0.500030 0.141710 -0.248005
O1    O     O_R   0.500030 0.316850 0.620870 -0.553305
O2    O     O_R   0.499970 0.683150 0.379130 -0.569449
O3    O     O_R   0.500000 0.316860 0.379090 -0.535694
O4    O     O_R   0.500000 0.683140 0.620910 -0.535962
O5    O     O_R   0.400160 0.499980 0.620930 -0.544909
O6    O     O_R   0.599840 0.500020 0.379070 -0.552879
O7    O     O_R   0.400130 0.499990 0.379150 -0.547601
O8    O     O_R   0.599870 0.500010 0.620850 -0.564649
O9    O     O_3   0.601778 0.634784 0.879871 -0.579391
C33   C     C_3   0.643163 0.688898 0.979979 0.094294
H11   H     H_    0.697653 0.653176 0.962690 0.159244
H12   H     H_    0.628098 0.665546 0.091171 0.169033
C34   C     C_3   0.640487 0.831194 0.958566 -0.337157
H13   H     H_    0.668795 0.855548 0.859087 0.202587
H14   H     H_    0.585645 0.865675 0.950081 0.246500
C35   C     C_3   0.672909 0.895409 0.079950 -0.944458
H15   H     H_    0.647151 0.867908 0.181211 0.260638
H16   H     H_    0.666533 0.998610 0.066064 0.265486
H17   H     H_    0.729117 0.869248 0.083729 0.258116
O10   O     O_3   0.398830 0.364046 0.123373 -0.574955
C36   C     C_3   0.350381 0.321637 0.028998 0.070335
H18   H     H_    0.352536 0.218257 0.033211 0.155983
H19   H     H_    0.360679 0.349717 0.917291 0.179309
C37   C     C_3   0.276750 0.363729 0.077392 -0.328164
H20   H     H_    0.263209 0.312258 0.176169 0.234726
H21   H     H_    0.274221 0.465414 0.099477 0.249202
C38   C     C_3   0.223435 0.337008 0.968443 -0.849433
H22   H     H_    0.234310 0.390838 0.869501 0.268879
H23   H     H_    0.170568 0.365499 0.008891 0.274288
H24   H     H_    0.224696 0.235235 0.946530 0.260705
O11   O     O_3   0.138995 0.698603 0.598132 -0.587751
C39   C     C_3   0.140983 0.708590 0.745502 0.059140
H25   H     H_    0.123949 0.806232 0.771301 0.189205
H26   H     H_    0.194349 0.693991 0.785575 0.161792
C40   C     C_3   0.091129 0.618607 0.821081 -0.368743
H27   H     H_    0.037891 0.635494 0.781156 0.249121
H28   H     H_    0.108269 0.519997 0.800222 0.223365
C41   C     C_3   0.089200 0.636477 0.979149 -0.861224
H29   H     H_    0.141957 0.619618 0.021275 0.268252
H30   H     H_    0.053771 0.568698 0.030945 0.273755
H31   H     H_    0.069833 0.733109 0.003977 0.259900
O12   O     O_3   0.859911 0.562449 0.253956 -0.576301
C42   C     C_3   0.838313 0.673527 0.181041 0.066430
H32   H     H_    0.820630 0.749758 0.253371 0.125746
H33   H     H_    0.795549 0.652546 0.111283 0.158165
C43   C     C_3   0.899720 0.719732 0.091133 -0.296762
H34   H     H_    0.941678 0.746205 0.160401 0.237476
H35   H     H_    0.920676 0.643006 0.023598 0.257023
C44   C     C_3   0.878586 0.832588 0.998266 -0.888313
H36   H     H_    0.837552 0.807361 0.926243 0.262051
H37   H     H_    0.924435 0.862967 0.934540 0.271618
H38   H     H_    0.859014 0.911907 0.063529 0.264851
I1    I     I_    0.146950 0.220120 0.382546 -0.349145
I2    I     I_    0.861055 0.444383 0.822134 -0.360575
I3    I     I_    0.342962 0.623282 0.876311 -0.515594
I4    I     I_    0.659109 0.382335 0.118587 -0.425646
O13   O     O_3   0.491335 0.734043 0.100366 -0.593426
C45   C     C_3   0.422972 0.782077 0.129141 0.146697
H39   H     H_    0.421043 0.827765 0.231932 0.158844
H40   H     H_    0.383807 0.708639 0.142469 0.126830
C46   C     C_3   0.402361 0.880228 0.016242 -0.389801
H41   H     H_    0.419030 0.846633 0.910908 0.259280
H42   H     H_    0.344962 0.896575 0.019650 0.205149
C47   C     C_3   0.436098 0.003912 0.036356 -0.830921
H43   H     H_    0.415098 0.047427 0.132921 0.246563
H44   H     H_    0.423903 0.068033 0.947173 0.248326
H45   H     H_    0.493101 0.989837 0.042054 0.260419
O14   O     O_3   0.506358 0.266289 0.894787 -0.605344
C48   C     C_3   0.569685 0.195326 0.907508 0.056469
H46   H     H_    0.560321 0.097169 0.882047 0.141123
H47   H     H_    0.585951 0.189065 0.017462 0.169120
C49   C     C_3   0.626523 0.239471 0.802839 -0.312939
H48   H     H_    0.610269 0.227263 0.694282 0.222398
H49   H     H_    0.634939 0.339900 0.817087 0.245694
C50   C     C_3   0.695236 0.165046 0.819230 -0.883974
H50   H     H_    0.688843 0.065371 0.794695 0.245136
H51   H     H_    0.714161 0.171298 0.927050 0.291886
H52   H     H_    0.734978 0.203521 0.744901 0.276425

loop_
_geom_bond_atom_site_label_1
_geom_bond_atom_site_label_2
_ccdc_geom_bond_type
Cu1   O5    S    
C35   H16   S    
C34   H14   S    
Cu2   O6    S    
C42   H32   S    
C27   C29   A    
C1    C8    S    
C17   C29   S    
C32   N1    A    
C2    C7    S    
C6    C9    S    
O11   C39   S    
C20   C30   A    
C40   H27   S    
Cu1   O8    S    
C37   H21   S    
C33   C34   S    
C19   C21   A    
C16   N6    S    
C40   C41   S    
C35   H17   S    
Cu1   N5    S    
C43   C44   S    
C11   C13   S    
C45   H39   S    
C33   H12   S    
C1    O3    A    
O14   C48   S    
Cu2   O2    S    
C26   I2    S    
C11   C15   S    
C18   O8    A    
C12   C16   S    
C37   C38   S    
C43   H35   S    
C50   H52   S    
O13   C45   S    
O10   C36   S    
C18   C30   S    
C17   O5    A    
C18   O6    A    
N1    N3    A    
C35   H15   S    
C34   C35   S    
O9    C33   S    
C42   H33   S    
C31   N3    A    
C32   N4    A    
C4    C7    S    
C47   H43   S    
C48   H47   S    
N2    N4    A    
Cu2   N6    S    
C9    H9    S    
C37   H20   S    
C40   H28   S    
C10   H10   S    
C16   O10   S    
C13   I3    S    
C3    C8    S    
C2    O4    A    
C5    C7    S    
C25   I1    S    
C6    C8    S    
C38   H22   S    
C31   N2    A    
C33   H11   S    
C12   N5    S    
C3    C9    S    
Cu2   O7    S    
C44   H36   S    
C41   H31   S    
C28   H4    S    
C43   H34   S    
C44   H38   S    
Cu1   Cu2   S    
C38   H23   S    
C46   H42   S    
C1    O1    A    
C2    O2    A    
C13   N5    S    
C4    C6    S    
C44   H37   S    
C21   O11   S    
C42   C43   S    
C39   H26   S    
C21   C23   A    
C11   O13   S    
C50   H50   S    
C6    H6    S    
Cu1   O1    S    
C20   C22   A    
C4    C10   S    
C19   C29   A    
C14   I4    S    
C36   H19   S    
C12   O14   S    
C48   C49   S    
Cu1   O4    S    
C7    C9    S    
C3    H7    S    
C46   H41   S    
C15   O9    S    
C24   C26   A    
C41   H30   S    
C3    C5    S    
C36   C37   S    
C47   H44   S    
C48   H46   S    
C25   C27   A    
C39   C40   S    
C26   C28   A    
C45   C46   S    
C23   C32   S    
C49   C50   S    
C5    H5    S    
C12   C14   S    
C24   C31   S    
C36   H18   S    
C11   N6    S    
C19   H1    S    
C38   H24   S    
C14   N6    S    
C4    H8    S    
C27   H3    S    
C28   C30   A    
O12   C42   S    
C45   H40   S    
C46   C47   S    
C22   C24   A    
C15   N5    S    
C47   H45   S    
C34   H13   S    
C20   H2    S    
C5    C10   S    
C23   C25   A    
C41   H29   S    
Cu2   O3    S    
C8    C10   S    
C39   H25   S    
C13   C16   S    
C50   H51   S    
C22   O12   S    
C14   C15   S    
C49   H48   S    
C49   H49   S    
C17   O7    A    
