data_mof_unit_44333.cif
_audit_creation_date              2013-03-05T16:09:17-0500
_audit_creation_method            fapswitch 2.2
_symmetry_space_group_name_H-M    P1
_symmetry_Int_Tables_number       1
_space_group_crystal_system       triclinic
_cell_length_a                    8.655691
_cell_length_b                    10.680793
_cell_length_c                    9.89166
_cell_angle_alpha                 90.63681
_cell_angle_beta                  98.944224
_cell_angle_gamma                 90.740431
_cell_volume                      903.205349013

loop_
_atom_site_label
_atom_site_type_symbol
_atom_site_description
_atom_site_fract_x
_atom_site_fract_y
_atom_site_fract_z
_atom_type_partial_charge
O1    O     O_R   0.499990 0.316750 0.614620 -0.644750
O2    O     O_R   0.500010 0.683250 0.385380 -0.644749
O3    O     O_R   0.499990 0.316780 0.385290 -0.579898
O4    O     O_R   0.500010 0.683220 0.614710 -0.579903
C1    C     C_R   0.499295 0.260098 0.499361 0.888006
C2    C     C_R   0.500705 0.739902 0.500639 0.888000
O5    O     O_R   0.271750 0.499990 0.587840 -0.604867
O6    O     O_R   0.728250 0.500010 0.412160 -0.604869
O7    O     O_R   0.271750 0.500010 0.358510 -0.547058
O8    O     O_R   0.728250 0.499990 0.641490 -0.547062
C3    C     C_R   0.201605 0.500972 0.464306 0.905379
C4    C     C_R   0.798394 0.499026 0.535694 0.905396
Zn1   Zn    Zn3+2 0.500000 0.499980 0.653120 1.075017
Zn2   Zn    Zn3+2 0.500000 0.500020 0.346880 1.075016
N1    N     N_R   0.499960 0.499970 0.857200 -0.156357
N2    N     N_R   0.500040 0.500030 0.142800 -0.156356
C5    C     C_2   0.037835 0.484714 0.447091 -0.015107
C6    C     C_2   0.962165 0.515279 0.552911 -0.015097
C7    C     C_R   0.559295 0.063683 0.395646 -0.072979
C8    C     C_R   0.440704 0.936317 0.604354 -0.072984
H1    H     H_    0.607430 0.112680 0.315971 0.212163
H2    H     H_    0.392570 0.887320 0.684029 0.212159
C9    C     C_R   0.560582 0.935370 0.396691 -0.143598
C10   C     C_R   0.439418 0.064630 0.603309 -0.143597
H3    H     H_    0.608935 0.885663 0.317158 0.178283
H4    H     H_    0.391065 0.114337 0.682842 0.178284
C11   C     C_R   0.501309 0.872402 0.501088 -0.044163
C12   C     C_R   0.498691 0.127598 0.498912 -0.044165
C13   C     C_R   0.561435 0.598604 0.082523 -0.131303
C14   C     C_R   0.438565 0.401396 0.917476 -0.131289
H5    H     H_    0.612071 0.676666 0.145605 0.182411
H6    H     H_    0.387929 0.323333 0.854395 0.182413
C15   C     C_R   0.562544 0.599218 0.939388 0.383261
C16   C     C_R   0.437457 0.400781 0.060612 0.383265
N3    N     N_R   0.965465 0.415141 0.327629 0.237484
O9    O     O_R   0.967356 0.459899 0.206092 -0.293679
O10   O     O_R   0.908841 0.303118 0.340168 -0.370772
N4    N     N_R   0.034535 0.584845 0.672377 0.237487
O11   O     O_R   0.032671 0.540065 0.793910 -0.293697
O12   O     O_R   0.091133 0.696879 0.659850 -0.370756
N5    N     N_R   0.631673 0.704868 0.883029 0.215276
O13   O     O_R   0.753822 0.689694 0.823507 -0.286651
O14   O     O_R   0.598011 0.817297 0.920002 -0.386110
N6    N     N_R   0.368333 0.295129 0.116971 0.215276
O15   O     O_R   0.246186 0.310300 0.176497 -0.286648
O16   O     O_R   0.401996 0.182701 0.079995 -0.386112

loop_
_geom_bond_atom_site_label_1
_geom_bond_atom_site_label_2
_geom_bond_distance
_ccdc_geom_bond_type
C7    C9    1.370808 A    
O7    Zn2   1.996782 S    
C8    C11   1.394629 A    
C9    C11   1.397565 A    
C1    C12   1.415101 S    
N5    O14   1.301176 A    
N5    O13   1.298703 A    
N3    O9    1.301074 A    
C8    H2    1.083617 S    
O6    C4    1.277367 A    
C15   N5    1.429133 S    
Zn1   N1    2.018746 S    
C5    C6    1.357324 D    
C6    N4    1.441950 S    
C13   H5    1.081928 S    
N4    O12   1.301638 A    
C14   H6    1.081928 S    
C7    C12   1.394629 A    
O7    C3    1.288952 A    
O2    C2    1.283916 A    
O3    Zn2   1.997827 S    
O8    C4    1.288949 A    
O1    C1    1.283916 A    
C7    H1    1.083616 S    
C10   H4    1.083880 S    
O5    C3    1.277368 A    
C9    H3    1.083881 S    
N4    O11   1.301084 A    
O2    Zn2   1.989588 S    
C10   C12   1.397566 A    
Zn2   N2    2.018745 S    
O1    Zn1   1.989587 S    
C14   C16   1.417460 A    
C13   C15   1.417461 A    
O5    Zn1   1.980789 S    
C16   N6    1.429133 S    
N6    O15   1.298702 A    
N3    O10   1.301629 A    
N1    C14   1.358090 A    
O4    C2    1.287221 A    
C4    C6    1.409429 S    
O4    Zn1   1.997828 S    
C8    C10   1.370808 A    
C3    C5    1.409435 S    
O6    Zn2   1.980789 S    
C5    N3    1.441952 S    
N2    C16   1.380997 A    
N2    C13   1.358092 A    
N1    C15   1.380996 A    
C2    C11   1.415101 S    
N6    O16   1.301176 A    
O3    C1    1.287222 A    
O8    Zn1   1.996782 S    
