data_mof_unit_24948.cif
_audit_creation_date              2012-10-26T21:12:34-0400
_audit_creation_method            fapswitch 2.2
_symmetry_space_group_name_H-M    P1
_symmetry_Int_Tables_number       1
_space_group_crystal_system       triclinic
_cell_length_a                    23.509901
_cell_length_b                    10.780525
_cell_length_c                    9.604481
_cell_angle_alpha                 90.221379
_cell_angle_beta                  90.020682
_cell_angle_gamma                 92.24124
_cell_volume                      2432.36622109

loop_
_atom_site_label
_atom_site_type_symbol
_atom_type_description
_atom_site_fract_x
_atom_site_fract_y
_atom_site_fract_z
_atom_type_partial_charge
C1    C     C_R   0.500587 0.262736 0.499680 0.538717
C2    C     C_R   0.122486 0.616332 0.469124 0.400119
C3    C     C_R   0.239226 0.514800 0.374438 -0.056181
C4    C     C_R   0.391015 0.499860 0.500018 0.535035
C5    C     C_R   0.298461 0.512279 0.374246 -0.141063
C6    C     C_R   0.328411 0.501298 0.500035 -0.003615
C7    C     C_R   0.297977 0.492519 0.625852 -0.157787
C8    C     C_R   0.238705 0.494629 0.625668 -0.060570
C9    C     C_R   0.209178 0.505966 0.500035 0.242597
C10   C     C_R   0.761265 0.496314 0.623721 -0.065606
C11   C     C_R   0.701920 0.493301 0.624550 -0.161389
C12   C     C_R   0.965392 0.293680 0.553722 -0.107990
C13   C     C_R   0.671600 0.508837 0.500066 -0.006284
C14   C     C_R   0.701697 0.530147 0.375435 -0.164949
C15   C     C_R   0.761016 0.533270 0.374952 -0.070038
C16   C     C_R   0.498520 0.736863 0.500217 0.527945
C17   C     C_R   0.791000 0.515502 0.498811 0.239294
C18   C     C_R   0.402788 0.123970 0.607722 -0.107522
C19   C     C_R   0.356040 0.056863 0.662010 -0.111710
C20   C     C_R   0.355510 0.927828 0.664237 -0.105815
C21   C     C_R   0.401664 0.865166 0.611831 -0.094440
C22   C     C_R   0.449661 0.931400 0.557124 0.023124
C23   C     C_R   0.024599 0.292274 0.555470 -0.113045
C24   C     C_R   0.450524 0.062487 0.555423 0.012502
C25   C     C_R   0.498519 0.128344 0.498824 0.014027
C26   C     C_R   0.544322 0.064626 0.440574 -0.024171
C27   C     C_R   0.542110 0.935839 0.441468 -0.139130
C28   C     C_R   0.608976 0.502617 0.500013 0.528865
C29   C     C_R   0.496225 0.870123 0.500460 -0.003644
C30   C     C_R   0.575464 0.664816 0.144575 -0.090279
C31   C     C_R   0.612258 0.745425 0.072799 -0.174704
C32   C     C_R   0.612241 0.745437 0.929361 -0.166908
C33   C     C_R   0.575402 0.664897 0.856824 -0.085037
C34   C     C_R   0.057419 0.400637 0.526643 0.036255
C35   C     C_R   0.537045 0.581047 0.925576 0.156481
C36   C     C_R   0.537058 0.580987 0.075117 0.158850
C37   C     C_R   0.464739 0.422969 0.073493 -0.004701
C38   C     C_R   0.464753 0.422992 0.925637 -0.002953
C39   C     C_R   0.882502 0.622919 0.469256 0.400007
C40   C     C_R   0.878248 0.406445 0.522840 0.400828
C41   C     C_R   0.937712 0.403511 0.523248 0.033595
C42   C     C_R   0.970057 0.512945 0.492520 -0.062788
C43   C     C_R   0.942543 0.623769 0.460430 0.019624
C44   C     C_3   0.598052 0.129310 0.385067 -0.254669
C45   C     C_R   0.030125 0.511213 0.494717 -0.042422
C46   C     C_3   0.640352 0.158026 0.503522 -0.310667
C47   C     C_3   0.699387 0.193350 0.446856 -0.417443
C48   C     C_R   0.062871 0.619997 0.465807 -0.020353
C49   C     C_R   0.035569 0.729216 0.432274 -0.059071
C50   C     C_R   0.976296 0.731507 0.425010 0.233846
C51   C     C_R   0.117103 0.401250 0.528387 0.404278
Cu1   Cu    Cu3+1 0.500000 0.499990 0.640660 0.909816
Cu2   Cu    Cu3+1 0.500000 0.500010 0.359340 0.918310
H1    H     H_    0.941400 0.208471 0.577050 0.184942
H2    H     H_    0.435820 0.359789 0.128313 0.120721
H3    H     H_    0.044521 0.206076 0.579830 0.177484
H4    H     H_    0.579247 0.672573 0.254250 0.178810
H5    H     H_    0.641048 0.808349 0.129264 0.121001
H6    H     H_    0.641022 0.808377 0.873515 0.127848
H7    H     H_    0.579016 0.672779 0.747164 0.184998
H8    H     H_    0.435846 0.359812 0.870144 0.114855
H9    H     H_    0.060232 0.813140 0.407015 0.193441
H10   H     H_    0.216571 0.523237 0.276955 0.130271
H11   H     H_    0.320727 0.519373 0.275739 0.132664
H12   H     H_    0.679850 0.477209 0.722167 0.133789
H13   H     H_    0.319880 0.483834 0.724342 0.126295
H14   H     H_    0.215662 0.487855 0.723112 0.130509
H15   H     H_    0.784213 0.483001 0.719943 0.133960
H16   H     H_    0.717900 0.112148 0.394648 0.171329
H17   H     H_    0.696964 0.269989 0.370657 0.165379
H18   H     H_    0.727817 0.223695 0.533833 0.198526
H19   H     H_    0.624881 0.235514 0.568081 0.177831
H20   H     H_    0.643945 0.075352 0.571434 0.171149
H21   H     H_    0.618191 0.068395 0.306936 0.138407
H22   H     H_    0.588679 0.215605 0.328532 0.177364
H23   H     H_    0.679494 0.543206 0.278118 0.129940
H24   H     H_    0.924973 0.816948 0.307358 0.357593
H25   H     H_    0.783756 0.548083 0.278038 0.128048
H26   H     H_    0.400618 0.223937 0.605824 0.128868
H27   H     H_    0.319892 0.105241 0.701585 0.132195
H28   H     H_    0.318978 0.875993 0.705580 0.133365
H29   H     H_    0.399008 0.764824 0.613181 0.138375
H30   H     H_    0.577460 0.885750 0.399488 0.103273
N1    N     N_R   0.852021 0.514999 0.497082 -0.400708
N2    N     N_R   0.148244 0.508024 0.499735 -0.395463
N3    N     N_R   0.500540 0.501210 0.147910 -0.243697
N4    N     N_R   0.500560 0.501290 0.852040 -0.242693
O1    O     O_R   0.500000 0.319640 0.618810 -0.502469
O2    O     O_R   0.582120 0.500020 0.618760 -0.521359
O3    O     O_R   0.582120 0.500050 0.381190 -0.524550
O4    O     O_2   0.854577 0.729011 0.454704 -0.469049
O5    O     O_3   0.953389 0.839898 0.380157 -0.651565
O6    O     O_2   0.846742 0.301579 0.547994 -0.509770
O7    O     O_2   0.143858 0.295884 0.557340 -0.492106
O8    O     O_2   0.154511 0.720147 0.442453 -0.492407
O9    O     O_R   0.500000 0.319660 0.381240 -0.503313
O10   O     O_R   0.417880 0.499950 0.618810 -0.513101
O11   O     O_R   0.417880 0.499980 0.381240 -0.496009
O12   O     O_R   0.500000 0.680340 0.618760 -0.521259
O13   O     O_R   0.500000 0.680360 0.381190 -0.510886

loop_
_geom_bond_atom_site_label_1
_geom_bond_atom_site_label_2
_ccdc_geom_bond_type
C8    C9    A    
H24   O5    S    
C22   C29   A    
C4    O11   A    
C27   C29   A    
C41   C42   A    
C40   N1    A    
C19   C20   A    
C40   O6    S    
C51   N2    A    
C26   C44   S    
C7    C8    A    
C12   C23   A    
C34   C51   A    
C12   C41   A    
C18   C24   A    
C31   H5    S    
C2    O8    S    
C39   N1    A    
C30   C31   A    
C15   H25   S    
C10   C17   A    
C30   H4    S    
Cu1   O10   S    
C2    N2    A    
C18   C19   A    
C23   H3    S    
C47   H16   S    
C20   H28   S    
C9    N2    S    
C35   N4    A    
C35   C36   A    
C18   H26   S    
C13   C28   S    
Cu2   N3    S    
C46   H19   S    
C38   H8    S    
C1    O1    A    
C21   C22   A    
Cu2   O9    S    
C1    C25   S    
Cu1   O2    S    
C39   O4    S    
C44   C46   S    
Cu2   O13   S    
C37   N3    A    
Cu1   O1    S    
C24   C25   A    
C4    C6    S    
C16   O13   A    
C39   C43   A    
C2    C48   A    
C25   C26   A    
C5    H11   S    
C42   C45   A    
C14   H23   S    
C44   H22   S    
C47   H17   S    
C37   C38   A    
C3    C9    A    
C4    O10   A    
C31   C32   A    
C23   C34   A    
C26   C27   A    
C43   C50   A    
C34   C45   A    
C21   H29   S    
C44   H21   S    
C47   H18   S    
C28   O2    A    
C50   O5    S    
C40   C41   A    
C33   H7    S    
C3    H10   S    
C22   C24   A    
C42   C43   A    
Cu1   Cu2   S    
C45   C48   A    
C15   C17   A    
C46   C47   S    
C48   C49   A    
C49   H9    S    
Cu1   N4    S    
C3    C5    A    
C16   O12   A    
C6    C7    A    
C10   H15   S    
Cu2   O11   S    
Cu1   O12   S    
C30   C36   A    
C38   N4    A    
C17   N1    S    
C36   N3    A    
C32   C33   A    
C27   H30   S    
C16   C29   S    
C7    H13   S    
C11   C13   A    
C5    C6    A    
C1    O9    A    
C33   C35   A    
C19   H27   S    
C10   C11   A    
C51   O7    S    
C37   H2    S    
C20   C21   A    
C8    H14   S    
C49   C50   A    
Cu2   O3    S    
C14   C15   A    
C28   O3    A    
C32   H6    S    
C13   C14   A    
C46   H20   S    
C12   H1    S    
C11   H12   S    
