data_mof_unit_40603.cif
_audit_creation_date              2012-12-10T18:31:59-0500
_audit_creation_method            fapswitch 2.2
_symmetry_space_group_name_H-M    P1
_symmetry_Int_Tables_number       1
_space_group_crystal_system       triclinic
_cell_length_a                    10.63079
_cell_length_b                    14.915472
_cell_length_c                    15.386448
_cell_angle_alpha                 81.822943
_cell_angle_beta                  90.681116
_cell_angle_gamma                 102.73308
_cell_volume                      2355.0534963

loop_
_atom_site_label
_atom_site_type_symbol
_atom_type_description
_atom_site_fract_x
_atom_site_fract_y
_atom_site_fract_z
_atom_type_partial_charge
C1    C     C_R   0.477496 0.441919 0.662351 0.878540
C2    C     C_R   0.394787 0.446817 0.897223 0.093712
C3    C     C_R   0.361569 0.350770 0.930133 0.166958
C4    C     C_R   0.741765 0.500372 0.498907 0.849770
C5    C     C_R   0.395636 0.513728 0.954004 0.071687
C6    C     C_R   0.388618 0.484049 0.045356 0.069252
C7    C     C_R   0.347590 0.388016 0.076546 -0.230363
C8    C     C_R   0.331797 0.322486 0.019158 -0.218501
C9    C     C_R   0.407459 0.609353 0.922945 -0.232139
C10   C     C_R   0.429370 0.674906 0.980469 -0.234568
C11   C     C_R   0.445852 0.647292 0.069459 0.166073
C12   C     C_3   0.120976 0.499437 0.498566 0.030945
C13   C     C_R   0.426977 0.551491 0.102102 0.085706
C14   C     C_R   0.484957 0.714031 0.125887 -0.185514
C15   C     C_R   0.510709 0.686383 0.213571 -0.196890
C16   C     C_R   0.514488 0.558089 0.337569 0.847723
C17   C     C_R   0.458020 0.525891 0.188901 -0.255047
C18   C     C_R   0.673305 0.828851 0.656543 -0.324684
C19   C     C_R   0.643705 0.743060 0.626526 -0.023277
C20   C     C_R   0.538452 0.805437 0.501929 0.226094
C21   C     C_R   0.586111 0.897130 0.522894 0.016899
C22   C     C_R   0.640028 0.905595 0.606374 0.141152
C23   C     C_3   0.061381 0.471047 0.409762 0.012458
C24   C     C_R   0.567793 0.979066 0.469484 0.057130
C25   C     C_R   0.558799 0.057617 0.508677 0.076469
C26   C     C_R   0.606330 0.062497 0.594518 -0.209676
C27   C     C_R   0.653645 0.989403 0.640270 -0.183875
C28   C     C_R   0.258147 0.499800 0.500476 0.820805
C29   C     C_R   0.560064 0.985042 0.378071 -0.262985
C30   C     C_R   0.499420 0.049008 0.329522 -0.017043
C31   C     C_R   0.463755 0.118402 0.371671 0.076734
C32   C     C_R   0.502094 0.126932 0.460033 -0.013294
C33   C     C_R   0.399732 0.183689 0.326388 -0.275845
C34   C     C_3   0.101714 0.598032 0.507126 -0.431611
C35   C     C_R   0.380396 0.257491 0.366073 0.031381
C36   C     C_R   0.482680 0.205230 0.495323 -0.031589
C37   C     C_3   0.905203 0.431247 0.577613 -0.469011
C38   C     C_3   0.050355 0.431642 0.579632 -0.202742
C39   C     C_3   0.915612 0.469852 0.411784 -0.388790
C40   C     C_3   0.959395 0.598921 0.505771 -0.390039
C41   C     C_3   0.878107 0.500219 0.498471 0.120451
C42   C     C_3   0.129735 0.533951 0.326555 -0.423845
C43   C     C_3   0.100865 0.487773 0.243789 -0.854045
C44   C     C_2   0.474968 0.038940 0.235808 0.889310
C45   C     C_R   0.441521 0.407882 0.754591 -0.047908
C46   C     C_3   0.431163 0.786038 0.435977 -0.389674
C47   C     C_3   0.310424 0.818023 0.460518 -0.882663
C48   C     C_2   0.072232 0.333532 0.589399 0.934831
C49   C     C_R   0.498583 0.591923 0.244980 -0.066338
C50   C     C_R   0.362524 0.284533 0.873929 -0.187218
C51   C     C_R   0.401996 0.313001 0.786278 -0.145716
C52   C     C_R   0.437518 0.473474 0.810167 -0.268225
H1    H     H_    0.845539 0.360577 0.573397 0.197746
H2    H     H_    0.473135 0.545884 0.785448 0.159150
H3    H     H_    0.875769 0.451695 0.639879 0.154635
H4    H     H_    0.325455 0.362029 0.145067 0.139905
H5    H     H_    0.398186 0.634983 0.854455 0.150247
H6    H     H_    0.497693 0.787438 0.101853 0.148400
H7    H     H_    0.692803 0.996208 0.704968 0.145615
H8    H     H_    0.519049 0.221097 0.558235 0.116146
H9    H     H_    0.339819 0.311130 0.328841 0.122316
H10   H     H_    0.719928 0.834754 0.719126 0.153325
H11   H     H_    0.671450 0.684039 0.664605 0.147142
H12   H     H_    0.151998 0.648771 0.452204 0.191506
H13   H     H_    0.089505 0.460414 0.639929 0.139579
H14   H     H_    0.610859 0.122393 0.627185 0.134503
H15   H     H_    0.598901 0.937896 0.344527 0.172611
H16   H     H_    0.370544 0.182208 0.259126 0.183235
H17   H     H_    0.860339 0.398317 0.406132 0.190427
H18   H     H_    0.072209 0.399405 0.405334 0.210193
H19   H     H_    0.940654 0.649432 0.449157 0.181856
H20   H     H_    0.933406 0.622946 0.567118 0.189273
H21   H     H_    0.142794 0.620493 0.569515 0.193692
H22   H     H_    0.137257 0.422844 0.250197 0.254174
H23   H     H_    0.888306 0.516439 0.355027 0.162624
H24   H     H_    0.995613 0.471372 0.231961 0.262994
H25   H     H_    0.150087 0.535544 0.186207 0.262735
H26   H     H_    0.099834 0.601475 0.316267 0.220722
H27   H     H_    0.235891 0.549589 0.333914 0.205459
H28   H     H_    0.543118 0.013234 0.122180 0.339127
H29   H     H_    0.272598 0.781694 0.526117 0.257863
H30   H     H_    0.329157 0.893686 0.462088 0.274840
H31   H     H_    0.235457 0.802534 0.410684 0.247113
H32   H     H_    0.461522 0.814357 0.367685 0.176616
H33   H     H_    0.401343 0.712199 0.432339 0.263270
H34   H     H_    0.302704 0.249391 0.045227 0.165320
H35   H     H_    0.152307 0.236570 0.659979 0.340571
H36   H     H_    0.455406 0.454062 0.213060 0.159072
H37   H     H_    0.540622 0.738559 0.256296 0.156088
H38   H     H_    0.440062 0.747715 0.954538 0.148649
H39   H     H_    0.335206 0.210930 0.898188 0.141296
H40   H     H_    0.402272 0.261129 0.743705 0.151258
N1    N     N_R   0.573860 0.731700 0.552730 -0.119100
N2    N     N_R   0.426060 0.268290 0.447230 -0.097769
O1    O     O_R   0.462770 0.383110 0.605620 -0.607589
O2    O     O_R   0.571631 0.021080 0.184289 -0.809678
O3    O     O_2   0.027969 0.281363 0.536607 -0.640231
O4    O     O_R   0.142933 0.302720 0.660212 -0.809227
O5    O     O_R   0.510160 0.531900 0.639510 -0.629131
O6    O     O_R   0.661510 0.425600 0.483070 -0.620083
O7    O     O_R   0.708900 0.574390 0.516960 -0.623829
O8    O     O_R   0.489840 0.468100 0.360490 -0.622028
O9    O     O_R   0.537230 0.616890 0.394380 -0.636653
O10   O     O_R   0.291100 0.425610 0.483040 -0.603561
O11   O     O_R   0.338490 0.574400 0.516930 -0.636134
O12   O     O_2   0.369074 0.041086 0.204812 -0.647779
Zn1   Zn    Zn3+2 0.468350 0.400660 0.477370 0.953161
Zn2   Zn    Zn3+2 0.531650 0.599340 0.522630 0.917374

loop_
_geom_bond_atom_site_label_1
_geom_bond_atom_site_label_2
_ccdc_geom_bond_type
C20   N1    A    
C40   H19   S    
C17   H36   S    
C1    O5    A    
C7    C8    A    
C39   C41   S    
O5    Zn2   S    
C12   C23   S    
C26   C27   A    
C29   C30   A    
C23   C42   S    
C12   C28   S    
C34   C40   S    
C32   C36   A    
N1    Zn2   S    
C30   C31   A    
C11   C14   A    
C4    C41   S    
C45   C51   A    
C18   C19   A    
C47   H30   S    
C24   C29   A    
C29   H15   S    
C19   H11   S    
C31   C33   A    
O9    Zn2   S    
C47   H31   S    
H28   O2    S    
C9    C10   A    
C38   C48   S    
C19   N1    A    
H35   O4    S    
C37   H1    S    
O7    Zn2   S    
C15   C49   A    
C42   H27   S    
C21   C22   A    
C12   C38   S    
C23   H18   S    
C30   C44   S    
C7    H4    S    
C3    C50   A    
C52   H2    S    
C14   H6    S    
O11   Zn2   S    
N2    Zn1   S    
C26   H14   S    
C16   C49   S    
C9    H5    S    
C3    C8    A    
C17   C49   A    
C18   H10   S    
C45   C52   A    
C25   C26   A    
C5    C9    A    
C37   C38   S    
C48   O3    D    
C51   H40   S    
C15   H37   S    
C28   O10   A    
C16   O9    A    
C31   C32   A    
C38   H13   S    
C28   O11   A    
C1    O1    A    
C4    O7    A    
C34   H12   S    
C50   C51   A    
C39   H17   S    
O8    Zn1   S    
C35   H9    S    
C24   C25   A    
O1    Zn1   S    
C46   H32   S    
C16   O8    A    
C40   C41   S    
C42   H26   S    
C39   H23   S    
C22   C27   A    
C4    O6    A    
C2    C5    A    
C42   C43   S    
C12   C34   S    
C35   N2    A    
C43   H24   S    
C46   C47   S    
O6    Zn1   S    
C44   O2    S    
C40   H20   S    
C18   C22   A    
C36   H8    S    
C6    C7    A    
C44   O12   D    
C43   H25   S    
C48   O4    S    
C2    C52   A    
C13   C17   A    
C46   H33   S    
C2    C3    A    
C27   H7    S    
C6    C13   A    
C11   C13   A    
C1    C45   S    
C5    C6    A    
C43   H22   S    
C23   C39   S    
C33   C35   A    
C8    H34   S    
C47   H29   S    
C37   C41   S    
C10   C11   A    
C34   H21   S    
C37   H3    S    
C36   N2    A    
C50   H39   S    
C20   C21   A    
C10   H38   S    
C21   C24   A    
C14   C15   A    
O10   Zn1   S    
C20   C46   S    
C33   H16   S    
C25   C32   A    
