data_mof_unit_10214.cif
_audit_creation_date              2012-12-11T14:15:05-0500
_audit_creation_method            fapswitch 2.2
_symmetry_space_group_name_H-M    P1
_symmetry_Int_Tables_number       1
_space_group_crystal_system       triclinic
_cell_length_a                    24.464471
_cell_length_b                    17.223727
_cell_length_c                    15.72848
_cell_angle_alpha                 90.276127
_cell_angle_beta                  128.878329
_cell_angle_gamma                 90.244679
_cell_volume                      5159.0935215

loop_
_atom_site_label
_atom_site_type_symbol
_atom_type_description
_atom_site_fract_x
_atom_site_fract_y
_atom_site_fract_z
_atom_type_partial_charge
Br1   Br    Br    0.240010 0.393812 0.130089 -0.667267
Br2   Br    Br    0.759415 0.393748 0.869694 -0.654956
Br3   Br    Br    0.741421 0.883970 0.132996 -0.670447
Br4   Br    Br    0.257043 0.883019 0.865691 -0.673273
Br5   Br    Br    0.595850 0.363677 0.290369 -0.752784
Br6   Br    Br    0.401538 0.386250 0.717683 -0.735279
Br7   Br    Br    0.095748 0.896158 0.278332 -0.764687
Br8   Br    Br    0.902753 0.897686 0.720410 -0.720201
C1    C     C_R   0.338855 0.376805 0.214387 0.298241
C2    C     C_R   0.638970 0.688678 0.507962 0.105019
C3    C     C_R   0.222969 0.664501 0.534141 -0.152320
C4    C     C_R   0.206738 0.588020 0.494687 -0.099259
C5    C     C_R   0.173284 0.572831 0.384539 -0.067433
C6    C     C_R   0.156855 0.633765 0.314086 -0.127703
C7    C     C_R   0.172935 0.710227 0.353142 -0.161178
C8    C     C_R   0.632280 0.257579 0.959959 0.153002
C9    C     C_R   0.641137 0.317585 0.028456 -0.168765
C10   C     C_R   0.610673 0.311686 0.079118 -0.073683
C11   C     C_R   0.571309 0.245795 0.062261 -0.058282
C12   C     C_R   0.562789 0.185395 0.995112 -0.127890
C13   C     C_R   0.824473 0.137816 0.497997 0.102026
C14   C     C_R   0.592633 0.191412 0.943297 -0.167751
C15   C     C_R   0.344702 0.263293 0.013587 0.169917
C16   C     C_R   0.320279 0.322491 0.936597 -0.156494
C17   C     C_R   0.325575 0.314994 0.853431 -0.099447
C18   C     C_R   0.355895 0.248830 0.847311 -0.054770
C19   C     C_R   0.381666 0.190474 0.924951 -0.145934
C20   C     C_R   0.376484 0.197776 0.008172 -0.170819
C21   C     C_R   0.125561 0.746559 0.943751 0.147403
C22   C     C_R   0.136132 0.804052 0.016434 -0.154180
C23   C     C_R   0.106495 0.795609 0.068139 -0.105206
C24   C     C_R   0.142781 0.185802 0.508319 0.105093
C25   C     C_R   0.065994 0.729914 0.047657 -0.074994
C26   C     C_R   0.055507 0.672182 0.975846 -0.121610
C27   C     C_R   0.084798 0.680571 0.923438 -0.169082
C28   C     C_R   0.845392 0.764616 0.015572 0.169364
C29   C     C_R   0.816607 0.825867 0.940706 -0.144963
C30   C     C_R   0.817765 0.823959 0.853011 -0.106096
C31   C     C_R   0.847986 0.761239 0.839969 -0.055041
C32   C     C_R   0.878008 0.700854 0.915255 -0.126678
C33   C     C_R   0.877311 0.702722 0.003410 -0.186081
C34   C     C_R   0.463740 0.612094 0.159119 0.073801
C35   C     C_R   0.351937 0.625733 0.137560 0.084808
C36   C     C_R   0.474555 0.684687 0.130896 -0.218053
C37   C     C_R   0.527904 0.694219 0.122798 -0.113879
C38   C     C_R   0.567618 0.630560 0.135525 -0.095048
C39   C     C_R   0.554320 0.557390 0.157132 -0.107517
C40   C     C_R   0.503291 0.548392 0.170538 -0.103778
C41   C     C_R   0.538735 0.616558 0.843741 0.067720
C42   C     C_R   0.527112 0.690346 0.868317 -0.210101
C43   C     C_R   0.476292 0.699635 0.881898 -0.125129
C44   C     C_R   0.440019 0.634983 0.877872 -0.080381
C45   C     C_R   0.455954 0.560866 0.863250 -0.066822
C46   C     C_R   0.648375 0.629654 0.861335 0.075058
C47   C     C_R   0.504516 0.551682 0.844614 -0.107754
C48   C     C_R   0.962475 0.122591 0.159926 0.064628
C49   C     C_R   0.973527 0.197539 0.137523 -0.208470
C50   C     C_R   0.022940 0.209619 0.121349 -0.115564
C51   C     C_R   0.060269 0.146945 0.124722 -0.107803
C52   C     C_R   0.046353 0.071873 0.140303 -0.102206
C53   C     C_R   0.997379 0.059667 0.157598 -0.101530
C54   C     C_R   0.033297 0.122296 0.833847 0.072555
C55   C     C_R   0.008362 0.195322 0.834863 -0.176318
C56   C     C_R   0.960273 0.201086 0.854807 -0.117097
C57   C     C_R   0.853268 0.134044 0.144105 0.074710
C58   C     C_R   0.937976 0.134257 0.875732 -0.108911
C59   C     C_R   0.966148 0.062114 0.881606 -0.073139
C60   C     C_R   0.013880 0.055981 0.860862 -0.129795
C61   C     C_R   0.144770 0.135885 0.856075 0.065629
C62   C     C_2   0.655597 0.799945 0.430902 -0.148221
C63   C     C_2   0.346302 0.793735 0.581655 -0.140340
C64   C     C_2   0.160363 0.295992 0.431844 -0.158323
C65   C     C_R   0.660076 0.377554 0.786185 0.280446
C66   C     C_2   0.763857 0.158522 0.572407 -0.102995
C67   C     C_2   0.670272 0.763739 0.517690 -0.157893
C68   C     C_2   0.335629 0.763889 0.493775 -0.167959
C69   C     C_2   0.176417 0.258759 0.518666 -0.155405
C70   C     C_2   0.771118 0.174117 0.496785 -0.191832
C71   C     C_2   0.217659 0.335296 0.443653 -0.174473
C72   C     C_2   0.724337 0.213192 0.584828 -0.211914
C73   C     C_2   0.713157 0.840329 0.443736 -0.168785
C74   C     C_2   0.289484 0.836605 0.566788 -0.203124
C75   C     C_2   0.277683 0.297853 0.482936 0.052449
C76   C     C_R   0.840969 0.872947 0.218352 0.306629
C77   C     C_2   0.659916 0.235423 0.497908 0.029575
C78   C     C_2   0.774723 0.804546 0.487122 0.042358
C79   C     C_2   0.223557 0.807150 0.506408 0.055240
C80   C     C_2   0.655747 0.269749 0.893753 0.039479
C81   C     C_2   0.337195 0.270530 0.100059 0.043831
C82   C     C_2   0.150484 0.760137 0.879800 0.031346
C83   C     C_2   0.841788 0.765967 0.106416 0.036982
C84   C     C_2   0.695964 0.219455 0.890131 -0.181918
C85   C     C_2   0.303654 0.217058 0.114989 -0.176795
C86   C     C_2   0.194361 0.711893 0.881889 -0.168357
C87   C     C_R   0.157121 0.871052 0.777442 0.304193
C88   C     C_2   0.809415 0.710079 0.120218 -0.171742
C89   C     C_2   0.305211 0.654941 0.025485 -0.177385
C90   C     C_2   0.695228 0.660865 0.973008 -0.170738
C91   C     C_2   0.806942 0.165969 0.034092 -0.173615
C92   C     C_2   0.189552 0.170197 0.965480 -0.167267
C93   C     C_R   0.591971 0.360367 0.407794 0.301842
C94   C     C_R   0.390897 0.376917 0.587008 0.297374
C95   C     C_R   0.109695 0.881311 0.410547 0.308635
C96   C     C_R   0.889421 0.881491 0.588239 0.292193
C97   C     C_2   0.235841 0.655819 0.969398 -0.107503
C98   C     C_R   0.411718 0.644420 0.588657 -0.102459
C99   C     C_2   0.764541 0.652701 0.034470 -0.113802
C100  C     C_2   0.737579 0.162883 0.975928 -0.110280
C101  C     C_2   0.258612 0.158817 0.031409 -0.123961
C102  C     C_R   0.658914 0.355750 0.589010 -0.172161
C103  C     C_R   0.322341 0.373442 0.405736 -0.188058
C104  C     C_R   0.180459 0.879232 0.591882 -0.188744
C105  C     C_R   0.819578 0.877929 0.406892 -0.179543
C106  C     C_R   0.564829 0.369338 0.774006 -0.215119
C107  C     C_R   0.431233 0.371466 0.219332 -0.211245
C108  C     C_R   0.061812 0.864324 0.765976 -0.204669
C109  C     C_R   0.588454 0.646129 0.414382 -0.117505
C110  C     C_R   0.935009 0.867186 0.226855 -0.198322
C111  C     C_R   0.366831 0.338453 0.172367 0.000085
C112  C     C_R   0.629354 0.337338 0.823084 0.003578
C113  C     C_R   0.871188 0.832761 0.180787 -0.013787
C114  C     C_R   0.124541 0.828697 0.809961 -0.004139
C115  C     C_R   0.636980 0.313804 0.497569 -0.001424
C116  C     C_R   0.332336 0.341537 0.493607 -0.017472
C117  C     C_R   0.170657 0.849618 0.502103 -0.010632
C118  C     C_R   0.828832 0.848256 0.495540 -0.015581
C119  C     C_R   0.339583 0.643752 0.407477 -0.112193
C120  C     C_R   0.888122 0.111422 0.589010 -0.091325
C121  C     C_R   0.662304 0.643003 0.595342 -0.111768
C122  C     C_R   0.817237 0.115904 0.407401 -0.121472
C123  C     C_R   0.164094 0.141524 0.595682 -0.120733
C124  C     C_R   0.422400 0.607744 0.197968 0.015701
C125  C     C_R   0.578100 0.610564 0.801780 0.019522
C126  C     C_R   0.922770 0.113203 0.200907 0.020730
C127  C     C_R   0.074862 0.115506 0.796266 0.029746
C128  C     C_R   0.667817 0.606740 0.799597 -0.113827
C129  C     C_R   0.332388 0.604705 0.199966 -0.117076
C130  C     C_R   0.166479 0.109938 0.798103 -0.116851
C131  C     C_R   0.092011 0.143600 0.414463 -0.103976
C132  C     C_R   0.833481 0.110513 0.205169 -0.101991
C133  C     C_R   0.285646 0.211969 0.494384 0.174968
C134  C     C_R   0.235006 0.162645 0.407386 -0.153445
C135  C     C_R   0.244145 0.082278 0.415906 -0.093157
C136  C     C_R   0.304421 0.050467 0.510481 -0.076017
C137  C     C_R   0.355349 0.098861 0.597091 -0.127586
C138  C     C_R   0.346326 0.179327 0.588937 -0.182609
C139  C     C_R   0.608276 0.178225 0.412849 0.189502
C140  C     C_R   0.567982 0.134173 0.430811 -0.163519
C141  C     C_R   0.519090 0.079494 0.353177 -0.099731
C142  C     C_R   0.363203 0.688108 0.497506 0.108524
C143  C     C_R   0.510122 0.068234 0.257092 -0.102473
C144  C     C_R   0.549676 0.112027 0.238181 -0.135402
C145  C     C_R   0.598421 0.167015 0.315427 -0.104849
C146  C     C_R   0.785674 0.719252 0.507626 0.173399
C147  C     C_R   0.736398 0.665462 0.426740 -0.145868
C148  C     C_R   0.745983 0.585755 0.446886 -0.101855
C149  C     C_R   0.805641 0.558774 0.546838 -0.061288
C150  C     C_R   0.856282 0.611430 0.626090 -0.124939
C151  C     C_R   0.846805 0.691201 0.606236 -0.191447
C152  C     C_R   0.205836 0.726202 0.463390 0.185801
H1    H     H_    0.717420 0.780336 0.598665 0.146170
H2    H     H_    0.787314 0.615315 0.008695 0.151189
H3    H     H_    0.023508 0.247085 0.815104 0.132579
H4    H     H_    0.939541 0.257108 0.852519 0.132043
H5    H     H_    0.900371 0.138631 0.890386 0.128456
H6    H     H_    0.950524 0.010955 0.901512 0.166461
H7    H     H_    0.034114 0.999665 0.862838 0.152695
H8    H     H_    0.713631 0.130156 0.003666 0.144615
H9    H     H_    0.281782 0.117246 0.010617 0.147274
H10   H     H_    0.708704 0.229820 0.836139 0.157362
H11   H     H_    0.299098 0.224866 0.178969 0.158310
H12   H     H_    0.208854 0.722963 0.830327 0.164307
H13   H     H_    0.806019 0.714969 0.185750 0.159105
H14   H     H_    0.328109 0.684353 0.993432 0.153328
H15   H     H_    0.673531 0.698429 0.000666 0.165983
H16   H     H_    0.829696 0.198999 0.004342 0.158320
H17   H     H_    0.293706 0.786640 0.413483 0.146085
H18   H     H_    0.166755 0.211722 0.987341 0.168368
H19   H     H_    0.694520 0.335678 0.671046 0.158044
H20   H     H_    0.275636 0.367358 0.322731 0.182348
H21   H     H_    0.228298 0.876334 0.674242 0.182140
H22   H     H_    0.771853 0.874191 0.324467 0.183396
H23   H     H_    0.529472 0.354867 0.789993 0.187111
H24   H     H_    0.462492 0.360294 0.194784 0.185259
H25   H     H_    0.025382 0.848464 0.779469 0.184511
H26   H     H_    0.969548 0.852851 0.209162 0.184809
H27   H     H_    0.300462 0.659919 0.323214 0.102302
H28   H     H_    0.224935 0.273475 0.599255 0.148800
H29   H     H_    0.702775 0.657815 0.680202 0.104949
H30   H     H_    0.770076 0.118476 0.323229 0.108483
H31   H     H_    0.204937 0.155802 0.680614 0.106279
H32   H     H_    0.720647 0.603507 0.826470 0.124957
H33   H     H_    0.279764 0.600973 0.173872 0.121428
H34   H     H_    0.219821 0.107728 0.826943 0.121607
H35   H     H_    0.781407 0.110136 0.181500 0.113199
H36   H     H_    0.436805 0.662343 0.669638 0.126980
H37   H     H_    0.561768 0.666689 0.334160 0.126994
H38   H     H_    0.902937 0.107494 0.668705 0.146368
H39   H     H_    0.741459 0.219980 0.437880 0.160000
H40   H     H_    0.070176 0.160839 0.334554 0.129747
H41   H     H_    0.608488 0.786770 0.348662 0.134042
H42   H     H_    0.389008 0.775052 0.663628 0.138944
H43   H     H_    0.111855 0.284948 0.350191 0.137571
H44   H     H_    0.796598 0.116320 0.636085 0.147946
H45   H     H_    0.188987 0.186533 0.332400 0.121143
H46   H     H_    0.204978 0.044764 0.348585 0.150017
H47   H     H_    0.312133 0.988448 0.515871 0.119743
H48   H     H_    0.402220 0.074089 0.670117 0.116303
H49   H     H_    0.386822 0.215956 0.656098 0.148176
H50   H     H_    0.211630 0.396121 0.422453 0.141249
H51   H     H_    0.574541 0.142201 0.505122 0.114515
H52   H     H_    0.488237 0.045768 0.367614 0.118414
H53   H     H_    0.472304 0.025844 0.197057 0.120526
H54   H     H_    0.542402 0.103455 0.163431 0.111313
H55   H     H_    0.627964 0.200387 0.298471 0.137835
H56   H     H_    0.690311 0.685258 0.348324 0.120636
H57   H     H_    0.707154 0.544931 0.384947 0.141494
H58   H     H_    0.812956 0.497051 0.562459 0.120221
H59   H     H_    0.902986 0.590468 0.703009 0.116564
H60   H     H_    0.886962 0.730745 0.668406 0.152533
H61   H     H_    0.757020 0.250011 0.656856 0.148325
H62   H     H_    0.248887 0.675731 0.619631 0.116049
H63   H     H_    0.219917 0.540588 0.549357 0.127988
H64   H     H_    0.159914 0.513998 0.353320 0.102115
H65   H     H_    0.131953 0.621565 0.229301 0.122804
H66   H     H_    0.161427 0.756400 0.298097 0.156814
H67   H     H_    0.670033 0.369851 0.040148 0.134462
H68   H     H_    0.616700 0.359063 0.129704 0.163012
H69   H     H_    0.546646 0.241986 0.099974 0.145621
H70   H     H_    0.531870 0.134631 0.981407 0.108624
H71   H     H_    0.583137 0.145690 0.887813 0.119963
H72   H     H_    0.705008 0.900130 0.416642 0.154199
H73   H     H_    0.296179 0.373745 0.939998 0.138140
H74   H     H_    0.305825 0.360292 0.793398 0.148334
H75   H     H_    0.359450 0.242721 0.782500 0.141683
H76   H     H_    0.405470 0.139468 0.920487 0.117070
H77   H     H_    0.396829 0.152268 0.067980 0.126459
H78   H     H_    0.166292 0.855981 0.031477 0.132386
H79   H     H_    0.114425 0.840537 0.123104 0.166382
H80   H     H_    0.042578 0.723891 0.087153 0.130511
H81   H     H_    0.023959 0.621409 0.959713 0.111582
H82   H     H_    0.074610 0.636572 0.865517 0.122933
H83   H     H_    0.302651 0.890854 0.611571 0.139574
H84   H     H_    0.792327 0.874379 0.949329 0.140775
H85   H     H_    0.794839 0.870831 0.794752 0.143187
H86   H     H_    0.848114 0.759486 0.771544 0.142302
H87   H     H_    0.901683 0.652556 0.905163 0.118573
H88   H     H_    0.901219 0.655852 0.061730 0.125707
H89   H     H_    0.446404 0.735306 0.125367 0.138282
H90   H     H_    0.538631 0.751058 0.106997 0.127138
H91   H     H_    0.608347 0.637887 0.127920 0.122013
H92   H     H_    0.584930 0.508172 0.166422 0.150954
H93   H     H_    0.496102 0.492630 0.193164 0.151206
H94   H     H_    0.211999 0.626591 0.999722 0.147567
H95   H     H_    0.552406 0.741431 0.866712 0.138600
H96   H     H_    0.464592 0.757020 0.894621 0.126256
H97   H     H_    0.400923 0.642130 0.889007 0.118965
H98   H     H_    0.429623 0.510913 0.864596 0.164512
H99   H     H_    0.514819 0.494661 0.829167 0.155501
H100  H     H_    0.947920 0.247281 0.140722 0.139795
H101  H     H_    0.033060 0.267651 0.107865 0.131149
H102  H     H_    0.098595 0.156256 0.112302 0.124953
H103  H     H_    0.073691 0.023393 0.138864 0.159615
H104  H     H_    0.987180 0.001890 0.171104 0.161621
N1    N     N_R   0.389060 0.424180 0.294540 -0.062759
N2    N     N_R   0.374530 0.423490 0.443400 -0.051719
N3    N     N_R   0.125470 0.923490 0.556600 -0.052987
N4    N     N_R   0.874530 0.923490 0.443400 -0.053256
N5    N     N_R   0.555250 0.423100 0.705420 -0.057849
N6    N     N_R   0.444750 0.423100 0.294580 -0.063001
N7    N     N_R   0.055250 0.923100 0.705420 -0.056016
N8    N     N_R   0.944750 0.923100 0.294580 -0.057931
N9    N     N_R   0.375210 0.577180 0.443400 -0.040639
N10   N     N_R   0.624790 0.577180 0.556600 -0.039207
N11   N     N_R   0.875210 0.077180 0.443400 -0.044277
N12   N     N_R   0.610940 0.424180 0.705460 -0.062981
N13   N     N_R   0.124790 0.077180 0.556600 -0.040458
N14   N     N_R   0.445430 0.577570 0.294580 -0.066000
N15   N     N_R   0.554570 0.577570 0.705420 -0.065394
N16   N     N_R   0.945430 0.077570 0.294580 -0.064971
N17   N     N_R   0.054570 0.077570 0.705420 -0.062070
N18   N     N_R   0.611620 0.576500 0.705460 -0.053324
N19   N     N_R   0.388380 0.576500 0.294540 -0.052520
N20   N     N_R   0.111620 0.076500 0.705460 -0.053220
N21   N     N_R   0.888380 0.076500 0.294540 -0.053045
N22   N     N_R   0.421010 0.576890 0.556640 -0.043284
N23   N     N_R   0.889060 0.924180 0.294540 -0.064321
N24   N     N_R   0.578990 0.576890 0.443360 -0.044144
N25   N     N_R   0.921010 0.076890 0.556640 -0.048302
N26   N     N_R   0.078990 0.076890 0.443360 -0.041640
N27   N     N_R   0.110940 0.924180 0.705460 -0.062849
N28   N     N_R   0.579670 0.423790 0.443360 -0.065368
N29   N     N_R   0.420330 0.423790 0.556640 -0.064935
N30   N     N_R   0.079670 0.923790 0.443360 -0.065228
N31   N     N_R   0.920330 0.923790 0.556640 -0.063857
N32   N     N_R   0.625470 0.423490 0.556600 -0.045885
Ni1   Ni    Ni4+2 0.383200 0.500680 0.370150 0.239865
Ni2   Ni    Ni4+2 0.616800 0.500680 0.629850 0.247511
Ni3   Ni    Ni4+2 0.883200 0.000680 0.370150 0.237162
Ni4   Ni    Ni4+2 0.116800 0.000680 0.629850 0.239848
Ni5   Ni    Ni4+2 0.512440 0.500680 0.370150 0.222624
Ni6   Ni    Ni4+2 0.487560 0.500680 0.629850 0.229748
Ni7   Ni    Ni4+2 0.012440 0.000680 0.370150 0.230195
Ni8   Ni    Ni4+2 0.987560 0.000680 0.629850 0.232866

loop_
_geom_bond_atom_site_label_1
_geom_bond_atom_site_label_2
_ccdc_geom_bond_type
C149  C150  A    
C51   H102  S    
C11   C12   A    
C56   H4    S    
C137  C138  A    
C110  H26   S    
C107  N6    A    
N17   N20   A    
C55   H3    S    
C128  H32   S    
C119  N9    A    
C64   C71   S    
C119  C142  A    
N5    Ni6   S    
C106  H23   S    
C48   C49   A    
N8    Ni7   S    
C26   C27   A    
N16   N21   A    
C42   H95   S    
C86   H12   S    
C83   C88   D    
C91   H16   S    
C84   H10   S    
C119  H27   S    
C15   C81   S    
C132  N21   A    
C128  N18   A    
C73   C78   D    
C63   C74   S    
C89   C97   D    
C92   C101  D    
C61   C127  A    
C29   H84   S    
C52   H103  S    
C121  N10   A    
C34   C36   A    
C43   H96   S    
N7    N27   A    
N11   Ni3   S    
C94   N29   A    
Br5   C93   S    
C88   H13   S    
C43   C44   A    
C57   C91   S    
C24   C131  A    
C68   H17   S    
C98   H36   S    
C30   H85   S    
C144  H54   S    
C56   C58   A    
N3    N30   A    
N1    N6    A    
C4    H63   S    
C29   C30   A    
C20   H77   S    
C99   H2    S    
C16   C17   A    
C109  N24   A    
Br8   C96   S    
C146  C147  A    
N30   Ni7   S    
N23   Ni3   S    
C64   H43   S    
C28   C83   S    
C50   H101  S    
C150  C151  A    
N10   N24   A    
C5    H64   S    
C106  N5    A    
C145  H55   S    
C95   N30   A    
C41   C125  S    
C45   H98   S    
C103  C116  A    
C35   C89   S    
C136  C137  A    
C48   C126  S    
N4    Ni3   S    
C124  N14   A    
C108  H25   S    
C21   C27   A    
C125  N15   A    
C54   C60   A    
C78   C146  S    
C2    C121  A    
C7    C152  A    
C90   H15   S    
C22   C23   A    
C149  H58   S    
C77   C115  S    
Br6   C94   S    
C147  H56   S    
C139  C145  A    
C61   C92   S    
C36   H89   S    
C151  H60   S    
C143  H53   S    
C147  C148  A    
N25   Ni8   S    
N26   Ni7   S    
C40   H93   S    
C93   N28   A    
C135  C136  A    
C71   H50   S    
C98   C142  A    
C78   C118  S    
N24   Ni5   S    
C139  C140  A    
C141  H52   S    
C92   H18   S    
C107  H24   S    
C96   N31   A    
C91   C100  D    
N2    N29   A    
C28   C29   A    
C141  C143  A    
C30   C31   A    
C135  H46   S    
C84   C100  S    
C105  H22   S    
C121  H29   S    
C15   C16   A    
C87   N27   A    
C75   C116  S    
C108  N7    A    
C136  H47   S    
C58   C59   A    
C100  H8    S    
N15   Ni6   S    
Br7   C95   S    
C5    C6    A    
C26   H81   S    
C22   H78   S    
C101  H9    S    
N6    Ni5   S    
C110  N8    A    
N28   N32   A    
C31   C32   A    
C75   C133  S    
C131  H40   S    
C8    C9    A    
C105  C118  A    
C17   C18   A    
C41   C47   A    
C102  N32   A    
C54   C127  S    
C21   C22   A    
C31   H86   S    
C2    C67   S    
N19   Ni1   S    
C68   C142  S    
C9    C10   A    
N28   Ni5   S    
C34   C40   A    
C15   C20   A    
C13   C120  A    
N27   Ni4   S    
Br2   C65   S    
C19   H76   S    
C17   H74   S    
C107  C111  A    
N14   N19   A    
C33   H88   S    
C138  H49   S    
C44   C45   A    
C61   C130  A    
C120  N25   A    
C58   H5    S    
C134  C135  A    
N16   Ni7   S    
C77   C139  S    
N12   Ni2   S    
C104  H21   S    
C67   H1    S    
C126  N16   A    
C146  C151  A    
C2    C109  A    
C9    H67   S    
C49   C50   A    
C66   H44   S    
C102  H19   S    
C74   H83   S    
C47   H99   S    
C81   C85   D    
C95   C117  A    
C132  H35   S    
N9    Ni1   S    
C38   H91   S    
C55   C56   A    
C122  H30   S    
C51   C52   A    
N14   Ni5   S    
C144  C145  A    
C41   C42   A    
C83   C113  S    
C130  N20   A    
C62   C67   D    
C69   H28   S    
C6    C7    A    
C72   H61   S    
C24   C123  A    
C85   C101  S    
C63   H42   S    
C86   C97   S    
C32   H87   S    
C37   C38   A    
N8    N23   A    
N18   Ni2   S    
C18   C19   A    
C108  C114  A    
C97   H94   S    
C63   C68   D    
C65   N12   A    
C10   C11   A    
C24   C69   S    
C14   H71   S    
C81   C111  S    
C150  H59   S    
C13   C70   S    
C143  C144  A    
C148  H57   S    
C80   C112  S    
C57   C126  A    
N5    N12   A    
N32   Ni2   S    
C65   C112  A    
C66   C72   S    
N2    Ni1   S    
N9    N22   A    
C28   C33   A    
N7    Ni8   S    
C94   C116  A    
C21   C82   S    
C3    C152  A    
C82   C86   D    
C130  H34   S    
C12   H70   S    
C59   C60   A    
C25   H80   S    
Br1   C1    S    
C103  N2    A    
C140  H51   S    
C50   C51   A    
C46   C125  A    
N20   Ni4   S    
C90   C99   D    
C52   C53   A    
C72   C77   D    
N13   Ni4   S    
C42   C43   A    
C93   C115  A    
N17   Ni8   S    
C10   H68   S    
C133  C138  A    
C6    H65   S    
C76   N23   A    
C12   C14   A    
C103  H20   S    
C74   C79   D    
C70   H39   S    
C36   C37   A    
C23   H79   S    
C38   C39   A    
C85   H11   S    
C8    C14   A    
C89   H14   S    
C98   N22   A    
N22   Ni6   S    
N1    Ni1   S    
C105  N4    A    
C71   C75   D    
C1    N1    A    
C44   H97   S    
C123  N13   A    
C129  N19   A    
C66   C70   D    
Br3   C76   S    
C8    C80   S    
C48   C53   A    
C34   C124  S    
C131  N26   A    
C106  C112  A    
C18   H75   S    
C127  N17   A    
C54   C55   A    
C35   C124  A    
N10   Ni2   S    
C102  C115  A    
C134  H45   S    
Br4   C87   S    
C79   C152  S    
N15   N18   A    
C62   C73   S    
C16   H73   S    
C57   C132  A    
C80   C84   D    
C73   H72   S    
C23   C25   A    
C62   H41   S    
N21   Ni3   S    
C82   C114  S    
C3    H62   S    
C120  H38   S    
C45   C47   A    
C129  H33   S    
C7    H66   S    
C140  C141  A    
N11   N25   A    
N13   N26   A    
C110  C113  A    
C148  C149  A    
C64   C69   D    
C37   H90   S    
C11   H69   S    
C39   C40   A    
C104  N3    A    
C46   C128  A    
C25   C26   A    
C104  C117  A    
N3    Ni4   S    
C4    C5    A    
C39   H92   S    
C59   H6    S    
C32   C33   A    
C1    C111  A    
C79   C117  S    
C109  H37   S    
C87   C114  A    
C88   C99   S    
C53   H104  S    
C3    C4    A    
C123  H31   S    
C49   H100  S    
N4    N31   A    
N29   Ni6   S    
C133  C134  A    
C35   C129  A    
C13   C122  A    
C60   H7    S    
C96   C118  A    
C27   H82   S    
C19   C20   A    
C46   C90   S    
C122  N11   A    
C137  H48   S    
N31   Ni8   S    
C76   C113  A    
