data_mof_unit_18162.cif
_audit_creation_date              2012-12-10T18:35:02-0500
_audit_creation_method            fapswitch 2.2
_symmetry_space_group_name_H-M    P1
_symmetry_Int_Tables_number       1
_space_group_crystal_system       triclinic
_cell_length_a                    15.160606
_cell_length_b                    13.93682
_cell_length_c                    10.774272
_cell_angle_alpha                 90.024113
_cell_angle_beta                  92.554245
_cell_angle_gamma                 90.506728
_cell_volume                      2274.15133624

loop_
_atom_site_label
_atom_site_type_symbol
_atom_type_description
_atom_site_fract_x
_atom_site_fract_y
_atom_site_fract_z
_atom_type_partial_charge
C1    C     C_R   0.329698 0.499305 0.494838 0.775486
C2    C     C_R   0.669477 0.500335 0.496897 0.753994
C3    C     C_R   0.232428 0.498202 0.486986 -0.072237
C4    C     C_R   0.765011 0.501503 0.488577 -0.042640
C5    C     C_R   0.181807 0.416051 0.448431 0.154167
C6    C     C_R   0.807554 0.447480 0.397850 0.149698
C7    C     C_R   0.089905 0.419413 0.452433 -0.192692
C8    C     C_R   0.899533 0.452087 0.395325 -0.190438
C9    C     C_R   0.046873 0.503797 0.484800 0.082306
C10   C     C_R   0.949589 0.505789 0.483882 0.078871
C11   C     C_R   0.460097 0.108177 0.594056 -0.306188
C12   C     C_R   0.538367 0.108884 0.404591 -0.303627
C13   C     C_R   0.461307 0.209171 0.592790 0.078659
C14   C     C_R   0.538124 0.209875 0.406717 0.072156
C15   C     C_R   0.499074 0.056482 0.499191 0.170519
C16   C     C_R   0.435360 0.895157 0.428302 0.043839
C17   C     C_R   0.563443 0.897196 0.570879 0.045345
C18   C     C_R   0.439252 0.792149 0.424766 0.299674
C19   C     C_R   0.560344 0.794222 0.574619 0.299433
C20   C     C_R   0.499279 0.947906 0.499401 -0.025722
C21   C     C_R   0.500858 0.500134 0.262654 0.762221
C22   C     C_R   0.501643 0.499790 0.737531 0.793444
C23   C     C_R   0.655908 0.571065 0.139223 -0.202756
C24   C     C_R   0.661585 0.554005 0.881748 -0.188933
C25   C     C_R   0.732006 0.597730 0.079273 -0.145967
C26   C     C_R   0.735220 0.588101 0.950960 -0.136707
C27   C     C_R   0.582789 0.530253 0.940037 0.101188
C28   C     C_R   0.581030 0.535081 0.070841 0.096314
C29   C     C_R   0.505316 0.500736 0.129291 -0.088573
C30   C     C_R   0.506398 0.498616 0.871614 -0.090717
C31   C     C_R   0.432771 0.464099 0.059867 -0.210790
C32   C     C_R   0.432833 0.464232 0.931576 -0.205982
C33   C     C_R   0.097038 0.585613 0.516857 -0.179660
C34   C     C_R   0.906293 0.559258 0.572658 -0.168023
C35   C     C_R   0.188607 0.582444 0.519436 -0.230326
C36   C     C_R   0.814748 0.558310 0.573507 -0.232277
Cu1   Cu    Cu3+1 0.500000 0.596430 0.500000 0.928511
Cu2   Cu    Cu3+1 0.500000 0.403570 0.500000 0.928809
H1    H     H_    0.375170 0.437206 0.105338 0.132996
H2    H     H_    0.375046 0.438085 0.878627 0.137744
H3    H     H_    0.656982 0.577535 0.239211 0.145443
H4    H     H_    0.667541 0.543730 0.783167 0.109634
H5    H     H_    0.789252 0.624134 0.132899 0.138220
H6    H     H_    0.795122 0.606459 0.904965 0.129151
H7    H     H_    0.065662 0.652443 0.539598 0.130435
H8    H     H_    0.943024 0.600362 0.643166 0.128977
H9    H     H_    0.225207 0.646606 0.547296 0.165138
H10   H     H_    0.782735 0.600016 0.643091 0.132840
H11   H     H_    0.051831 0.355210 0.429313 0.127921
H12   H     H_    0.931931 0.413515 0.323142 0.126918
H13   H     H_    0.429253 0.070558 0.668835 0.132163
H14   H     H_    0.568949 0.071828 0.329567 0.132268
H15   H     H_    0.430789 0.247802 0.666327 0.121551
H16   H     H_    0.568626 0.249096 0.333260 0.134651
N1    N     N_R   0.500000 0.258690 0.500000 -0.165580
N2    N     N_R   0.500000 0.741330 0.500000 -0.190902
O1    O     O_R   0.371460 0.581430 0.500010 -0.586513
O2    O     O_R   0.628540 0.581430 0.499990 -0.593398
O3    O     O_R   0.371470 0.418560 0.500010 -0.575916
O4    O     O_R   0.628530 0.418560 0.499990 -0.569242
O5    O     O_R   0.500000 0.581450 0.319650 -0.584746
O6    O     O_R   0.500000 0.581450 0.680350 -0.580177
O7    O     O_R   0.500010 0.418580 0.319650 -0.593881
O8    O     O_R   0.499990 0.418580 0.680350 -0.584708
C37   C     C_3   0.360880 0.949820 0.359160 -0.381277
C38   C     C_3   0.282103 0.962152 0.441083 -0.844039
H17   H     H_    0.255864 0.891369 0.469805 0.247821
H18   H     H_    0.301578 0.004154 0.525547 0.253138
H19   H     H_    0.228836 0.001154 0.388752 0.237643
H20   H     H_    0.383036 0.021687 0.328682 0.208236
H21   H     H_    0.338327 0.914832 0.271032 0.198184
C39   C     C_3   0.637160 0.954001 0.640781 -0.381528
C40   C     C_3   0.716019 0.969356 0.559426 -0.825537
H22   H     H_    0.742778 0.899589 0.529608 0.247582
H23   H     H_    0.696503 0.011710 0.475657 0.254279
H24   H     H_    0.768920 0.009274 0.612688 0.237219
H25   H     H_    0.614080 0.024902 0.671905 0.210812
H26   H     H_    0.659934 0.919290 0.728679 0.198246
C41   C     C_3   0.375096 0.743145 0.332393 -0.764228
H27   H     H_    0.376976 0.665818 0.325256 0.269316
H28   H     H_    0.306172 0.760004 0.354400 0.200969
H29   H     H_    0.388251 0.768418 0.237233 0.186144
C42   C     C_3   0.624830 0.747156 0.666095 -0.779272
H30   H     H_    0.622162 0.670224 0.669818 0.269711
H31   H     H_    0.693686 0.765771 0.644249 0.202491
H32   H     H_    0.611511 0.770759 0.761837 0.194946
C43   C     C_3   0.220666 0.325290 0.396530 -0.392629
C44   C     C_3   0.235277 0.249650 0.497655 -0.794292
H33   H     H_    0.270304 0.187396 0.459340 0.242255
H34   H     H_    0.275304 0.279265 0.577659 0.257267
H35   H     H_    0.170815 0.224453 0.531103 0.234417
H36   H     H_    0.174735 0.294682 0.323138 0.179648
H37   H     H_    0.282280 0.339927 0.347949 0.212763
C45   C     C_3   0.758372 0.386202 0.300764 -0.409664
C46   C     C_3   0.766728 0.279799 0.332207 -0.820655
H38   H     H_    0.739023 0.264814 0.424011 0.266166
H39   H     H_    0.729717 0.236461 0.260419 0.228596
H40   H     H_    0.837032 0.257858 0.334512 0.242908
H41   H     H_    0.687475 0.404361 0.290723 0.208290
H42   H     H_    0.785871 0.399636 0.208343 0.202709

loop_
_geom_bond_atom_site_label_1
_geom_bond_atom_site_label_2
_ccdc_geom_bond_type
C19   N2    A    
C38   H18   S    
C43   C44   S    
C4    C36   A    
C24   H4    S    
C40   H22   S    
C46   H38   S    
C24   C27   A    
C35   H9    S    
C25   H5    S    
Cu1   O6    S    
C46   H40   S    
C26   H6    S    
C39   H25   S    
C28   C29   A    
C24   C26   A    
C1    O3    A    
C2    O4    A    
C38   H19   S    
C37   H20   S    
C17   C20   A    
C33   H7    S    
C39   H26   S    
C17   C19   A    
Cu1   N2    S    
C11   C15   A    
Cu2   N1    S    
C42   H30   S    
C18   C41   S    
C6    C45   S    
C12   C15   A    
C36   H10   S    
C34   H8    S    
C3    C35   A    
C9    C10   S    
Cu2   O8    S    
Cu1   O2    S    
C18   N2    A    
C23   C25   A    
C38   H17   S    
C43   H36   S    
C27   C30   A    
C9    C33   A    
C40   H23   S    
C19   C42   S    
C12   H14   S    
C13   H15   S    
C15   C20   S    
C7    H11   S    
C4    C6    A    
C5    C7    A    
C6    C8    A    
C25   C26   A    
C37   H21   S    
C21   C29   S    
Cu2   O3    S    
C1    C3    S    
C2    C4    S    
Cu1   Cu2   S    
C1    O1    A    
C22   O6    A    
C31   C32   A    
C44   H35   S    
C45   H42   S    
C16   C20   A    
C46   H39   S    
C10   C34   A    
C23   C28   A    
Cu2   O4    S    
C16   C18   A    
C42   H31   S    
C44   H34   S    
C40   H24   S    
C8    H12   S    
C41   H28   S    
Cu2   O7    S    
C7    C9    A    
C22   C30   S    
C14   H16   S    
C21   O5    A    
C12   C14   A    
C39   C40   S    
C3    C5    A    
C41   H29   S    
Cu1   O5    S    
C2    O2    A    
C23   H3    S    
C29   C31   A    
C30   C32   A    
C11   C13   A    
C45   H41   S    
C43   H37   S    
C33   C35   A    
C31   H1    S    
C14   N1    A    
C34   C36   A    
C32   H2    S    
C45   C46   S    
C21   O7    A    
C11   H13   S    
C22   O8    A    
C41   H27   S    
C5    C43   S    
C42   H32   S    
C44   H33   S    
C17   C39   S    
C8    C10   A    
C37   C38   S    
C27   C28   A    
C16   C37   S    
Cu1   O1    S    
C13   N1    A    
