data_mof_unit_65366.cif
_audit_creation_date              2012-12-10T16:52:54-0500
_audit_creation_method            fapswitch 2.2
_symmetry_space_group_name_H-M    P1
_symmetry_Int_Tables_number       1
_space_group_crystal_system       triclinic
_cell_length_a                    26.224973
_cell_length_b                    26.227852
_cell_length_c                    22.269701
_cell_angle_alpha                 90.005132
_cell_angle_beta                  53.94935
_cell_angle_gamma                 90.022794
_cell_volume                      12384.2744983

loop_
_atom_site_label
_atom_site_type_symbol
_atom_type_description
_atom_site_fract_x
_atom_site_fract_y
_atom_site_fract_z
_atom_type_partial_charge
C1    C     C_R   0.650301 0.250001 0.699454 0.812139
C2    C     C_R   0.650288 0.750004 0.699459 0.809567
C3    C     C_R   0.150301 0.750003 0.699454 0.812447
C4    C     C_R   0.150288 0.250003 0.699459 0.810111
C5    C     C_3   0.941319 0.233657 0.025226 -0.238456
C6    C     C_3   0.940759 0.764845 0.025204 -0.238344
C7    C     C_3   0.439472 0.740249 0.025232 -0.239275
C8    C     C_3   0.439770 0.261363 0.025207 -0.238803
C9    C     C_1   0.889402 0.250023 0.221178 -0.146988
C10   C     C_1   0.889330 0.749965 0.221191 -0.148635
C11   C     C_1   0.389399 0.750028 0.221178 -0.146995
C12   C     C_1   0.389324 0.249957 0.221191 -0.148613
C13   C     C_1   0.610461 0.750156 0.778831 -0.124701
C14   C     C_1   0.610468 0.249847 0.778832 -0.123332
C15   C     C_1   0.110460 0.250143 0.778830 -0.124749
C16   C     C_1   0.110472 0.749859 0.778832 -0.123293
C17   C     C_3   0.995366 0.298213 0.025371 -0.130328
C18   C     C_3   0.996796 0.702083 0.025410 -0.130804
C19   C     C_3   0.501999 0.796627 0.025369 -0.129291
C20   C     C_3   0.500273 0.202900 0.025412 -0.130349
C21   C     C_3   0.963269 0.250066 0.073384 0.095821
C22   C     C_3   0.963171 0.749938 0.073398 0.095497
C23   C     C_3   0.463265 0.750078 0.073384 0.095738
C24   C     C_3   0.463157 0.249917 0.073398 0.095466
C25   C     C_3   0.557823 0.760203 0.976116 0.214485
C26   C     C_3   0.557354 0.238247 0.976169 0.215369
C27   C     C_3   0.055971 0.266503 0.976119 0.214117
C28   C     C_3   0.056387 0.734949 0.976173 0.215183
C29   C     C_3   0.536163 0.750537 0.926708 0.053039
C30   C     C_3   0.536098 0.249479 0.926718 0.052267
C31   C     C_3   0.036116 0.250466 0.926708 0.053109
C32   C     C_3   0.036085 0.749533 0.926719 0.052304
C33   C     C_3   0.024980 0.218793 0.024977 -0.316142
C34   C     C_3   0.023880 0.782417 0.025005 -0.316530
C35   C     C_3   0.520242 0.713874 0.024975 -0.316447
C36   C     C_3   0.521381 0.284990 0.024999 -0.316577
C37   C     C_3   0.497097 0.705191 0.976044 0.581245
C38   C     C_3   0.498605 0.295284 0.976028 0.580696
C39   C     C_3   0.003517 0.203555 0.976041 0.581310
C40   C     C_3   0.001994 0.796158 0.976030 0.580778
C41   C     C_1   0.922760 0.250043 0.154427 -0.042851
C42   C     C_1   0.922663 0.749950 0.154441 -0.043832
C43   C     C_1   0.422757 0.750053 0.154428 -0.042805
C44   C     C_1   0.422653 0.249935 0.154441 -0.043791
C45   C     C_R   0.849733 0.250011 0.300546 0.811555
C46   C     C_R   0.849703 0.749978 0.300557 0.810073
C47   C     C_R   0.349732 0.750012 0.300546 0.811631
C48   C     C_R   0.349703 0.249978 0.300557 0.810129
C49   C     C_1   0.576921 0.750323 0.845582 -0.013024
C50   C     C_1   0.576901 0.249686 0.845587 -0.011924
C51   C     C_1   0.076904 0.250286 0.845582 -0.013142
C52   C     C_1   0.076901 0.749717 0.845587 -0.011948
C53   C     C_2   0.492438 0.217935 0.461084 0.536997
C54   C     C_2   0.493646 0.781154 0.457455 0.483124
C55   C     C_2   0.992433 0.717927 0.461095 0.537139
C56   C     C_2   0.993643 0.281157 0.457458 0.483110
C57   C     C_2   0.439768 0.245016 0.508296 -0.458295
C58   C     C_2   0.446500 0.746881 0.495246 -0.448961
C59   C     C_2   0.939767 0.745016 0.508298 -0.458468
C60   C     C_2   0.946500 0.246882 0.495246 -0.449074
C61   C     C_2   0.536913 0.209470 0.480888 0.133119
C62   C     C_2   0.554173 0.772747 0.447012 0.133854
C63   C     C_2   0.036907 0.709466 0.480901 0.133134
C64   C     C_2   0.054172 0.272752 0.447015 0.134029
C65   C     C_2   0.557555 0.250873 0.496879 -0.447023
C66   C     C_2   0.554736 0.752278 0.502302 -0.414406
C67   C     C_2   0.057554 0.750872 0.496881 -0.447154
C68   C     C_2   0.054736 0.252278 0.502302 -0.414554
C69   C     C_2   0.745475 0.972224 0.456890 -0.283921
C70   C     C_2   0.737855 0.027788 0.463451 -0.284487
C71   C     C_2   0.245465 0.472224 0.456898 -0.283880
C72   C     C_2   0.237845 0.527788 0.463461 -0.284487
C73   C     C_2   0.736996 0.943296 0.511938 0.487018
C74   C     C_2   0.763079 0.056686 0.489672 0.488621
C75   C     C_2   0.236993 0.443296 0.511941 0.486976
C76   C     C_2   0.263080 0.556686 0.489669 0.488674
C77   C     C_R   0.888857 0.249989 0.499771 0.888607
C78   C     C_R   0.888587 0.749710 0.500372 0.901689
C79   C     C_R   0.388858 0.749989 0.499771 0.888721
C80   C     C_R   0.388587 0.249711 0.500371 0.901838
C81   C     C_R   0.610960 0.249301 0.500804 0.872756
C82   C     C_R   0.611588 0.749787 0.499463 0.896497
C83   C     C_R   0.110960 0.749301 0.500804 0.872677
C84   C     C_R   0.111588 0.249787 0.499463 0.896398
C85   C     C_R   0.751517 0.111435 0.498755 0.697879
C86   C     C_R   0.748443 0.888566 0.501383 0.699605
C87   C     C_R   0.251517 0.611435 0.498754 0.697854
C88   C     C_R   0.248442 0.388566 0.501384 0.699618
C89   C     C_R   0.750177 0.388762 0.500093 0.917234
C90   C     C_R   0.750178 0.611279 0.500189 0.923063
C91   C     C_R   0.250177 0.888763 0.500095 0.917363
C92   C     C_R   0.250178 0.111280 0.500190 0.923393
C93   C     C_2   0.802120 0.527852 0.469242 0.432239
C94   C     C_2   0.801355 0.472572 0.454676 0.427411
C95   C     C_2   0.302118 0.027853 0.469266 0.432243
C96   C     C_2   0.301359 0.972573 0.454696 0.427204
C97   C     C_2   0.749917 0.555909 0.495704 -0.474597
C98   C     C_2   0.751270 0.444093 0.505601 -0.479166
C99   C     C_2   0.249918 0.055909 0.495709 -0.474329
C100  C     C_2   0.251269 0.944093 0.505608 -0.478926
C101  C     C_3   0.479371 0.786425 0.975636 -0.263518
C102  C     C_3   0.478065 0.214707 0.975637 -0.261412
C103  C     C_3   0.974629 0.281487 0.975633 -0.263593
C104  C     C_3   0.975589 0.717321 0.975633 -0.261511
H1    H     H_    0.432351 0.262493 0.557146 0.128855
H2    H     H_    0.451047 0.713953 0.521276 0.126414
H3    H     H_    0.932353 0.762500 0.557143 0.128886
H4    H     H_    0.951048 0.213953 0.521274 0.126414
H5    H     H_    0.537909 0.288316 0.501172 0.139284
H6    H     H_    0.511417 0.739930 0.553816 0.130015
H7    H     H_    0.037913 0.788315 0.501164 0.139308
H8    H     H_    0.011418 0.239925 0.553814 0.129825
H9    H     H_    0.756375 0.954716 0.406361 0.140736
H10   H     H_    0.712616 0.045333 0.443859 0.140828
H11   H     H_    0.256358 0.454717 0.406372 0.140687
H12   H     H_    0.212599 0.545334 0.443879 0.140728
H13   H     H_    0.706144 0.538156 0.511733 0.119986
H14   H     H_    0.710396 0.461556 0.554919 0.126391
H15   H     H_    0.206150 0.038156 0.511723 0.119913
H16   H     H_    0.210389 0.961555 0.554920 0.126567
H17   H     H_    0.893427 0.219813 0.046576 0.144121
H18   H     H_    0.892452 0.777466 0.046530 0.144595
H19   H     H_    0.390013 0.731733 0.046587 0.143624
H20   H     H_    0.390636 0.271183 0.046535 0.144278
H21   H     H_    0.463290 0.815969 0.954551 0.161169
H22   H     H_    0.460987 0.186083 0.954544 0.162548
H23   H     H_    0.954687 0.307026 0.954544 0.161089
H24   H     H_    0.956483 0.690805 0.954538 0.162483
H25   H     H_    0.045670 0.193589 0.045490 0.143169
H26   H     H_    0.043742 0.808615 0.045528 0.142890
H27   H     H_    0.537114 0.684598 0.045484 0.142885
H28   H     H_    0.539238 0.313332 0.045518 0.142877
H29   H     H_    0.992056 0.337275 0.046591 0.139302
H30   H     H_    0.994703 0.663276 0.046650 0.139792
H31   H     H_    0.504069 0.834292 0.046588 0.140232
H32   H     H_    0.501011 0.164827 0.046654 0.140192
O1    O     O_3   0.750010 0.250010 0.500000 -0.501082
O2    O     O_3   0.750010 0.749990 0.500000 -0.503203
O3    O     O_3   0.250010 0.750010 0.500000 -0.501056
O4    O     O_3   0.250010 0.249990 0.500000 -0.503146
O5    O     O_R   0.886150 0.280070 0.456900 -0.576474
O6    O     O_R   0.886150 0.719930 0.456900 -0.572216
O7    O     O_R   0.386150 0.780070 0.456900 -0.576455
O8    O     O_R   0.386150 0.219930 0.456900 -0.572172
O9    O     O_R   0.613890 0.280040 0.543100 -0.634470
O10   O     O_R   0.613890 0.719960 0.543100 -0.649488
O11   O     O_R   0.113890 0.780040 0.543100 -0.634579
O12   O     O_R   0.113890 0.219960 0.543100 -0.649755
O13   O     O_R   0.697860 0.219970 0.664410 -0.634342
O14   O     O_R   0.697860 0.780030 0.664410 -0.636978
O15   O     O_R   0.197860 0.719970 0.664410 -0.634347
O16   O     O_R   0.197860 0.280030 0.664410 -0.637042
O17   O     O_R   0.802170 0.219970 0.335590 -0.640968
O18   O     O_R   0.802170 0.780030 0.335590 -0.636881
O19   O     O_R   0.302170 0.719970 0.335590 -0.641136
O20   O     O_R   0.302170 0.280030 0.335590 -0.636958
O21   O     O_R   0.637780 0.280050 0.664410 -0.630106
O22   O     O_R   0.637780 0.719950 0.664410 -0.629134
O23   O     O_R   0.137780 0.780050 0.664410 -0.630327
O24   O     O_R   0.137780 0.219950 0.664410 -0.629606
O25   O     O_R   0.862250 0.280060 0.335590 -0.625982
O26   O     O_R   0.862250 0.719940 0.335590 -0.632432
O27   O     O_R   0.362250 0.780060 0.335590 -0.625928
O28   O     O_R   0.362250 0.219940 0.335590 -0.632410
O29   O     O_R   0.843040 0.219980 0.543100 -0.654305
O30   O     O_R   0.843040 0.780020 0.543100 -0.651416
O31   O     O_R   0.343040 0.719980 0.543100 -0.654306
O32   O     O_R   0.343040 0.280020 0.543100 -0.651465
O33   O     O_R   0.656980 0.219970 0.456900 -0.635708
O34   O     O_R   0.656980 0.780030 0.456900 -0.609049
O35   O     O_R   0.156980 0.719970 0.456900 -0.635756
O36   O     O_R   0.156980 0.280030 0.456900 -0.609040
O37   O     O_R   0.758500 0.135440 0.543100 -0.600869
O38   O     O_R   0.758500 0.864560 0.543100 -0.601132
O39   O     O_R   0.258500 0.635440 0.543100 -0.600895
O40   O     O_R   0.258500 0.364560 0.543100 -0.601147
O41   O     O_R   0.698440 0.364590 0.543100 -0.654615
O42   O     O_R   0.698440 0.635410 0.543100 -0.654319
O43   O     O_R   0.198440 0.864590 0.543100 -0.654536
O44   O     O_R   0.198440 0.135410 0.543100 -0.654203
O45   O     O_R   0.741510 0.135430 0.456900 -0.675182
O46   O     O_R   0.741510 0.864570 0.456900 -0.673965
O47   O     O_R   0.241510 0.635430 0.456900 -0.675194
O48   O     O_R   0.241510 0.364570 0.456900 -0.674000
O49   O     O_R   0.801610 0.364600 0.456900 -0.577229
O50   O     O_R   0.801610 0.635400 0.456900 -0.581803
O51   O     O_R   0.301610 0.864600 0.456900 -0.577219
O52   O     O_R   0.301610 0.135400 0.456900 -0.581835
Zn1   Zn    Zn3+2 0.823730 0.292940 0.438410 1.017511
Zn2   Zn    Zn3+2 0.823730 0.707060 0.438410 1.020224
Zn3   Zn    Zn3+2 0.323730 0.792940 0.438410 1.017694
Zn4   Zn    Zn3+2 0.323730 0.207060 0.438410 1.020462
Zn5   Zn    Zn3+2 0.762140 0.207100 0.561590 0.979482
Zn6   Zn    Zn3+2 0.762140 0.792900 0.561590 0.983346
Zn7   Zn    Zn3+2 0.262140 0.707100 0.561590 0.979580
Zn8   Zn    Zn3+2 0.262140 0.292900 0.561590 0.983412
Zn9   Zn    Zn3+2 0.737880 0.207090 0.438410 0.950493
Zn10  Zn    Zn3+2 0.737880 0.792910 0.438410 0.957047
Zn11  Zn    Zn3+2 0.237880 0.707090 0.438410 0.950307
Zn12  Zn    Zn3+2 0.237880 0.292910 0.438410 0.956919
Zn13  Zn    Zn3+2 0.676310 0.292930 0.561590 0.972261
Zn14  Zn    Zn3+2 0.676310 0.707070 0.561590 0.967192
Zn15  Zn    Zn3+2 0.176310 0.792930 0.561590 0.972212
Zn16  Zn    Zn3+2 0.176310 0.207070 0.561590 0.966963
O53   O     O_3   0.857664 0.551672 0.448863 -0.565006
C105  C     C_3   0.885269 0.524860 0.477966 -0.275541
H33   H     H_    0.909753 0.490020 0.444931 0.192938
H34   H     H_    0.850095 0.515102 0.537707 0.133723
H35   H     H_    0.921370 0.549693 0.474037 0.186176
O54   O     O_3   0.854023 0.449392 0.392754 -0.569135
C106  C     C_3   0.873294 0.476225 0.327641 -0.261983
H36   H     H_    0.898925 0.511667 0.322092 0.201061
H37   H     H_    0.832868 0.484979 0.325391 0.132641
H38   H     H_    0.906556 0.451852 0.279026 0.183083
O55   O     O_3   0.357655 0.051674 0.448907 -0.565067
C107  C     C_3   0.385246 0.024863 0.478027 -0.275095
H39   H     H_    0.409737 0.990024 0.444995 0.192874
H40   H     H_    0.350062 0.015105 0.537766 0.134019
H41   H     H_    0.421340 0.049698 0.474114 0.186169
O56   O     O_3   0.354036 0.949395 0.392783 -0.569197
C108  C     C_3   0.373321 0.976227 0.327664 -0.261578
H42   H     H_    0.398946 0.011671 0.322126 0.201053
H43   H     H_    0.332904 0.984978 0.325397 0.132657
H44   H     H_    0.406593 0.951855 0.279053 0.183250
N1    N     N_2   0.557518 0.158831 0.481921 -0.275505
H45   H     H_    0.574774 0.154642 0.512952 0.237021
C109  C     C_3   0.517003 0.116668 0.493183 -0.788741
H46   H     H_    0.536847 0.080491 0.497183 0.220768
H47   H     H_    0.514261 0.112890 0.445590 0.282732
H48   H     H_    0.469028 0.122035 0.545506 0.232194
N2    N     N_2   0.611293 0.787998 0.378449 -0.253585
H49   H     H_    0.606481 0.818596 0.353106 0.253490
C110  C     C_3   0.645606 0.746532 0.326962 -0.734598
H50   H     H_    0.690761 0.761106 0.277118 0.231546
H51   H     H_    0.617407 0.729750 0.309347 0.226367
H52   H     H_    0.656667 0.716453 0.352790 0.230488
N3    N     N_2   0.057507 0.658828 0.481946 -0.275501
H53   H     H_    0.074770 0.654644 0.512970 0.236995
C111  C     C_3   0.016982 0.616666 0.493232 -0.789193
H54   H     H_    0.036824 0.580490 0.497239 0.220745
H55   H     H_    0.014231 0.612880 0.445647 0.282756
H56   H     H_    0.969012 0.622042 0.545558 0.232081
N4    N     N_2   0.111290 0.288010 0.378456 -0.253574
H57   H     H_    0.106475 0.318610 0.353119 0.253381
C112  C     C_3   0.145610 0.246550 0.326960 -0.735018
H58   H     H_    0.190764 0.261130 0.277120 0.231326
H59   H     H_    0.117415 0.229768 0.309339 0.226320
H60   H     H_    0.156674 0.216469 0.352782 0.230601
O57   O     O_3   0.716979 0.964565 0.579573 -0.528753
C113  C     C_3   0.652109 0.954403 0.631679 -0.296356
H61   H     H_    0.643079 0.912848 0.643176 0.145126
H62   H     H_    0.624137 0.970009 0.612935 0.138837
H63   H     H_    0.635550 0.973528 0.684686 0.199230
O58   O     O_3   0.800564 0.035343 0.508137 -0.529199
C114  C     C_3   0.864265 0.046024 0.450856 -0.297074
H64   H     H_    0.874246 0.087601 0.446834 0.145846
H65   H     H_    0.877839 0.031048 0.396467 0.139686
H66   H     H_    0.894266 0.026647 0.463880 0.198595
O59   O     O_3   0.216985 0.464565 0.579573 -0.528748
C115  C     C_3   0.152118 0.454401 0.631689 -0.296071
H67   H     H_    0.143091 0.412845 0.643187 0.145105
H68   H     H_    0.124137 0.470004 0.612955 0.138663
H69   H     H_    0.135565 0.473526 0.684694 0.199441
O60   O     O_3   0.300573 0.535340 0.508123 -0.529223
C116  C     C_3   0.364269 0.546064 0.450872 -0.296971
H70   H     H_    0.374219 0.587641 0.446939 0.145954
H71   H     H_    0.377863 0.531146 0.396448 0.139726
H72   H     H_    0.394276 0.526661 0.463865 0.198585
O61   O     O_3   0.496890 0.658293 0.945173 -0.597588
C117  C     C_3   0.457891 0.623425 0.002782 -0.310084
H73   H     H_    0.408331 0.637168 0.039337 0.156967
H74   H     H_    0.476149 0.615307 0.035951 0.154773
H75   H     H_    0.457738 0.586933 0.977711 0.196801
O62   O     O_3   0.500063 0.342689 0.945132 -0.597935
C118  C     C_3   0.462220 0.377862 0.002726 -0.309618
H76   H     H_    0.480642 0.384772 0.035999 0.154771
H77   H     H_    0.412197 0.365180 0.039185 0.157648
H78   H     H_    0.463393 0.414776 0.977635 0.196634
O63   O     O_3   0.010014 0.154937 0.945167 -0.597588
C119  C     C_3   0.975952 0.118990 0.002773 -0.311453
H79   H     H_    0.924777 0.128231 0.039286 0.157303
H80   H     H_    0.994961 0.115819 0.035987 0.154626
H81   H     H_    0.981035 0.081084 0.977700 0.196329
O64   O     O_3   0.006976 0.844464 0.945133 -0.597928
C120  C     C_3   0.971753 0.880212 0.002726 -0.310548
H82   H     H_    0.990598 0.884529 0.035988 0.154556
H83   H     H_    0.920885 0.869904 0.039195 0.157975
H84   H     H_    0.975668 0.917861 0.977633 0.196288
N5    N     N_2   0.622579 0.771142 0.947151 -0.296185
H85   H     H_    0.653895 0.744917 0.908145 0.227828
C121  C     C_3   0.633042 0.781661 0.002816 -0.767559
H86   H     H_    0.683268 0.791989 0.975177 0.240616
H87   H     H_    0.621874 0.747449 0.038007 0.232791
H88   H     H_    0.603387 0.814188 0.038248 0.247605
N6    N     N_2   0.621686 0.225613 0.947267 -0.294558
H89   H     H_    0.653924 0.251421 0.908259 0.227277
C122  C     C_3   0.631707 0.213811 0.002983 -0.775250
H90   H     H_    0.681542 0.202251 0.975394 0.240462
H91   H     H_    0.600905 0.181715 0.038430 0.246871
H92   H     H_    0.621714 0.247790 0.038155 0.231998
N7    N     N_2   0.118710 0.284350 0.947161 -0.296416
H93   H     H_    0.153574 0.260034 0.908155 0.228757
C123  C     C_3   0.127325 0.300103 0.002832 -0.765779
H94   H     H_    0.175752 0.315414 0.975201 0.241115
H95   H     H_    0.120870 0.267120 0.038018 0.233473
H96   H     H_    0.093240 0.330638 0.038270 0.246801
N8    N     N_2   0.119652 0.718682 0.947275 -0.294566
H97   H     H_    0.153753 0.743482 0.908263 0.227851
C124  C     C_3   0.128701 0.704133 0.002994 -0.774054
H98   H     H_    0.177586 0.689953 0.975406 0.240867
H99   H     H_    0.095573 0.673087 0.038445 0.246668
H100  H     H_    0.121188 0.737467 0.038160 0.231986
O65   O     O_3   0.501796 0.195493 0.398598 -0.571517
C125  C     C_3   0.565199 0.200721 0.336382 -0.284745
H101  H     H_    0.596290 0.174050 0.339816 0.188236
H102  H     H_    0.582195 0.240704 0.329518 0.143731
H103  H     H_    0.568494 0.190648 0.285824 0.187213
O66   O     O_3   0.488886 0.821452 0.420707 -0.568430
C126  C     C_3   0.480092 0.866750 0.459833 -0.301084
H104  H     H_    0.521783 0.875489 0.459500 0.143489
H105  H     H_    0.436606 0.864764 0.517927 0.148880
H106  H     H_    0.474148 0.898788 0.431927 0.199396
O67   O     O_3   0.001786 0.695473 0.398617 -0.571402
C127  C     C_3   0.065190 0.700687 0.336400 -0.285317
H107  H     H_    0.096273 0.674014 0.339845 0.188162
H108  H     H_    0.082198 0.740668 0.329520 0.143697
H109  H     H_    0.068483 0.690607 0.285846 0.187114
O68   O     O_3   0.988882 0.321457 0.420715 -0.568410
C128  C     C_3   0.980080 0.366752 0.459848 -0.301430
H110  H     H_    0.021767 0.375493 0.459522 0.143450
H111  H     H_    0.936592 0.364762 0.517941 0.148765
H112  H     H_    0.974135 0.398791 0.431945 0.199380

loop_
_geom_bond_atom_site_label_1
_geom_bond_atom_site_label_2
_ccdc_geom_bond_type
C114  H65   S    
C55   C59   D    
C122  H91   S    
C121  H86   S    
C107  H41   S    
C123  H95   S    
O20   Zn12  S    
N7    H93   S    
O64   C120  S    
C95   C99   D    
C21   C33   S    
C113  H62   S    
C23   C43   S    
C30   C38   S    
O62   C118  S    
C45   O25   A    
C32   C52   S    
C92   O44   A    
C118  H76   S    
C127  H107  S    
C83   O35   A    
C70   C74   D    
C32   C104  S    
C6    C104  S    
C91   C100  S    
C113  H63   S    
C112  H58   S    
C8    C38   S    
C4    O16   A    
O39   Zn7   S    
O3    Zn7   S    
O1    Zn5   S    
C25   C29   S    
C27   C31   S    
O67   C127  S    
C28   C32   S    
O16   Zn8   S    
C105  H33   S    
C38   O62   S    
C90   O50   A    
O44   Zn16  S    
C125  H101  S    
C96   O56   S    
C17   C21   S    
C86   O38   A    
O50   Zn2   S    
C19   C23   S    
O55   C107  S    
C66   C82   S    
C109  H46   S    
C104  H24   S    
C30   C102  S    
C18   C104  S    
C66   H6    S    
C74   O58   S    
C58   C79   S    
C115  H68   S    
O1    Zn9   S    
O38   Zn6   S    
C5    C39   S    
C17   H29   S    
C117  H74   S    
O26   Zn2   S    
O31   Zn7   S    
C7    H19   S    
C63   N3    S    
C48   O28   A    
C9    C41   T    
C81   O33   A    
O11   Zn15  S    
O4    Zn12  S    
C120  H83   S    
O2    Zn14  S    
C14   C50   T    
C127  H109  S    
C36   C38   S    
C97   H13   S    
C69   C70   S    
C61   N1    S    
C99   H15   S    
C61   C65   D    
C5    C21   S    
C12   C44   T    
C112  H60   S    
O7    Zn3   S    
C54   O66   S    
C79   O31   A    
C125  H102  S    
C80   O32   A    
C26   C30   S    
C6    C22   S    
C2    O14   A    
C5    C103  S    
C67   C83   S    
O45   Zn9   S    
N6    C122  S    
C64   N4    S    
C29   C49   S    
C27   C33   S    
C69   H9    S    
O57   C113  S    
C24   C36   S    
C64   C68   D    
C121  H87   S    
C107  H40   S    
C36   H28   S    
C87   O47   A    
O18   Zn10  S    
C88   O48   A    
C77   O29   A    
C68   H8    S    
O13   Zn5   S    
C53   C61   S    
O14   Zn6   S    
O60   C116  S    
O48   Zn12  S    
C55   C63   S    
C101  H21   S    
C56   C64   S    
C103  H23   S    
C110  H50   S    
C76   O60   S    
N3    H53   S    
C3    O23   A    
C128  H111  S    
C57   C80   S    
C37   O61   S    
C59   C78   S    
O56   C108  S    
C98   H14   S    
C73   O57   S    
C124  H99   S    
C22   C34   S    
O9    Zn13  S    
C62   C66   D    
C17   C27   S    
C118  H78   S    
C18   C28   S    
C119  H79   S    
C59   H3    S    
O2    Zn6   S    
C108  H42   S    
O4    Zn8   S    
N5    H85   S    
C7    C37   S    
C111  H55   S    
C20   H32   S    
C69   C73   D    
C116  H71   S    
C76   C87   S    
C109  H47   S    
C75   O59   S    
C94   O54   S    
C15   C51   T    
C83   O11   A    
O21   Zn13  S    
C93   C97   D    
O19   Zn11  S    
O12   Zn16  S    
O33   Zn9   S    
C91   O51   A    
C40   O64   S    
C85   O45   A    
C18   C22   S    
C89   O49   A    
O30   Zn6   S    
C31   C51   S    
O68   C128  S    
C84   O36   A    
C92   O52   A    
O49   Zn1   S    
C87   O39   A    
C88   O40   A    
C89   C98   S    
O52   Zn4   S    
O42   Zn14  S    
C71   C72   S    
O10   Zn14  S    
C115  H67   S    
O1    Zn13  S    
C7    C23   S    
C96   C100  D    
C8    C24   S    
O36   Zn12  S    
C18   H30   S    
O41   Zn13  S    
C74   C85   S    
C48   O20   A    
C110  H52   S    
C106  H38   S    
C127  H108  S    
C7    C101  S    
O27   Zn3   S    
C1    C14   S    
O28   Zn4   S    
C3    C16   S    
O59   C115  S    
C92   C99   S    
C90   O42   A    
C9    C45   S    
C10   C42   T    
C11   C47   S    
C111  H54   S    
C119  H81   S    
C12   C48   S    
C126  H105  S    
C108  H44   S    
O3    Zn3   S    
C78   O6    A    
C105  H34   S    
O22   Zn14  S    
C94   C98   D    
C19   H31   S    
N4    H57   S    
O6    Zn2   S    
C122  H90   S    
O15   Zn7   S    
C55   O67   S    
O63   C119  S    
C1    O13   A    
C90   C97   S    
C60   H4    S    
C47   O27   A    
C125  H103  S    
C84   O12   A    
C30   C50   S    
C114  H66   S    
C28   C34   S    
O61   C117  S    
C117  H75   S    
C115  H69   S    
C82   O10   A    
C123  H96   S    
N7    C123  S    
C46   O18   A    
C78   O30   A    
N8    H97   S    
C68   C84   S    
O5    Zn1   S    
N6    H89   S    
C53   C57   D    
C8    H20   S    
O8    Zn4   S    
C102  H22   S    
C113  H61   S    
C124  H98   S    
C56   C60   D    
C120  H82   S    
C65   C81   S    
C106  H36   S    
C2    O22   A    
C29   C101  S    
N2    C110  S    
C65   H5    S    
C25   C35   S    
C21   C41   S    
C67   H7    S    
C23   C35   S    
C112  H59   S    
O37   Zn5   S    
C24   C44   S    
C45   O17   A    
C35   H27   S    
C33   H25   S    
C118  H77   S    
C16   C52   T    
C56   O68   S    
O24   Zn16  S    
C54   C62   S    
C72   H12   S    
O58   C114  S    
O4    Zn16  S    
O3    Zn15  S    
C128  H112  S    
O65   C125  S    
C126  H104  S    
C39   O63   S    
C20   C102  S    
C62   N2    S    
C29   C37   S    
C86   O46   A    
C117  H73   S    
C57   H1    S    
C82   O34   A    
C93   C94   S    
C95   O55   S    
C128  H110  S    
C95   C96   S    
O46   Zn10  S    
C72   C76   D    
C93   O53   S    
C4    O24   A    
O53   C105  S    
C70   H10   S    
C33   C39   S    
C20   C26   S    
C34   C40   S    
C35   C37   S    
C119  H80   S    
C120  H84   S    
O3    Zn11  S    
O17   Zn9   S    
C5    H17   S    
C2    C13   S    
O35   Zn11  S    
N1    C109  S    
C123  H94   S    
N4    C112  S    
C91   O43   A    
C10   C46   S    
C85   O37   A    
C11   C43   T    
C100  H16   S    
C89   O41   A    
C116  H70   S    
O51   Zn3   S    
C126  H106  S    
O2    Zn2   S    
C63   C67   D    
C60   C77   S    
C20   C24   S    
C121  H88   S    
C107  H39   S    
O25   Zn1   S    
C122  H92   S    
C80   O8    A    
O47   Zn11  S    
C25   N5    S    
C58   H2    S    
C31   C103  S    
O66   C126  S    
C79   O7    A    
O23   Zn15  S    
N1    H45   S    
C71   H11   S    
O40   Zn8   S    
C110  H51   S    
C13   C49   T    
O1    Zn1   S    
O2    Zn10  S    
C106  H37   S    
O43   Zn15  S    
C81   O9    A    
N3    C111  S    
O32   Zn8   S    
O4    Zn4   S    
C28   N8    S    
C26   N6    S    
C6    H18   S    
C114  H64   S    
O34   Zn10  S    
C54   C58   D    
C124  H100  S    
C26   C36   S    
O29   Zn5   S    
C3    O15   A    
C27   N7    S    
C4    C15   S    
C1    O21   A    
C17   C103  S    
N8    C124  S    
C108  H43   S    
C71   C75   D    
C19   C101  S    
C105  H35   S    
C22   C42   S    
C47   O19   A    
N5    C121  S    
C31   C39   S    
C111  H56   S    
C6    C40   S    
C32   C40   S    
C19   C25   S    
C116  H72   S    
C73   C86   S    
C75   C88   S    
C109  H48   S    
C34   H26   S    
C77   O5    A    
O54   C106  S    
C46   O26   A    
N2    H49   S    
C53   O65   S    
C8    C102  S    
