data_mof_unit_33425.cif
_audit_creation_date              2012-12-10T16:43:26-0500
_audit_creation_method            fapswitch 2.2
_symmetry_space_group_name_H-M    P1
_symmetry_Int_Tables_number       1
_space_group_crystal_system       triclinic
_cell_length_a                    10.832531
_cell_length_b                    8.673706
_cell_length_c                    7.444195
_cell_angle_alpha                 102.886607
_cell_angle_beta                  95.812166
_cell_angle_gamma                 92.070653
_cell_volume                      677.076935658

loop_
_atom_site_label
_atom_site_type_symbol
_atom_type_description
_atom_site_fract_x
_atom_site_fract_y
_atom_site_fract_z
_atom_type_partial_charge
C1    C     C_R   0.496605 0.199632 0.453186 0.900419
C2    C     C_R   0.077105 0.600242 0.661826 0.009431
C3    C     C_R   0.129865 0.525442 0.501389 -0.149205
C4    C     C_R   0.054409 0.438016 0.345894 -0.242771
C5    C     C_R   0.927317 0.421502 0.346531 0.344247
C6    C     C_R   0.873845 0.484773 0.509721 -0.166270
C7    C     C_2   0.495534 0.031825 0.426549 -0.354294
C8    C     C_2   0.509962 0.968348 0.572982 -0.290626
C9    C     C_R   0.263236 0.512146 0.501583 0.879633
C10   C     C_R   0.506414 0.800424 0.546644 0.924930
C11   C     C_R   0.738117 0.491738 0.500901 0.836540
C12   C     C_R   0.142988 0.715626 0.809910 0.387966
C13   C     C_R   0.099255 0.751003 0.983300 -0.131878
C14   C     C_R   0.989122 0.677429 0.009675 -0.203843
C15   C     C_R   0.915605 0.582290 0.858524 -0.095840
C16   C     C_R   0.953039 0.555171 0.676800 0.003341
Cu1   Cu    Cu3+1 0.513920 0.517380 0.684380 1.007570
Cu2   Cu    Cu3+1 0.486080 0.482620 0.315620 1.009660
H1    H     H_    0.150288 0.836540 0.097566 0.178445
H2    H     H_    0.958009 0.698944 0.146334 0.172840
H3    H     H_    0.402237 0.377607 0.947118 0.236016
N1    N     N_2   0.465100 0.456430 0.038520 -0.196775
N2    N     N_2   0.534900 0.543570 0.961480 -0.198692
O1    O     O_R   0.509050 0.286130 0.619770 -0.584624
O2    O     O_R   0.485540 0.256780 0.308360 -0.564363
O3    O     O_R   0.331410 0.514680 0.655740 -0.567636
O4    O     O_R   0.307900 0.485330 0.344330 -0.595196
O5    O     O_R   0.514460 0.743220 0.691640 -0.546792
O6    O     O_R   0.490950 0.713870 0.380230 -0.600410
O7    O     O_R   0.692100 0.514670 0.655670 -0.611900
O8    O     O_R   0.668590 0.485320 0.344260 -0.545797
H4    H     H_    0.094664 0.378487 0.223373 0.204446
H5    H     H_    0.597829 0.622331 0.052849 0.227609
Cl1   Cl    Cl    0.262554 0.844426 0.775918 -0.658992
H6    H     H_    0.834150 0.524987 0.891906 0.216634
Cl2   Cl    Cl    0.841877 0.303479 0.145023 -0.630745
H7    H     H_    0.482394 0.960187 0.285314 0.193051
H8    H     H_    0.523103 0.040006 0.714195 0.203872

loop_
_geom_bond_atom_site_label_1
_geom_bond_atom_site_label_2
_ccdc_geom_bond_type
C3    C9    S    
C13   C14   A    
C2    C16   A    
C14   C15   A    
C2    C12   A    
Cu2   N1    S    
C2    C3    A    
C7    H7    S    
C11   O8    A    
C7    C8    D    
Cu2   O6    S    
Cu1   N2    S    
H3    N1    S    
C1    O2    A    
Cu1   O7    S    
C10   O6    A    
C4    H4    S    
Cu2   O2    S    
C8    H8    S    
Cu1   O3    S    
C15   H6    S    
C9    O3    A    
Cu1   Cu2   S    
C5    C6    A    
Cu1   O1    S    
C13   H1    S    
C12   Cl1   S    
C3    C4    A    
C5    Cl2   S    
C14   H2    S    
C12   C13   A    
C9    O4    A    
C1    O1    A    
C8    C10   S    
C10   O5    A    
C6    C11   S    
N1    N2    D    
Cu2   O8    S    
C1    C7    S    
Cu1   O5    S    
C6    C16   A    
Cu2   O4    S    
C15   C16   A    
C11   O7    A    
C4    C5    A    
N2    H5    S    
