data_mof_unit_16287.cif
_audit_creation_date              2012-12-10T17:48:50-0500
_audit_creation_method            fapswitch 2.2
_symmetry_space_group_name_H-M    P1
_symmetry_Int_Tables_number       1
_space_group_crystal_system       triclinic
_cell_length_a                    10.730898
_cell_length_b                    14.690643
_cell_length_c                    14.728299
_cell_angle_alpha                 65.023764
_cell_angle_beta                  103.473758
_cell_angle_gamma                 102.926755
_cell_volume                      2025.97779577

loop_
_atom_site_label
_atom_site_type_symbol
_atom_type_description
_atom_site_fract_x
_atom_site_fract_y
_atom_site_fract_z
_atom_type_partial_charge
C1    C     C_R   0.479441 0.119835 0.312280 0.802666
C2    C     C_3   0.878258 0.998193 0.501438 0.137173
C3    C     C_3   0.924100 0.894991 0.580293 0.146193
C4    C     C_3   0.964750 0.083559 0.533885 -0.450587
C5    C     C_R   0.458560 0.187899 0.204669 -0.062633
C6    C     C_R   0.526396 0.812376 0.795360 -0.057340
C7    C     C_R   0.346168 0.217716 0.033955 -0.207783
C8    C     C_R   0.376713 0.151726 0.134129 -0.249844
C9    C     C_R   0.512379 0.291327 0.173267 0.106209
C10   C     C_R   0.460100 0.360817 0.077930 0.074364
C11   C     C_R   0.386312 0.322100 0.005419 0.129448
C12   C     C_R   0.260303 0.000155 0.500537 0.771305
C13   C     C_R   0.479075 0.467212 0.051901 0.064487
C14   C     C_R   0.455573 0.533604 0.948564 0.063455
C15   C     C_R   0.391213 0.491970 0.876304 -0.220322
C16   C     C_R   0.352967 0.388111 0.905369 -0.217762
C17   C     C_R   0.509670 0.508489 0.126654 -0.224942
C18   C     C_R   0.534153 0.612681 0.100466 -0.237906
C19   C     C_R   0.529826 0.678765 0.998927 0.165488
C20   C     C_R   0.491886 0.639674 0.921956 0.088942
C21   C     C_R   0.561917 0.783701 0.973262 -0.202518
C22   C     C_R   0.559380 0.850240 0.871960 -0.203015
C23   C     C_R   0.520831 0.880193 0.687784 0.797061
C24   C     C_R   0.494567 0.707769 0.820973 -0.255320
C25   C     C_R   0.715210 0.282324 0.670608 -0.322856
C26   C     C_R   0.682271 0.202195 0.638938 0.074523
C27   C     C_R   0.519750 0.285677 0.509625 0.015378
C28   C     C_R   0.549534 0.371043 0.536994 -0.059951
C29   C     C_R   0.647829 0.366814 0.621667 0.094256
C30   C     C_R   0.484496 0.458924 0.484244 0.073807
C31   C     C_R   0.516613 0.540419 0.518564 0.015261
C32   C     C_R   0.611586 0.531039 0.604957 -0.271654
C33   C     C_R   0.677009 0.446929 0.655605 0.263878
C34   C     C_R   0.740171 0.999114 0.500823 0.771140
C35   C     C_R   0.388819 0.468350 0.397845 -0.228624
C36   C     C_R   0.324729 0.552809 0.348200 -0.203630
C37   C     C_R   0.354373 0.632335 0.381099 0.169780
C38   C     C_R   0.451569 0.628405 0.465720 -0.006406
C39   C     C_R   0.288133 0.716649 0.328996 -0.326432
C40   C     C_R   0.319673 0.797649 0.359561 0.070355
C41   C     C_R   0.479783 0.714126 0.492288 -0.011192
C42   C     C_3   0.044577 0.018408 0.394355 -0.385660
C43   C     C_3   0.901848 0.022643 0.392916 -0.371402
C44   C     C_3   0.068076 0.895870 0.578384 -0.404922
C45   C     C_3   0.107941 0.084600 0.533705 -0.384385
C46   C     C_3   0.123034 0.999925 0.501784 0.123807
Cu1   Cu    Cu3+1 0.465900 0.918260 0.475680 0.928273
Cu2   Cu    Cu3+1 0.534100 0.081740 0.524320 0.919757
H1    H     H_    0.050263 0.957147 0.370584 0.163679
H2    H     H_    0.951598 0.071861 0.611064 0.163491
H3    H     H_    0.124510 0.882505 0.655534 0.125448
H4    H     H_    0.919895 0.892523 0.656285 0.079017
H5    H     H_    0.298119 0.359246 0.848920 0.141632
H6    H     H_    0.475758 0.680349 0.761103 0.152336
H7    H     H_    0.583884 0.930995 0.853719 0.152159
H8    H     H_    0.558140 0.641517 0.160039 0.150292
H9    H     H_    0.286700 0.187637 0.979727 0.137503
H10   H     H_    0.336671 0.072250 0.156300 0.157289
H11   H     H_    0.086518 0.091101 0.338192 0.150962
H12   H     H_    0.361095 0.538326 0.797850 0.143599
H13   H     H_    0.509479 0.460799 0.205963 0.164294
H14   H     H_    0.589248 0.814227 0.031606 0.132011
H15   H     H_    0.554674 0.719468 0.553330 0.148453
H16   H     H_    0.269799 0.863338 0.318703 0.117502
H17   H     H_    0.251558 0.556183 0.282606 0.141507
H18   H     H_    0.793332 0.276912 0.733264 0.142643
H19   H     H_    0.733155 0.136916 0.677790 0.118935
H20   H     H_    0.443352 0.280439 0.449409 0.121154
H21   H     H_    0.878958 0.100253 0.341965 0.146848
H22   H     H_    0.637082 0.587915 0.636690 0.157955
H23   H     H_    0.360997 0.411780 0.365756 0.126525
H24   H     H_    0.213214 0.720309 0.264375 0.136069
H25   H     H_    0.837028 0.971692 0.358591 0.171783
H26   H     H_    0.080761 0.833181 0.559561 0.187036
H27   H     H_    0.163391 0.073185 0.610779 0.174266
H28   H     H_    0.147346 0.160267 0.480205 0.178336
H29   H     H_    0.936659 0.159204 0.481104 0.192312
N1    N     N_R   0.585360 0.204570 0.560800 -0.175276
N2    N     N_R   0.414550 0.795430 0.439160 -0.177743
O1    O     O_R   0.455060 0.022100 0.338110 -0.592482
O2    O     O_R   0.512640 0.160150 0.379180 -0.578065
O3    O     O_R   0.288900 0.930980 0.479450 -0.590770
O4    O     O_R   0.346480 0.069030 0.520520 -0.590032
O5    O     O_R   0.487360 0.839850 0.620820 -0.586828
O6    O     O_R   0.544940 0.977900 0.661890 -0.589353
O7    O     O_R   0.653520 0.930970 0.479480 -0.559087
O8    O     O_R   0.711100 0.069020 0.520550 -0.599247
C47   C     C_3   0.640796 0.321465 0.230734 -0.853874
H30   H     H_    0.695498 0.391510 0.181102 0.233729
H31   H     H_    0.626484 0.332965 0.297152 0.243892
H32   H     H_    0.703515 0.261344 0.257935 0.220340
N3    N     N_2   0.768824 0.443557 0.743723 -0.430714
H33   H     H_    0.764264 0.374841 0.804802 0.249660
C48   C     C_3   0.899061 0.489377 0.724310 -0.711813
H34   H     H_    0.961920 0.488470 0.796097 0.231051
H35   H     H_    0.899985 0.569413 0.669450 0.235301
H36   H     H_    0.938955 0.446558 0.693600 0.224230
N4    N     N_2   0.841791 0.802902 0.574366 -0.421998
H37   H     H_    0.851744 0.740255 0.641636 0.241350
C49   C     C_3   0.824848 0.779251 0.485526 -0.672182
H38   H     H_    0.801728 0.695965 0.507323 0.209919
H39   H     H_    0.912899 0.805299 0.449396 0.219741
H40   H     H_    0.741590 0.812702 0.429960 0.245295

loop_
_geom_bond_atom_site_label_1
_geom_bond_atom_site_label_2
_ccdc_geom_bond_type
C43   H25   S    
C15   H12   S    
C19   C20   A    
Cu1   N2    S    
C27   N1    A    
C7    C8    A    
C45   C46   S    
C7    C11   A    
C26   N1    A    
C30   C35   A    
C45   H28   S    
C1    C5    S    
C26   H19   S    
C36   C37   A    
C19   C21   A    
C9    C47   S    
C42   C46   S    
C30   C31   A    
C24   H6    S    
C15   C16   A    
C6    C22   A    
C29   C33   A    
Cu2   O2    S    
C18   C19   A    
C34   O7    A    
Cu1   O3    S    
Cu2   N1    S    
C20   C24   A    
C16   H5    S    
N3    H33   S    
C27   H20   S    
C17   H13   S    
Cu1   Cu2   S    
C39   H24   S    
C9    C10   A    
C18   H8    S    
C8    H10   S    
C2    C34   S    
C35   H23   S    
C43   H21   S    
C21   C22   A    
Cu1   O1    S    
N3    C48   S    
C44   C46   S    
C4    C45   S    
C25   C29   A    
C3    C44   S    
C40   N2    A    
C23   O5    A    
Cu1   O7    S    
C14   C20   A    
C44   H26   S    
C38   C41   A    
C12   C46   S    
C33   N3    S    
C39   C40   A    
C36   H17   S    
C32   H22   S    
C48   H36   S    
C25   C26   A    
C49   H40   S    
C12   O4    A    
C4    H2    S    
C35   C36   A    
C2    C4    S    
C5    C9    A    
C37   C38   A    
C11   C16   A    
C31   C32   A    
C47   H32   S    
C2    C43   S    
C6    C24   A    
C49   H39   S    
C17   C18   A    
Cu2   O8    S    
C12   O3    A    
Cu1   O5    S    
C48   H35   S    
C21   H14   S    
C44   H3    S    
C47   H31   S    
N4    C49   S    
C42   C43   S    
C41   H15   S    
C28   C29   A    
C14   C15   A    
C25   H18   S    
C10   C13   A    
C42   H11   S    
C41   N2    A    
C5    C8    A    
C3    H4    S    
Cu2   O4    S    
C22   H7    S    
C40   H16   S    
C31   C38   A    
C13   C17   A    
C45   H27   S    
C32   C33   A    
C28   C30   A    
C2    C3    S    
C4    H29   S    
C37   C39   A    
C3    N4    S    
C6    C23   S    
C49   H38   S    
C34   O8    A    
C48   H34   S    
C10   C11   A    
C42   H1    S    
C47   H30   S    
N4    H37   S    
C23   O6    A    
C27   C28   A    
C1    O1    A    
Cu2   O6    S    
C13   C14   A    
C1    O2    A    
C7    H9    S    
