data_mof_unit_66260.cif
_audit_creation_date              2012-12-10T19:27:32-0500
_audit_creation_method            fapswitch 2.2
_symmetry_space_group_name_H-M    P1
_symmetry_Int_Tables_number       1
_space_group_crystal_system       triclinic
_cell_length_a                    18.804153
_cell_length_b                    18.597668
_cell_length_c                    18.815795
_cell_angle_alpha                 109.374619
_cell_angle_beta                  109.613922
_cell_angle_gamma                 109.392706
_cell_volume                      5067.39549289

loop_
_atom_site_label
_atom_site_type_symbol
_atom_type_description
_atom_site_fract_x
_atom_site_fract_y
_atom_site_fract_z
_atom_type_partial_charge
C1    C     C_R   0.380534 0.379693 0.500503 0.887263
C2    C     C_R   0.601353 0.336561 0.612600 -0.191057
C3    C     C_R   0.239423 0.246101 0.421849 0.068639
C4    C     C_R   0.619803 0.499588 0.619762 0.861856
C5    C     C_R   0.313513 0.314644 0.500198 -0.113108
C6    C     C_R   0.318188 0.325251 0.579266 -0.204617
C7    C     C_R   0.254094 0.260429 0.578935 -0.197080
C8    C     C_R   0.184576 0.186766 0.499435 -0.097078
C9    C     C_R   0.174796 0.182941 0.421210 0.029569
C10   C     C_3   0.160521 0.110866 0.342134 -0.132925
C11   C     C_3   0.231277 0.182352 0.342192 -0.004815
C12   C     C_R   0.760746 0.581163 0.754591 0.071081
C13   C     C_R   0.314208 0.492456 0.239370 0.098906
C14   C     C_R   0.313335 0.499275 0.314723 -0.085186
C15   C     C_R   0.244384 0.505131 0.325365 -0.173952
C16   C     C_R   0.619137 0.620382 0.499634 0.906603
C17   C     C_R   0.178971 0.504182 0.260505 -0.206072
C18   C     C_R   0.184368 0.500331 0.186681 -0.072429
C19   C     C_R   0.253394 0.495382 0.179321 0.091272
C20   C     C_3   0.292576 0.490343 0.122475 -0.539619
C21   C     C_3   0.364056 0.488318 0.191726 -0.051894
C22   C     C_R   0.769677 0.706361 0.542680 0.056967
C23   C     C_R   0.814882 0.500541 0.813392 -0.188574
C24   C     C_R   0.684172 0.688157 0.501268 -0.129977
C25   C     C_R   0.665203 0.744254 0.473327 0.126382
C26   C     C_R   0.730693 0.809529 0.475314 -0.218295
C27   C     C_R   0.814299 0.819158 0.506228 -0.154086
C28   C     C_R   0.380271 0.500390 0.380068 0.922556
C29   C     C_R   0.834221 0.771306 0.545254 0.154906
C30   C     C_3   0.878149 0.718568 0.530492 -0.461607
C31   C     C_3   0.806701 0.646802 0.527779 -0.483620
C32   C     C_R   0.999618 0.379844 0.880127 0.871423
C33   C     C_R   0.880247 0.500569 0.880355 0.865197
C34   C     C_R   0.746297 0.419310 0.738908 0.038399
C35   C     C_R   0.999969 0.620432 0.119600 0.867253
C36   C     C_R   0.119702 0.500182 0.120352 0.882791
C37   C     C_R   0.999899 0.120179 0.619864 0.886023
C38   C     C_R   0.119843 0.118990 0.498696 0.874636
C39   C     C_R   0.000355 0.879965 0.379941 0.869316
C40   C     C_R   0.775886 0.662409 0.757423 -0.149972
C41   C     C_R   0.879863 0.880253 0.500711 0.893803
C42   C     C_R   0.011486 0.249316 0.823697 0.124654
C43   C     C_R   0.997219 0.314094 0.812953 -0.081392
C44   C     C_R   0.982298 0.314719 0.734839 -0.207546
C45   C     C_R   0.677394 0.418640 0.678513 0.077729
C46   C     C_R   0.982059 0.249859 0.669905 -0.192339
C47   C     C_R   0.999224 0.186281 0.684570 -0.104978
C48   C     C_R   0.014124 0.189006 0.762836 0.136657
C49   C     C_3   0.035116 0.146788 0.815641 -0.467319
C50   C     C_3   0.033014 0.216854 0.885972 -0.487884
C51   C     C_R   0.039384 0.703076 0.270279 0.107313
C52   C     C_R   0.843635 0.742058 0.831212 -0.135928
C53   C     C_R   0.002344 0.688001 0.185630 -0.063616
C54   C     C_R   0.977468 0.745784 0.167555 -0.224913
C55   C     C_R   0.977578 0.810160 0.231882 -0.220554
C56   C     C_R   0.686753 0.499755 0.685311 -0.192649
C57   C     C_R   0.005299 0.818026 0.314632 -0.104137
C58   C     C_R   0.041242 0.767859 0.334402 0.157526
C59   C     C_3   0.020549 0.712751 0.374869 -0.475756
C60   C     C_3   0.018509 0.641238 0.303918 -0.498247
C61   C     C_R   0.897575 0.742617 0.903226 -0.148067
C62   C     C_R   0.886940 0.663487 0.899631 -0.152505
C63   C     C_R   0.821256 0.581630 0.823256 0.078963
C64   C     C_3   0.066975 0.061108 0.265334 -0.299996
C65   C     C_3   0.055567 0.990533 0.184934 -0.865610
C66   C     C_3   0.365868 0.401409 0.158016 -0.335671
C67   C     C_R   0.744600 0.338479 0.723166 -0.184282
C68   C     C_3   0.458674 0.417486 0.200022 -0.848249
C69   C     C_R   0.671630 0.258620 0.654584 0.213201
C70   C     C_R   0.598978 0.257628 0.600976 -0.170210
H1    H     H_    0.541029 0.195708 0.549252 0.161820
H2    H     H_    0.428477 0.549170 0.227291 0.195169
H3    H     H_    0.715331 0.850036 0.449780 0.196474
H4    H     H_    0.876470 0.699734 0.467084 0.191659
H5    H     H_    0.943376 0.748839 0.587840 0.207036
H6    H     H_    0.763470 0.586143 0.462798 0.218996
H7    H     H_    0.830616 0.635806 0.583667 0.205074
H8    H     H_    0.970460 0.364392 0.724090 0.155038
H9    H     H_    0.970165 0.250334 0.609641 0.166936
H10   H     H_    0.981446 0.078796 0.786073 0.207985
H11   H     H_    0.853522 0.803483 0.832869 0.142422
H12   H     H_    0.259595 0.266726 0.640168 0.157291
H13   H     H_    0.101050 0.154453 0.834891 0.208649
H14   H     H_    0.978462 0.189385 0.897506 0.224156
H15   H     H_    0.097850 0.265316 0.945456 0.195211
H16   H     H_    0.953872 0.738225 0.103102 0.139470
H17   H     H_    0.953445 0.851400 0.216211 0.174884
H18   H     H_    0.075472 0.740440 0.440872 0.210533
H19   H     H_    0.955967 0.695094 0.370356 0.192522
H20   H     H_    0.072315 0.627741 0.328952 0.200346
H21   H     H_    0.952722 0.581948 0.258095 0.219363
H22   H     H_    0.948767 0.804491 0.961554 0.140375
H23   H     H_    0.181201 0.066065 0.358246 0.147810
H24   H     H_    0.930657 0.667748 0.957436 0.143828
H25   H     H_    0.799718 0.336003 0.762756 0.166980
H26   H     H_    0.542850 0.331949 0.569521 0.160370
H27   H     H_    0.373183 0.381069 0.640852 0.160055
H28   H     H_    0.096476 0.020530 0.160740 0.292460
H29   H     H_    0.074191 0.944650 0.200529 0.254861
H30   H     H_    0.986345 0.952441 0.132363 0.242003
H31   H     H_    0.021780 0.027867 0.284356 0.210593
H32   H     H_    0.047868 0.106597 0.249356 0.240945
H33   H     H_    0.498402 0.458335 0.181382 0.250664
H34   H     H_    0.290694 0.176227 0.356530 0.138540
H35   H     H_    0.489685 0.451730 0.271909 0.292765
H36   H     H_    0.457543 0.353653 0.177349 0.243985
H37   H     H_    0.324974 0.354103 0.170767 0.241380
H38   H     H_    0.339445 0.369632 0.086496 0.208187
H39   H     H_    0.240674 0.509419 0.382738 0.161012
H40   H     H_    0.125711 0.508028 0.268589 0.149443
H41   H     H_    0.248893 0.428602 0.058422 0.189799
H42   H     H_    0.316744 0.551587 0.118933 0.213563
H43   H     H_    0.736485 0.665698 0.702867 0.151608
I1    I     I_    0.196869 0.218423 0.243198 -0.417566
I2    I     I_    0.538409 0.728279 0.419710 -0.382585
I3    I     I_    0.671062 0.139658 0.633636 -0.360135
O1    O     O_R   0.408400 0.356680 0.448290 -0.619947
O2    O     O_R   0.948300 0.091670 0.539990 -0.616508
O3    O     O_R   0.143340 0.091640 0.551750 -0.620653
O4    O     O_R   0.408370 0.460100 0.551700 -0.621521
O5    O     O_R   0.039900 0.091690 0.448360 -0.628337
O6    O     O_R   0.051700 0.908430 0.460110 -0.619952
O7    O     O_R   0.948260 0.908480 0.356720 -0.629868
O8    O     O_R   0.960100 0.908410 0.551740 -0.622798
O9    O     O_R   0.856660 0.908460 0.448350 -0.617815
O10   O     O_R   0.591630 0.448290 0.539910 -0.624167
O11   O     O_R   0.591590 0.551710 0.643320 -0.626035
O12   O     O_R   0.051700 0.460090 0.908430 -0.622951
O13   O     O_R   0.591630 0.539900 0.448300 -0.638331
O14   O     O_R   0.591600 0.643320 0.551710 -0.606040
O15   O     O_R   0.408410 0.448290 0.356680 -0.612912
O16   O     O_R   0.408370 0.551710 0.460090 -0.609723
O17   O     O_R   0.948260 0.356680 0.908450 -0.614944
O18   O     O_R   0.856640 0.448300 0.908430 -0.616042
O19   O     O_R   0.960090 0.551710 0.908400 -0.627451
O20   O     O_R   0.948250 0.539920 0.091630 -0.622492
O21   O     O_R   0.051690 0.643330 0.091610 -0.625136
O22   O     O_R   0.039870 0.448310 0.091660 -0.623045
O23   O     O_R   0.143310 0.551720 0.091640 -0.614909
O24   O     O_R   0.051740 0.091620 0.643380 -0.625310
Zn1   Zn    Zn3+2 0.500020 0.430950 0.430950 0.957071
Zn2   Zn    Zn3+2 0.499980 0.569050 0.569050 0.984805
Zn3   Zn    Zn3+2 0.930910 0.430960 0.000050 0.974183
Zn4   Zn    Zn3+2 0.069050 0.569060 0.000020 0.962792
Zn5   Zn    Zn3+2 0.069070 0.000020 0.569080 0.952321
Zn6   Zn    Zn3+2 0.930930 0.000080 0.431020 0.960672

loop_
_geom_bond_atom_site_label_1
_geom_bond_atom_site_label_2
_ccdc_geom_bond_type
C35   O20   A    
C66   C68   S    
C69   I3    S    
C46   H9    S    
C22   C29   A    
C21   C66   S    
C35   C53   S    
C15   H39   S    
C19   C20   S    
C68   H33   S    
C66   H37   S    
C17   H40   S    
C31   H6    S    
C50   H14   S    
C7    C8    A    
C53   C54   A    
C64   H32   S    
C26   C27   A    
C29   C30   S    
C39   O6    A    
C8    C38   S    
C1    C5    S    
C5    C6    A    
C41   O8    A    
C65   H28   S    
O20   Zn3   S    
C52   C61   A    
C25   I2    S    
C30   C31   S    
C30   H4    S    
O13   Zn1   S    
C39   C57   S    
C26   H3    S    
C39   O7    A    
C27   C29   A    
C18   C19   A    
C59   H19   S    
O6    Zn5   S    
C11   I1    S    
C33   O19   A    
C59   H18   S    
C50   H15   S    
O18   Zn3   S    
C20   H42   S    
C33   O18   A    
C37   O2    A    
C40   H43   S    
C45   C56   A    
C8    C9    A    
C23   C33   S    
C37   O24   A    
O9    Zn6   S    
C11   H34   S    
C37   C47   S    
C16   O14   A    
C9    C10   S    
C61   C62   A    
O15   Zn1   S    
C61   H22   S    
C23   C63   A    
C59   C60   S    
C16   C24   S    
C13   C14   A    
C4    C56   S    
C67   H25   S    
O24   Zn5   S    
C52   H11   S    
C68   H36   S    
C44   C46   A    
C31   H7    S    
C2    C45   A    
O16   Zn2   S    
C64   H31   S    
O17   Zn3   S    
C22   C31   S    
C13   C19   A    
C21   H2    S    
C38   O5    A    
C6    H27   S    
C41   O9    A    
O2    Zn6   S    
O4    Zn2   S    
C24   C25   A    
C65   H29   S    
C54   H16   S    
C12   C63   A    
C42   C48   A    
C10   H23   S    
C58   C59   S    
C40   C52   A    
C2    H26   S    
C28   O16   A    
C1    O4    A    
C12   C40   A    
O1    Zn1   S    
C43   C44   A    
C62   C63   A    
C3    C9    A    
C20   H41   S    
O23   Zn4   S    
C27   C41   S    
C47   C48   A    
O7    Zn6   S    
C23   C34   A    
C17   C18   A    
C13   C21   S    
C51   C58   A    
C1    O1    A    
C16   O13   A    
O12   Zn4   S    
C12   C56   A    
C34   C45   A    
C42   C50   S    
C38   O3    A    
C48   C49   S    
O21   Zn4   S    
C62   H24   S    
C22   C24   A    
C42   C43   A    
C70   H1    S    
C60   H21   S    
C15   C17   A    
C54   C55   A    
O19   Zn4   S    
C4    O11   A    
C14   C15   A    
C10   C64   S    
C65   H30   S    
C66   H38   S    
C3    C5    A    
C34   C67   A    
C6    C7    A    
C60   H20   S    
O3    Zn5   S    
O8    Zn5   S    
O10   Zn1   S    
C49   H10   S    
C4    O10   A    
O22   Zn3   S    
C28   O15   A    
C14   C28   S    
C64   C65   S    
C32   O12   A    
C55   C57   A    
C25   C26   A    
C35   O21   A    
C30   H5    S    
C49   H13   S    
C57   C58   A    
C32   O17   A    
C36   O22   A    
C44   H8    S    
C32   C43   S    
C55   H17   S    
C69   C70   A    
O14   Zn2   S    
C36   O23   A    
C46   C47   A    
C3    C11   S    
C10   C11   S    
C51   C53   A    
C7    H12   S    
C20   C21   S    
C49   C50   S    
C68   H35   S    
O5    Zn6   S    
C51   C60   S    
C67   C69   A    
C2    C70   A    
C18   C36   S    
O11   Zn2   S    
