data_mof_unit_20013.cif
_audit_creation_date              2012-12-10T20:56:33-0500
_audit_creation_method            fapswitch 2.2
_symmetry_space_group_name_H-M    P1
_symmetry_Int_Tables_number       1
_space_group_crystal_system       triclinic
_cell_length_a                    12.936484
_cell_length_b                    15.084568
_cell_length_c                    15.843222
_cell_angle_alpha                 90.308705
_cell_angle_beta                  90.371042
_cell_angle_gamma                 68.507515
_cell_volume                      2876.61399755

loop_
_atom_site_label
_atom_site_type_symbol
_atom_type_description
_atom_site_fract_x
_atom_site_fract_y
_atom_site_fract_z
_atom_type_partial_charge
C1    C     C_R   0.500276 0.500152 0.661046 0.901850
C2    C     C_R   0.830033 0.407806 0.503052 -0.182735
C3    C     C_R   0.454140 0.444477 0.043257 -0.269582
C4    C     C_R   0.707111 0.446027 0.501668 0.859154
C5    C     C_R   0.501175 0.500475 0.087120 0.104609
C6    C     C_R   0.547884 0.557793 0.045589 -0.201846
C7    C     C_R   0.548462 0.559939 0.957309 0.059772
C8    C     C_R   0.499980 0.503056 0.913237 0.073224
C9    C     C_R   0.452215 0.445827 0.955641 0.215482
C10   C     C_1   0.501063 0.499538 0.175864 -0.046811
C11   C     C_1   0.500839 0.501529 0.824039 -0.047528
C12   C     C_R   0.987808 0.456524 0.491071 0.042565
C13   C     C_1   0.500804 0.500624 0.749272 -0.198440
C14   C     C_1   0.500785 0.499270 0.250648 -0.208382
C15   C     C_R   0.555940 0.029595 0.565313 0.094360
C16   C     C_R   0.500410 0.499659 0.338928 0.890552
C17   C     C_R   0.498570 0.095167 0.501108 0.005306
C18   C     C_R   0.441699 0.064465 0.437038 0.109632
C19   C     C_R   0.443806 0.969951 0.437099 -0.223722
C20   C     C_R   0.499710 0.904972 0.500212 0.027724
C21   C     C_R   0.555167 0.935395 0.563869 -0.184746
C22   C     C_1   0.499277 0.193183 0.500479 0.002700
C23   C     C_R   0.882662 0.463335 0.463268 -0.008284
C24   C     C_1   0.499908 0.807123 0.499993 0.049330
C25   C     C_R   0.293875 0.553466 0.496026 0.856113
C26   C     C_R   0.030239 0.650199 0.370543 -0.234329
C27   C     C_R   0.174997 0.589810 0.476553 -0.131835
C28   C     C_R   0.894997 0.326610 0.552382 0.123308
C29   C     C_R   0.009821 0.309298 0.565224 0.129990
C30   C     C_R   0.053573 0.374623 0.534480 -0.252398
C31   C     C_3   0.191134 0.704057 0.361622 -0.393990
C32   C     C_3   0.174521 0.795961 0.410991 -0.304926
C33   C     C_3   0.234824 0.853789 0.368958 -0.899474
C34   C     C_R   0.026949 0.529260 0.470303 0.046851
C35   C     C_3   0.599577 0.620594 0.908413 -0.396894
C36   C     C_3   0.650784 0.679470 0.961985 -0.363296
C37   C     C_3   0.699113 0.736753 0.906132 -0.881569
C38   C     C_3   0.616496 0.062903 0.634065 -0.412753
C39   C     C_3   0.680590 0.987757 0.699548 -0.364676
C40   C     C_3   0.739898 0.029008 0.763343 -0.878978
C41   C     C_3   0.377997 0.131359 0.367743 -0.425044
C42   C     C_3   0.265761 0.200533 0.400088 -0.336151
C43   C     C_3   0.203437 0.271393 0.331925 -0.855200
C44   C     C_3   0.750238 0.629895 0.239794 -0.815192
C45   C     C_R   0.978230 0.589893 0.401073 0.025060
C46   C     C_3   0.127688 0.529181 0.612615 -0.401970
C47   C     C_3   0.017993 0.575238 0.660727 -0.329569
C48   C     C_3   0.036379 0.564547 0.755947 -0.907432
C49   C     C_3   0.845393 0.259082 0.591648 -0.400413
C50   C     C_3   0.870023 0.167394 0.538913 -0.373973
C51   C     C_3   0.804462 0.183911 0.456381 -0.773324
C52   C     C_3   0.088924 0.226260 0.615670 -0.442561
C53   C     C_3   0.112579 0.259572 0.702891 -0.341299
C54   C     C_3   0.194931 0.177416 0.752803 -0.885140
C55   C     C_3   0.293769 0.436981 0.879633 -0.792622
C56   C     C_R   0.880321 0.587376 0.362850 0.205909
C57   C     C_R   0.831959 0.525892 0.396436 -0.205179
C58   C     C_R   0.112068 0.545059 0.517121 0.031845
C59   C     C_R   0.131816 0.646810 0.404392 0.062379
H1    H     H_    0.418293 0.400443 0.077094 0.146298
H2    H     H_    0.325298 0.811422 0.365571 0.269192
H3    H     H_    0.084366 0.840047 0.413971 0.210684
H4    H     H_    0.205941 0.779273 0.476650 0.237396
H5    H     H_    0.280549 0.660656 0.353897 0.216891
H6    H     H_    0.158078 0.723647 0.296552 0.188227
H7    H     H_    0.765349 0.688305 0.865119 0.258142
H8    H     H_    0.633011 0.787053 0.865977 0.259178
H9    H     H_    0.735691 0.778360 0.946341 0.250225
H10   H     H_    0.586036 0.729964 0.002893 0.222095
H11   H     H_    0.718630 0.631265 0.002260 0.224306
H12   H     H_    0.583419 0.599793 0.083040 0.141693
H13   H     H_    0.665506 0.572510 0.866787 0.204967
H14   H     H_    0.533882 0.670281 0.867424 0.207720
H15   H     H_    0.800640 0.053307 0.730887 0.254388
H16   H     H_    0.678811 0.090079 0.797587 0.264870
H17   H     H_    0.785249 0.973409 0.809940 0.250279
H18   H     H_    0.622088 0.962688 0.734295 0.222496
H19   H     H_    0.743885 0.926208 0.667329 0.222252
H20   H     H_    0.676360 0.089320 0.602955 0.204599
H21   H     H_    0.554431 0.123934 0.667842 0.208519
H22   H     H_    0.251658 0.315690 0.313231 0.264704
H23   H     H_    0.597656 0.884423 0.612084 0.131157
H24   H     H_    0.189046 0.233164 0.275662 0.255091
H25   H     H_    0.121723 0.319071 0.356502 0.257900
H26   H     H_    0.214014 0.159691 0.420219 0.216798
H27   H     H_    0.278559 0.240908 0.455367 0.224540
H28   H     H_    0.428405 0.171332 0.343032 0.207929
H29   H     H_    0.362889 0.090216 0.313699 0.194017
H30   H     H_    0.808991 0.721497 0.307796 0.221063
H31   H     H_    0.734712 0.675651 0.182870 0.235017
H32   H     H_    0.669993 0.645795 0.272956 0.246190
H33   H     H_    0.783946 0.554302 0.218778 0.248005
H34   H     H_    0.401045 0.947049 0.387593 0.139797
H35   H     H_    0.071730 0.487969 0.773276 0.261358
H36   H     H_    0.093665 0.599958 0.777269 0.264054
H37   H     H_    0.955794 0.598311 0.788812 0.249872
H38   H     H_    0.980770 0.652310 0.645065 0.221462
H39   H     H_    0.957877 0.541570 0.642531 0.233277
H40   H     H_    0.167897 0.453275 0.629353 0.194899
H41   H     H_    0.185526 0.562795 0.636973 0.186599
H42   H     H_    0.714355 0.209583 0.469369 0.270759
H43   H     H_    0.823314 0.236265 0.416419 0.260990
H44   H     H_    0.827519 0.115695 0.421009 0.220450
H45   H     H_    0.996150 0.695744 0.316776 0.150590
H46   H     H_    0.959562 0.134849 0.523229 0.213914
H47   H     H_    0.849100 0.114742 0.577018 0.199889
H48   H     H_    0.880072 0.239576 0.656125 0.156500
H49   H     H_    0.755633 0.292525 0.604547 0.218890
H50   H     H_    0.160853 0.120570 0.762773 0.260416
H51   H     H_    0.275047 0.147204 0.718549 0.264870
H52   H     H_    0.210597 0.203800 0.815333 0.247829
H53   H     H_    0.147966 0.315999 0.696082 0.220127
H54   H     H_    0.033788 0.289701 0.738897 0.221014
H55   H     H_    0.058020 0.167733 0.624417 0.202046
H56   H     H_    0.141664 0.358469 0.541277 0.152355
H57   H     H_    0.168108 0.194463 0.580345 0.195246
H58   H     H_    0.413029 0.325312 0.941452 0.219672
H59   H     H_    0.235877 0.464214 0.933440 0.237086
H60   H     H_    0.266486 0.387189 0.841857 0.237118
H61   H     H_    0.290119 0.497384 0.838464 0.251670
H62   H     H_    0.755808 0.524736 0.369013 0.168580
H63   H     H_    0.201870 0.874705 0.304183 0.257835
H64   H     H_    0.221859 0.919397 0.406414 0.243032
N1    N     N_1   0.500030 0.729450 0.499980 -0.086754
N2    N     N_1   0.499970 0.270550 0.500020 -0.095817
N3    N     N_2   0.829194 0.650162 0.294370 -0.304941
N4    N     N_2   0.405633 0.387327 0.910412 -0.297759
O1    O     O_R   0.500000 0.426350 0.621980 -0.605422
O2    O     O_R   0.499950 0.573700 0.621980 -0.606347
O3    O     O_R   0.653660 0.389750 0.499980 -0.608963
O4    O     O_R   0.653610 0.537090 0.499980 -0.594432
O5    O     O_R   0.500050 0.426300 0.378020 -0.599083
O6    O     O_R   0.500000 0.573650 0.378020 -0.621201
O7    O     O_R   0.346390 0.462910 0.500020 -0.593390
O8    O     O_R   0.346340 0.610250 0.500020 -0.610805
Zn1   Zn    Zn3+2 0.500030 0.401620 0.500000 0.943476
Zn2   Zn    Zn3+2 0.499970 0.598380 0.500000 0.946962

loop_
_geom_bond_atom_site_label_1
_geom_bond_atom_site_label_2
_ccdc_geom_bond_type
C46   H40   S    
O6    Zn2   S    
C48   H36   S    
C43   H24   S    
C41   C42   S    
C35   C36   S    
C1    O1    A    
C7    C8    A    
C49   H48   S    
C55   H60   S    
C53   C54   S    
C36   H10   S    
C51   H43   S    
C12   C23   A    
C44   N3    S    
C9    N4    S    
C47   H39   S    
C48   H35   S    
C3    C9    A    
C39   H18   S    
C36   C37   S    
C1    O2    A    
O1    Zn1   S    
C38   C39   S    
C38   H20   S    
C51   H44   S    
C37   H9    S    
C24   N1    T    
C56   C57   A    
C54   H51   S    
C23   C57   A    
C18   C19   A    
C31   C59   S    
C26   C45   A    
C26   H45   S    
C35   H14   S    
C20   C24   S    
C45   C56   A    
C53   H54   S    
C8    C9    A    
C50   H46   S    
C42   H27   S    
C56   N3    S    
C49   H49   S    
C26   C59   A    
C19   H34   S    
C55   H61   S    
C3    H1    S    
C50   H47   S    
C46   C58   S    
C43   H25   S    
C16   O5    A    
C16   O6    A    
C36   H11   S    
C50   C51   S    
C4    O4    A    
H30   N3    S    
C52   H57   S    
C6    H12   S    
C41   H28   S    
C39   H19   S    
N1    Zn2   S    
C10   C14   T    
C18   C41   S    
C39   C40   S    
C42   H26   S    
C31   H6    S    
C22   N2    T    
O7    Zn1   S    
C40   H17   S    
C54   H50   S    
C2    C4    S    
C15   C38   S    
C29   C30   A    
O4    Zn2   S    
C28   C49   S    
C47   C48   S    
O5    Zn1   S    
C37   H7    S    
C17   C18   A    
C34   C45   A    
C21   H23   S    
C25   O7    A    
H58   N4    S    
C44   H32   S    
N2    Zn1   S    
C55   N4    S    
C35   H13   S    
C33   H63   S    
C43   H22   S    
C14   C16   S    
C1    C13   S    
C42   C43   S    
C12   C34   A    
C44   H31   S    
C52   C53   S    
C53   H53   S    
C34   C58   A    
O8    Zn2   S    
C41   H29   S    
C46   H41   S    
C46   C47   S    
C28   C29   A    
C48   H37   S    
C12   C30   A    
C7    C35   S    
C31   H5    S    
C31   C32   S    
O3    Zn1   S    
C32   H4    S    
C3    C5    A    
C27   C58   A    
C44   H33   S    
C4    O3    A    
C30   H56   S    
C15   C17   A    
C6    C7    A    
C52   H55   S    
C25   C27   S    
C17   C22   S    
C47   H38   S    
C40   H16   S    
C32   C33   S    
C19   C20   A    
C32   H3    S    
C5    C10   S    
C27   C59   A    
C11   C13   T    
C5    C6    A    
C38   H21   S    
C8    C11   S    
C37   H8    S    
C40   H15   S    
C54   H52   S    
C25   O8    A    
C57   H62   S    
C15   C21   A    
O2    Zn2   S    
C20   C21   A    
C33   H2    S    
C49   C50   S    
C2    C23   A    
C33   H64   S    
C2    C28   A    
C29   C52   S    
C51   H42   S    
C55   H59   S    
