data_mof_unit_7385.cif
_audit_creation_date              2012-12-11T15:23:39-0500
_audit_creation_method            fapswitch 2.2
_symmetry_space_group_name_H-M    P1
_symmetry_Int_Tables_number       1
_space_group_crystal_system       triclinic
_cell_length_a                    6.92704
_cell_length_b                    17.483339
_cell_length_c                    19.343226
_cell_angle_alpha                 109.659378
_cell_angle_beta                  90.610366
_cell_angle_gamma                 90.218062
_cell_volume                      2205.86954564

loop_
_atom_site_label
_atom_site_type_symbol
_atom_type_description
_atom_site_fract_x
_atom_site_fract_y
_atom_site_fract_z
_atom_type_partial_charge
O1    O     O_R   0.505810 0.439670 0.562310 -0.533034
O2    O     O_R   0.169070 0.404920 0.411210 -0.541779
O3    O     O_R   0.005550 0.560330 0.437690 -0.541929
C1    C     C_R   0.338215 0.381453 0.382933 0.679196
O4    O     O_R   0.175650 0.430000 0.560110 -0.543173
O5    O     O_R   0.012170 0.585580 0.587650 -0.535630
C2    C     C_R   0.344868 0.418307 0.584530 0.714641
O6    O     O_R   0.499180 0.414420 0.412350 -0.535943
O7    O     O_3   0.341430 0.551020 0.508860 -0.368718
V1    V     V_3+5 0.063930 0.490540 0.498360 1.398244
O8    O     O_R   0.682850 0.595080 0.588790 -0.546885
C3    C     C_R   0.852907 0.618200 0.616983 0.691454
O9    O     O_R   0.676280 0.570000 0.439890 -0.535739
C4    C     C_R   0.844391 0.586046 0.419213 0.717551
V2    V     V_3+5 0.564760 0.509460 0.501640 1.399637
O10   O     O_3   0.837130 0.448980 0.491140 -0.365778
C5    C     C_R   0.756967 0.867163 0.172761 -0.253998
C6    C     C_R   0.918697 0.860869 0.128363 -0.096552
C7    C     C_R   0.067229 0.805325 0.130755 0.103822
C8    C     C_R   0.033628 0.748304 0.167927 0.041642
C9    C     C_R   0.879946 0.762550 0.218279 -0.021216
C10   C     C_R   0.741520 0.821737 0.219810 0.076131
C11   C     C_R   0.147807 0.677714 0.156650 0.154848
C12   C     C_R   0.144545 0.636995 0.208775 0.163750
C13   C     C_R   0.001251 0.656962 0.263865 0.047158
C14   C     C_R   0.864403 0.718021 0.267222 -0.053479
C15   C     C_R   0.715002 0.736196 0.320649 0.092785
C16   C     C_R   0.564864 0.789847 0.315102 0.163169
C17   C     C_R   0.583801 0.833047 0.266298 -0.193277
C18   C     C_R   0.987149 0.614511 0.313770 -0.253567
C19   C     C_R   0.851549 0.635129 0.369756 -0.098118
C20   C     C_R   0.723155 0.700072 0.376919 0.114049
H1    H     H_    0.082075 0.564322 0.309933 0.143353
C21   C     C_3   0.790781 0.814283 0.744217 -0.132434
C22   C     C_3   0.960997 0.771126 0.695281 -0.178988
H2    H     H_    0.021869 0.788237 0.649614 0.109933
C23   C     C_3   0.868442 0.688280 0.687660 -0.017518
C24   C     C_3   0.698232 0.730676 0.735953 -0.154900
C25   C     C_3   0.811006 0.728888 0.805205 -0.145878
C26   C     C_3   0.980312 0.686727 0.756095 0.207218
C27   C     C_3   0.074276 0.769527 0.764451 -0.121225
C28   C     C_3   0.903518 0.811602 0.812499 -0.039249
H3    H     H_    0.543560 0.714332 0.723770 0.115836
H4    H     H_    0.750637 0.711523 0.850817 0.106009
H5    H     H_    0.229048 0.785625 0.776705 0.108696
C29   C     C_3   0.485411 0.236980 0.304370 -0.130874
C30   C     C_3   0.325217 0.180589 0.257331 -0.139270
H6    H     H_    0.276558 0.122581 0.263307 0.097525
C31   C     C_3   0.414876 0.189460 0.187714 -0.010209
C32   C     C_3   0.574855 0.245114 0.233994 -0.119505
C33   C     C_3   0.445751 0.319902 0.242364 -0.141101
C34   C     C_3   0.285576 0.263487 0.195306 -0.131261
C35   C     C_3   0.196130 0.255364 0.265690 -0.119464
C36   C     C_3   0.356115 0.310995 0.311979 -0.011972
H7    H     H_    0.203980 0.274420 0.149849 0.101710
C37   C     C_R   0.271911 0.110353 0.807482 0.123855
C38   C     C_R   0.413393 0.129363 0.864752 -0.094980
C39   C     C_R   0.544486 0.192806 0.872790 -0.278434
C40   C     C_R   0.535735 0.239164 0.826504 0.109055
C41   C     C_R   0.384409 0.226695 0.774284 -0.016358
C42   C     C_R   0.243491 0.164584 0.766705 0.060952
C43   C     C_R   0.677099 0.298440 0.832359 -0.171230
C44   C     C_R   0.669458 0.346383 0.787709 -0.183602
C45   C     C_R   0.516948 0.337879 0.736708 0.095159
C46   C     C_R   0.375195 0.276744 0.729655 0.017537
C47   C     C_R   0.223333 0.266122 0.678533 0.053953
C48   C     C_R   0.077463 0.209441 0.674513 -0.179669
C49   C     C_R   0.081060 0.160468 0.719062 0.156887
C50   C     C_R   0.501771 0.389321 0.693269 0.118154
C51   C     C_R   0.355716 0.373285 0.637670 -0.089914
C52   C     C_R   0.216200 0.313136 0.632498 -0.258439
H8    H     H_    0.795739 0.307352 0.871345 0.125568
H9    H     H_    0.101249 0.302349 0.591741 0.135621
H10   H     H_    0.956169 0.204735 0.637305 0.128948
O11   O     O_R   0.271890 0.085690 0.087580 -0.536571
O12   O     O_R   0.595690 0.070020 0.939870 -0.544574
O13   O     O_R   0.758900 0.914390 0.912370 -0.537446
C53   C     C_R   0.426271 0.083123 0.916646 0.720264
O14   O     O_R   0.602020 0.095100 0.088770 -0.541361
O15   O     O_R   0.765280 0.939660 0.062330 -0.539389
C54   C     C_R   0.432829 0.118787 0.116902 0.675284
O16   O     O_R   0.265520 0.060430 0.937620 -0.532095
O17   O     O_3   0.429560 0.949050 0.991100 -0.368496
V3    V     V_3+5 0.707160 0.009450 0.001650 1.396160
O18   O     O_R   0.094540 0.929890 0.060190 -0.540694
C55   C     C_R   0.926991 0.913586 0.081180 0.715361
O19   O     O_R   0.088200 0.904800 0.911290 -0.543381
C56   C     C_R   0.918292 0.881755 0.883050 0.690013
V4    V     V_3+5 0.206300 0.990390 0.998440 1.393755
O20   O     O_3   0.934030 0.050940 0.008900 -0.365812
H11   H     H_    0.646145 0.911019 0.173502 0.128098
H12   H     H_    0.712626 0.867855 0.739905 0.108240
C57   C     C_3   0.091038 0.614823 0.763445 -0.817209
H13   H     H_    0.157206 0.631735 0.819119 0.208185
H14   H     H_    0.991434 0.562626 0.754979 0.207234
H15   H     H_    0.206728 0.597220 0.721888 0.209669
H16   H     H_    0.567031 0.226070 0.349832 0.101849
H17   H     H_    0.730231 0.240666 0.220143 0.102572
H18   H     H_    0.494232 0.377938 0.236385 0.102764
C58   C     C_3   0.268118 0.815518 0.104523 -0.736544
H19   H     H_    0.315687 0.879690 0.129439 0.203641
H20   H     H_    0.378917 0.781616 0.123524 0.214703
H21   H     H_    0.270558 0.796682 0.043700 0.209300
H22   H     H_    0.040755 0.259825 0.279542 0.102415
C59   C     C_3   0.182157 0.025950 0.782282 -0.751706
H23   H     H_    0.038151 0.026401 0.806894 0.208441
H24   H     H_    0.174698 0.000811 0.721528 0.199865
H25   H     H_    0.273361 0.981968 0.797640 0.185725
H26   H     H_    0.656189 0.205520 0.914966 0.133739
H27   H     H_    0.785654 0.389654 0.793498 0.140264
C60   C     C_3   0.631557 0.463702 0.710203 -0.780170
H28   H     H_    0.572027 0.510753 0.689569 0.206898
H29   H     H_    0.644507 0.494912 0.770415 0.192824
H30   H     H_    0.776686 0.445431 0.686787 0.208526
C61   C     C_3   0.898315 0.113228 0.719792 -0.767511
H31   H     H_    0.912520 0.048680 0.685086 0.202787
H32   H     H_    0.860449 0.119219 0.776878 0.220636
H33   H     H_    0.773118 0.137398 0.697448 0.208780
C62   C     C_3   0.242676 0.636162 0.083223 -0.790689
H34   H     H_    0.401987 0.643671 0.088134 0.210493
H35   H     H_    0.206829 0.570279 0.063483 0.213767
H36   H     H_    0.187747 0.659074 0.039853 0.214384
C63   C     C_3   0.294229 0.572661 0.205993 -0.796226
H37   H     H_    0.368904 0.587922 0.260103 0.205258
H38   H     H_    0.223165 0.512214 0.191909 0.198630
H39   H     H_    0.409773 0.568218 0.165770 0.221798
C64   C     C_3   0.626803 0.739075 0.450379 -0.754471
H40   H     H_    0.711367 0.729254 0.495729 0.184381
H41   H     H_    0.623350 0.806005 0.464954 0.203540
H42   H     H_    0.480005 0.713498 0.450253 0.216024
C65   C     C_3   0.372379 0.796062 0.352573 -0.772280
H43   H     H_    0.327187 0.736301 0.355243 0.222206
H44   H     H_    0.377715 0.842856 0.407962 0.205252
H45   H     H_    0.256761 0.814112 0.321008 0.206667
H46   H     H_    0.471986 0.875370 0.263767 0.127475

loop_
_geom_bond_atom_site_label_1
_geom_bond_atom_site_label_2
_ccdc_geom_bond_type
C9    C14   A    
C57   H13   S    
C10   C17   A    
C39   H26   S    
C27   C28   S    
C7    C8    A    
C5    H11   S    
C26   C57   S    
O15   V3    S    
C65   H45   S    
O12   V3    S    
C2    C51   S    
C63   H37   S    
C30   C31   S    
C35   C36   S    
C59   H24   S    
C14   C15   A    
C23   C24   S    
O16   V4    S    
O17   V3    S    
C20   C64   S    
C16   C17   A    
C22   C23   S    
O12   C53   A    
C6    C7    A    
C23   C26   S    
C11   C62   S    
O14   V3    S    
C63   H38   S    
C35   H22   S    
C61   H31   S    
C37   C38   A    
C21   C22   S    
C31   C54   S    
C3    C23   S    
O15   C55   A    
C60   H28   S    
O8    V2    S    
C30   H6    S    
O13   C56   A    
C61   H32   S    
C21   C28   S    
C11   C12   A    
C51   C52   A    
O1    V2    S    
O7    V1    S    
C4    C19   S    
C34   H7    S    
C1    O6    A    
C30   C35   S    
C61   H33   S    
C47   C48   A    
C40   C41   A    
C57   H14   S    
O1    C2    A    
O9    C4    A    
V3    O20   S    
C5    C6    A    
C25   C28   S    
C62   H35   S    
C33   H18   S    
O17   V4    S    
C59   H25   S    
C32   H17   S    
V2    O10   S    
C33   C34   S    
C12   C13   A    
C25   C26   S    
O4    C2    A    
O18   V4    S    
O11   C54   A    
C63   H39   S    
O13   V3    S    
C39   C40   A    
O18   C55   A    
C58   H21   S    
C48   C49   A    
C41   C42   A    
C22   H2    S    
O2    C1    A    
C64   H41   S    
C43   C44   A    
C53   O16   A    
C47   C52   A    
C8    C11   A    
C18   C19   A    
C62   H34   S    
C31   C34   S    
C29   C36   S    
C58   H20   S    
C32   C33   S    
C43   H8    S    
C60   H29   S    
C48   H10   S    
C6    C55   S    
C45   C50   A    
O3    C4    A    
C26   C27   S    
C17   H46   S    
C29   H16   S    
C41   C46   A    
C31   C32   S    
O6    V2    S    
O19   V4    S    
C28   C56   S    
C64   H40   S    
O2    V1    S    
C34   C35   S    
O14   C54   A    
C62   H36   S    
C13   C18   A    
C29   C30   S    
C40   C43   A    
C18   H1    S    
C1    C36   S    
C15   C20   A    
C21   C24   S    
C38   C53   S    
C19   C20   A    
C65   H44   S    
O5    V1    S    
C7    C58   S    
C25   H4    S    
C57   H15   S    
C59   H23   S    
C29   C32   S    
C5    C10   A    
C16   C65   S    
C45   C46   A    
C33   C36   S    
C44   H27   S    
O9    V2    S    
C13   C14   A    
C64   H42   S    
C24   H3    S    
O3    V1    S    
V1    O10   S    
O5    C3    A    
C50   C60   S    
C42   C49   A    
C38   C39   A    
C24   C25   S    
C58   H19   S    
C60   H30   S    
C12   C63   S    
O7    V2    S    
C50   C51   A    
C22   C27   S    
C21   H12   S    
C37   C59   S    
O11   V4    S    
C49   C61   S    
C44   C45   A    
O4    V1    S    
C8    C9    A    
O19   C56   A    
C46   C47   A    
C52   H9    S    
C15   C16   A    
C27   H5    S    
C37   C42   A    
V4    O20   S    
C9    C10   A    
C65   H43   S    
O8    C3    A    
