data_mof_unit_16377.cif
_audit_creation_date              2012-12-10T18:50:44-0500
_audit_creation_method            fapswitch 2.2
_symmetry_space_group_name_H-M    P1
_symmetry_Int_Tables_number       1
_space_group_crystal_system       triclinic
_cell_length_a                    10.63954
_cell_length_b                    9.933434
_cell_length_c                    15.744206
_cell_angle_alpha                 91.016004
_cell_angle_beta                  89.793987
_cell_angle_gamma                 89.512118
_cell_volume                      1663.62694896

loop_
_atom_site_label
_atom_site_type_symbol
_atom_type_description
_atom_site_fract_x
_atom_site_fract_y
_atom_site_fract_z
_atom_type_partial_charge
C1    C     C_R   0.261476 0.501351 0.512922 0.951452
C2    C     C_3   0.602923 0.565349 0.952881 0.450353
C3    C     C_3   0.604392 0.540032 0.049030 -0.490916
C4    C     C_1   0.481819 0.508270 0.825144 0.277981
C5    C     C_1   0.482585 0.493721 0.174783 0.257254
C6    C     C_1   0.491963 0.495551 0.249877 0.000163
C7    C     C_R   0.063739 0.384265 0.549705 0.410886
C8    C     C_R   0.061150 0.628763 0.532491 0.434477
C9    C     C_R   0.935830 0.382302 0.535821 -0.200565
C10   C     C_R   0.934219 0.623809 0.517745 -0.220452
C11   C     C_R   0.873043 0.500650 0.515097 -0.181862
C12   C     C_R   0.129131 0.505400 0.535125 -0.308683
C13   C     C_R   0.541471 0.073088 0.568846 -0.025511
C14   C     C_R   0.541415 0.929922 0.568855 -0.071124
C15   C     C_R   0.499786 0.498772 0.338501 0.888520
C16   C     C_R   0.458740 0.926948 0.431074 0.015659
C17   C     C_R   0.458711 0.070072 0.431096 -0.054152
C18   C     C_R   0.740365 0.499671 0.502104 0.927854
C19   C     C_R   0.499392 0.501308 0.661482 0.890621
C20   C     C_3   0.366923 0.604846 0.057221 0.402560
C21   C     C_3   0.446955 0.343772 0.047132 0.378714
C22   C     C_3   0.467089 0.342651 0.943389 0.388433
C23   C     C_3   0.355505 0.603929 0.953151 0.417376
C24   C     C_1   0.490904 0.505230 0.750009 0.063845
C25   C     C_3   0.472214 0.494666 0.082998 -0.271034
C26   C     C_3   0.473461 0.504750 0.916349 -0.382665
H1    H     H_    0.424742 0.872484 0.375839 0.193805
H2    H     H_    0.424044 0.122324 0.376200 0.180693
H3    H     H_    0.640924 0.627882 0.084861 0.262223
H4    H     H_    0.676826 0.463852 0.061839 0.270621
H5    H     H_    0.885209 0.288840 0.542427 0.214572
H6    H     H_    0.882919 0.717196 0.509094 0.217806
H7    H     H_    0.575008 0.127617 0.624219 0.185975
H8    H     H_    0.574762 0.877725 0.624223 0.171254
N1    N     N_R   0.499970 0.857200 0.499980 -0.094008
N2    N     N_R   0.499970 0.142800 0.499980 -0.099898
O1    O     O_R   0.316750 0.614620 0.499990 -0.544392
O2    O     O_R   0.316750 0.385380 0.499990 -0.562902
O3    O     O_R   0.499990 0.614720 0.377140 -0.606453
O4    O     O_R   0.499990 0.385280 0.377140 -0.602302
O5    O     O_R   0.683220 0.614710 0.500000 -0.626147
O6    O     O_R   0.683220 0.385290 0.500000 -0.622221
O7    O     O_R   0.499980 0.614620 0.622860 -0.604374
O8    O     O_R   0.499980 0.385380 0.622860 -0.592568
Zn1   Zn    Zn3+2 0.499980 0.653120 0.500000 1.044286
Zn2   Zn    Zn3+2 0.499980 0.346880 0.500000 1.045937
S1    S     S_3+6 0.194880 0.552874 0.919557 0.166490
O9    O     O_2   0.098780 0.649315 0.956821 -0.152566
O10   O     O_2   0.184647 0.563368 0.824560 -0.194913
O11   O     O_3   0.145844 0.401281 0.949169 -0.433799
H9    H     H_    0.060916 0.391569 0.924309 0.433345
S2    S     S_3+6 0.350924 0.243979 0.875685 0.170919
O12   O     O_2   0.280392 0.332011 0.816370 -0.182931
O13   O     O_2   0.415061 0.144654 0.816380 -0.225438
O14   O     O_3   0.243798 0.153404 0.927717 -0.390290
H10   H     H_    0.292022 0.079885 0.953907 0.421873
Br1   Br    Br    0.205452 0.574937 0.118080 -0.201913
Br2   Br    Br    0.282368 0.279649 0.083763 -0.254379
S3    S     S_3+6 0.538233 0.218888 0.108881 0.108962
O15   O     O_2   0.531994 0.083431 0.066470 -0.137027
O16   O     O_2   0.673142 0.254842 0.124066 -0.241370
O17   O     O_3   0.473526 0.201885 0.205955 -0.554771
H11   H     H_    0.515901 0.122172 0.230161 0.384616
S4    S     S_3+6 0.396349 0.768553 0.110965 0.110893
O18   O     O_2   0.386093 0.755353 0.205783 -0.317435
O19   O     O_2   0.523740 0.824394 0.093214 -0.210922
O20   O     O_3   0.284561 0.880557 0.083493 -0.423605
H12   H     H_    0.299551 0.960935 0.120064 0.413360
S5    S     S_3+6 0.613416 0.246500 0.912537 0.136762
O21   O     O_2   0.648909 0.279068 0.822666 -0.295588
O22   O     O_2   0.724697 0.269803 0.968738 -0.194226
O23   O     O_3   0.592126 0.079137 0.912398 -0.388749
H13   H     H_    0.664360 0.040894 0.879952 0.413574
S6    S     S_3+6 0.354709 0.776316 0.902770 0.164436
O24   O     O_2   0.224211 0.833700 0.894458 -0.138879
O25   O     O_2   0.426000 0.883144 0.949106 -0.174593
O26   O     O_3   0.412897 0.769221 0.803377 -0.550930
H14   H     H_    0.405831 0.862201 0.782072 0.404144
Br3   Br    Br    0.649173 0.749703 0.931051 -0.223479
Br4   Br    Br    0.763288 0.517682 0.897013 -0.240985
S7    S     S_3+6 0.133460 0.236910 0.591274 0.109636
O27   O     O_2   0.243886 0.272606 0.646133 -0.245553
O28   O     O_2   0.038984 0.163004 0.643713 -0.194916
O29   O     O_3   0.181179 0.137029 0.510129 -0.493128
H15   H     H_    0.243389 0.075359 0.535643 0.386044
S8    S     S_3+6 0.125274 0.791035 0.551106 0.085500
O30   O     O_2   0.178018 0.841695 0.469094 -0.287831
O31   O     O_2   0.023935 0.886358 0.582092 -0.226044
O32   O     O_3   0.239008 0.783788 0.624963 -0.492945
H16   H     H_    0.267030 0.877938 0.633091 0.377561

loop_
_geom_bond_atom_site_label_1
_geom_bond_atom_site_label_2
_ccdc_geom_bond_type
O14   H10   S    
C11   C18   S    
C3    H4    S    
S7    O27   D    
S1    O10   D    
O26   H14   S    
C19   O8    A    
O4    Zn2   S    
S6    O25   D    
C21   S3    S    
C18   O6    A    
C16   N1    A    
C5    C6    T    
C4    C24   T    
S8    O31   D    
C20   C25   S    
C3    H3    S    
O6    Zn2   S    
C23   C26   S    
S5    O22   D    
C2    Br3   S    
C6    C15   S    
O8    Zn2   S    
C16   C17   A    
S6    O26   S    
N2    Zn2   S    
C17   N2    A    
C22   S5    S    
S2    O14   S    
C1    O1    A    
O3    Zn1   S    
S2    O13   D    
C16   H1    S    
S3    O15   D    
C21   C22   S    
C1    C12   S    
S7    O28   D    
C19   O7    A    
S1    O11   S    
C7    C12   A    
S3    O16   D    
C23   S1    S    
S6    O24   D    
O20   H12   S    
S4    O20   S    
C3    C25   S    
O29   H15   S    
C13   N2    A    
C18   O5    A    
C14   N1    A    
S8    O30   D    
S4    O19   D    
C20   S4    S    
S5    O23   S    
C13   H7    S    
O17   H11   S    
C9    C11   A    
S1    O9    D    
C20   C23   S    
C8    C12   A    
O11   H9    S    
C2    C26   S    
O7    Zn1   S    
C15   O3    A    
C1    O2    A    
C5    C25   S    
C7    S7    S    
C23   S6    S    
O1    Zn1   S    
N1    Zn1   S    
S7    O29   S    
S2    O12   D    
C22   S2    S    
C7    C9    A    
C21   C25   S    
S3    O17   S    
C17   H2    S    
O23   H13   S    
S8    O32   S    
C14   H8    S    
C4    C26   S    
S4    O18   D    
C2    C3    S    
C20   Br1   S    
C21   Br2   S    
C19   C24   S    
C8    S8    S    
S5    O21   D    
C15   O4    A    
O2    Zn2   S    
C2    Br4   S    
C10   C11   A    
C9    H5    S    
C10   H6    S    
C8    C10   A    
C22   C26   S    
O5    Zn1   S    
O32   H16   S    
C13   C14   A    
