data_mof_unit_42094.cif
_audit_creation_date              2012-12-10T17:24:11-0500
_audit_creation_method            fapswitch 2.2
_symmetry_space_group_name_H-M    P1
_symmetry_Int_Tables_number       1
_space_group_crystal_system       triclinic
_cell_length_a                    10.242501
_cell_length_b                    11.027422
_cell_length_c                    16.905706
_cell_angle_alpha                 92.565075
_cell_angle_beta                  76.550277
_cell_angle_gamma                 95.720772
_cell_volume                      1847.39534123

loop_
_atom_site_label
_atom_site_type_symbol
_atom_type_description
_atom_site_fract_x
_atom_site_fract_y
_atom_site_fract_z
_atom_type_partial_charge
C1    C     C_R   0.556880 0.733132 0.492604 0.733447
C2    C     C_R   0.520627 0.501531 0.345838 1.029588
C3    C     C_R   0.460932 0.490355 0.743528 -0.400566
C4    C     C_R   0.544056 0.512414 0.258368 -0.385933
C5    C     C_R   0.549183 0.429819 0.777597 0.297372
C6    C     C_R   0.480612 0.425936 0.213425 0.304685
C7    C     C_R   0.538492 0.437592 0.861507 0.353947
C8    C     C_R   0.503259 0.437411 0.129374 0.372919
C9    C     C_R   0.444655 0.512336 0.910837 -0.213387
C10   C     C_R   0.593668 0.534600 0.089789 -0.177167
C11   C     C_R   0.336585 0.542743 0.879859 0.292605
C12   C     C_R   0.441124 0.268700 0.506272 0.843175
C13   C     C_R   0.676766 0.604219 0.133474 0.288220
C14   C     C_R   0.348162 0.538648 0.795964 0.329859
C15   C     C_R   0.646675 0.598766 0.218471 0.338167
C16   C     C_2   0.465139 0.565821 0.990095 0.410412
C17   C     C_2   0.587787 0.571786 0.007357 0.467545
C18   C     C_3   0.689827 0.793089 0.267022 0.106153
C19   C     C_3   0.816276 0.881335 0.262431 -0.274188
C20   C     C_3   0.782275 0.013674 0.269298 -0.849506
C21   C     C_3   0.254149 0.702742 0.762034 0.139786
C22   C     C_3   0.113524 0.743196 0.769270 -0.255402
C23   C     C_2   0.583138 0.868420 0.487361 0.148368
C24   C     C_3   0.120055 0.879956 0.758489 -1.018754
C25   C     C_3   0.715080 0.721528 0.922780 0.125986
C26   C     C_3   0.703821 0.729898 0.834421 -0.374793
C27   C     C_3   0.697447 0.861802 0.812716 -0.962871
C28   C     C_3   0.347102 0.722306 0.054928 0.167980
C29   C     C_3   0.422166 0.787051 0.115779 -0.545668
C30   C     C_3   0.400920 0.922531 0.124353 -0.788875
C31   C     C_3   0.546640 0.059321 0.645009 0.120919
C32   C     C_3   0.425047 0.115449 0.699696 -0.407863
C33   C     C_3   0.413327 0.089913 0.789223 -0.833042
C34   C     C_2   0.398731 0.138474 0.506955 0.197395
C35   C     C_3   0.342881 0.856392 0.406975 0.182800
C36   C     C_3   0.196583 0.819808 0.403515 -0.313782
C37   C     C_3   0.181677 0.779658 0.318643 -0.928635
C38   C     C_3   0.163536 0.144605 0.515241 0.186341
C39   C     C_3   0.131688 0.156597 0.608934 -0.523934
C40   C     C_3   0.993677 0.203373 0.642024 -0.713182
C41   C     C_3   0.819158 0.879362 0.485467 0.136529
C42   C     C_3   0.809436 0.864882 0.576324 -0.371497
C43   C     C_3   0.943414 0.837223 0.592117 -0.887550
C44   C     C_2   0.474335 0.933838 0.494862 0.304668
C45   C     C_2   0.483451 0.062416 0.522908 0.375444
C46   C     C_2   0.924505 0.495460 0.513734 0.331295
C47   C     C_2   0.074803 0.496062 0.489414 0.254777
C48   C     C_R   0.479749 0.497912 0.654855 0.952616
Cl1   Cl    Cl    0.671526 0.340148 0.717850 -0.518393
Cl2   Cl    Cl    0.381411 0.297258 0.261389 -0.477950
Cl3   Cl    Cl    0.180703 0.577963 0.942843 -0.460824
Cl4   Cl    Cl    0.818930 0.698921 0.084358 -0.558726
Cl5   Cl    Cl    0.419010 0.325925 0.075470 -0.433169
Cl6   Cl    Cl    0.638556 0.346435 0.902928 -0.434995
Cl7   Cl    Cl    0.143701 0.419302 0.398406 -0.565586
Cl8   Cl    Cl    0.855005 0.554581 0.610844 -0.626079
H1    H     H_    0.111016 0.597253 0.585324 0.191694
H2    H     H_    0.320043 0.730883 0.702395 0.140543
H3    H     H_    0.297178 0.750436 0.811263 0.114284
H4    H     H_    0.067133 0.694959 0.722076 0.237109
H5    H     H_    0.048980 0.719178 0.829997 0.268154
H6    H     H_    0.163151 0.929974 0.806308 0.290301
H7    H     H_    0.017657 0.908026 0.763334 0.276667
H8    H     H_    0.183013 0.903253 0.697470 0.272912
H9    H     H_    0.816198 0.764769 0.926466 0.220262
H10   H     H_    0.641010 0.778189 0.962694 0.105400
H11   H     H_    0.791511 0.691581 0.792841 0.272480
H12   H     H_    0.890463 0.414500 0.410702 0.206047
H13   H     H_    0.610842 0.677873 0.825008 0.201198
H14   H     H_    0.606535 0.898950 0.851618 0.270460
H15   H     H_    0.690646 0.865681 0.748438 0.259860
H16   H     H_    0.788328 0.919520 0.821335 0.284079
H17   H     H_    0.238774 0.737580 0.076069 0.235604
H18   H     H_    0.382187 0.765368 0.994118 0.108680
H19   H     H_    0.387238 0.743379 0.175650 0.240823
H20   H     H_    0.531614 0.779602 0.095413 0.219171
H21   H     H_    0.446125 0.968426 0.065830 0.285158
H22   H     H_    0.450438 0.965476 0.171855 0.270242
H23   H     H_    0.620249 0.807310 0.326337 0.096641
H24   H     H_    0.291811 0.935792 0.142002 0.271556
H25   H     H_    0.634888 0.083290 0.672082 0.210834
H26   H     H_    0.528827 0.958044 0.644847 0.083891
H27   H     H_    0.433203 0.215259 0.691046 0.247929
H28   H     H_    0.332157 0.075627 0.682404 0.192184
H29   H     H_    0.404361 0.990129 0.798708 0.234419
H30   H     H_    0.322546 0.128709 0.826901 0.280170
H31   H     H_    0.503278 0.132319 0.809499 0.312806
H32   H     H_    0.402063 0.779075 0.381663 0.110747
H33   H     H_    0.382040 0.937447 0.368450 0.151963
H34   H     H_    0.639033 0.816535 0.218733 0.131061
H35   H     H_    0.156960 0.742749 0.444499 0.228503
H36   H     H_    0.135899 0.897667 0.424420 0.225955
H37   H     H_    0.219931 0.855192 0.275912 0.274113
H38   H     H_    0.073518 0.755000 0.319699 0.273321
H39   H     H_    0.237175 0.698172 0.298185 0.291770
H40   H     H_    0.080484 0.084997 0.498144 0.140708
H41   H     H_    0.158788 0.231529 0.487119 0.229345
H42   H     H_    0.132946 0.066978 0.635146 0.229494
H43   H     H_    0.207469 0.220824 0.630038 0.234815
H44   H     H_    0.992467 0.296208 0.619477 0.288289
H45   H     H_    0.865048 0.863065 0.312196 0.214084
H46   H     H_    0.971584 0.207758 0.709529 0.290646
H47   H     H_    0.913719 0.141682 0.622881 0.254128
H48   H     H_    0.909615 0.942520 0.461707 0.154656
H49   H     H_    0.838573 0.794638 0.448841 0.160270
H50   H     H_    0.782416 0.950907 0.609120 0.217311
H51   H     H_    0.730515 0.791173 0.601031 0.238921
H52   H     H_    0.928828 0.811749 0.656391 0.292340
H53   H     H_    0.017692 0.917278 0.579796 0.262591
H54   H     H_    0.984512 0.762028 0.551866 0.271675
H55   H     H_    0.889634 0.867442 0.203852 0.266130
H56   H     H_    0.739634 0.035361 0.217439 0.270165
H57   H     H_    0.875254 0.075293 0.268195 0.284852
H58   H     H_    0.707971 0.030210 0.327100 0.278021
N1    N     N_2   0.846390 0.448330 0.467170 -0.187188
N2    N     N_2   0.153610 0.551670 0.532830 -0.213830
O1    O     O_R   0.430310 0.692580 0.506610 -0.588055
O2    O     O_3   0.243229 0.574259 0.766292 -0.553451
O3    O     O_3   0.705293 0.598257 0.947351 -0.553718
O4    O     O_3   0.355701 0.594133 0.051559 -0.575644
O5    O     O_3   0.580355 0.106408 0.565352 -0.601371
O6    O     O_3   0.347194 0.880924 0.489510 -0.615506
O7    O     O_3   0.285181 0.091990 0.478886 -0.638675
O8    O     O_3   0.709511 0.935958 0.471499 -0.637049
O9    O     O_R   0.569690 0.307420 0.493390 -0.556433
O10   O     O_R   0.652740 0.659410 0.485540 -0.605085
O11   O     O_R   0.347260 0.340590 0.514460 -0.614248
O12   O     O_R   0.375640 0.518570 0.627580 -0.589674
O13   O     O_R   0.624360 0.481430 0.372420 -0.585300
O14   O     O_R   0.598070 0.485390 0.606510 -0.496945
O15   O     O_R   0.401930 0.514610 0.393490 -0.547132
O16   O     O_3   0.724749 0.671371 0.262315 -0.582288
Zn1   Zn    Zn3+2 0.351480 0.522150 0.514070 1.016069
Zn2   Zn    Zn3+2 0.648520 0.477850 0.485930 1.067412

loop_
_geom_bond_atom_site_label_1
_geom_bond_atom_site_label_2
_ccdc_geom_bond_type
O9    Zn2   S    
C34   O7    S    
C41   C42   S    
C18   O16   S    
C19   C20   S    
C28   H18   S    
C29   H20   S    
C26   C27   S    
C21   O2    S    
C31   H26   S    
C41   H49   S    
C46   N1    D    
C26   H11   S    
C41   O8    S    
C36   C37   S    
C9    C16   S    
C21   H3    S    
C16   O4    S    
C22   H4    S    
C20   H57   S    
C11   C14   A    
C10   C17   S    
C3    C48   S    
C2    O13   A    
C37   H39   S    
C18   C19   S    
C38   H40   S    
C33   H29   S    
C20   H56   S    
C30   H21   S    
C15   O16   S    
C35   C36   S    
C18   H23   S    
C14   O2    S    
C43   H54   S    
C42   H51   S    
C38   O7    S    
C27   H14   S    
C36   H36   S    
O1    Zn1   S    
C24   H8    S    
C21   C22   S    
C12   O11   A    
C5    Cl1   S    
O14   Zn2   S    
C38   H41   S    
C28   H17   S    
C25   O3    S    
H1    N2    S    
C47   N2    D    
C32   H28   S    
C18   H34   S    
C25   H9    S    
C1    O10   A    
C31   O5    S    
C4    C6    A    
C28   O4    S    
C39   C40   S    
C5    C7    A    
C16   C17   D    
C39   H42   S    
C6    C8    A    
N2    Zn1   S    
C3    C5    A    
C25   C26   S    
C23   C44   D    
C2    C4    S    
C33   H30   S    
C29   C30   S    
C48   O12   A    
C13   Cl4   S    
C9    C11   A    
C35   H32   S    
C39   H43   S    
C31   C32   S    
C2    O15   A    
C37   H37   S    
C34   C45   D    
C1    O1    A    
C6    Cl2   S    
C42   H50   S    
C3    C14   A    
C35   H33   S    
C36   H35   S    
C1    C23   S    
C24   H7    S    
C13   C15   A    
C22   C24   S    
C42   C43   S    
C12   C34   S    
C12   O9    A    
C27   H15   S    
C44   C45   S    
C47   Cl7   S    
C7    C9    A    
C32   H27   S    
C46   C47   S    
C28   C29   S    
C24   H6    S    
C35   O6    S    
C25   H10   S    
O11   Zn1   S    
O15   Zn1   S    
C10   C13   A    
C8    Cl5   S    
C40   H44   S    
C23   O8    S    
C29   H19   S    
N1    Zn2   S    
C19   H55   S    
C31   H25   S    
C41   H48   S    
C45   O5    S    
C32   C33   S    
C4    C15   A    
C33   H31   S    
C30   H24   S    
C21   H2    S    
O12   Zn1   S    
C40   H47   S    
C20   H58   S    
C19   H45   S    
C38   C39   S    
C44   O6    S    
C37   H38   S    
C43   H52   S    
C11   Cl3   S    
C17   O3    S    
H12   N1    S    
C40   H46   S    
O13   Zn2   S    
C30   H22   S    
O10   Zn2   S    
C8    C10   A    
C46   Cl8   S    
C26   H13   S    
C43   H53   S    
C7    Cl6   S    
C27   H16   S    
C48   O14   A    
C22   H5    S    
