data_mof_unit_47499.cif
_audit_creation_date              2012-10-26T17:11:10-0400
_audit_creation_method            fapswitch 2.2
_symmetry_space_group_name_H-M    P1
_symmetry_Int_Tables_number       1
_space_group_crystal_system       triclinic
_cell_length_a                    27.964667
_cell_length_b                    18.772842
_cell_length_c                    16.880861
_cell_angle_alpha                 89.325847
_cell_angle_beta                  62.596287
_cell_angle_gamma                 89.871335
_cell_volume                      7867.00663218

loop_
_atom_site_label
_atom_site_type_symbol
_atom_type_description
_atom_site_fract_x
_atom_site_fract_y
_atom_site_fract_z
_atom_type_partial_charge
C1    C     C_R   0.295878 0.730484 0.328996 0.896897
C2    C     C_R   0.706121 0.273867 0.669593 0.786950
C3    C     C_R   0.702429 0.733667 0.671016 0.801902
C4    C     C_R   0.294747 0.273446 0.330194 0.834450
C5    C     C_R   0.795690 0.230023 0.329085 0.889389
C6    C     C_R   0.206122 0.773903 0.669525 0.774488
C7    C     C_R   0.202344 0.233836 0.670972 0.823453
C8    C     C_R   0.794907 0.773140 0.330042 0.862769
C9    C     C_R   0.521256 0.879171 0.611476 0.195197
C10   C     C_R   0.459527 0.123425 0.480334 0.180003
C11   C     C_R   0.423811 0.874689 0.571050 0.189342
C12   C     C_R   0.529382 0.127637 0.573750 0.192843
C13   C     C_R   0.064573 0.369648 0.456642 0.182296
C14   C     C_R   0.963127 0.626848 0.457628 0.182937
C15   C     C_R   0.974810 0.378662 0.406434 0.194240
C16   C     C_R   0.034396 0.614845 0.548390 0.188665
C17   C     C_R   0.217262 0.759012 0.955056 -0.055810
C18   C     C_R   0.773746 0.222883 0.051982 -0.075062
C19   C     C_R   0.778581 0.773586 0.047119 0.014033
C20   C     C_R   0.221298 0.234749 0.950159 0.010314
C21   C     C_R   0.716304 0.259125 0.956611 -0.055279
C22   C     C_R   0.274317 0.723577 0.051343 -0.069538
C23   C     C_R   0.274960 0.279913 0.050667 0.011911
C24   C     C_R   0.724371 0.728545 0.947449 0.012490
C25   C     C_R   0.196556 0.707124 0.023538 0.149229
C26   C     C_R   0.780692 0.290616 0.010825 0.152446
C27   C     C_R   0.735361 0.723838 0.083245 0.082509
C28   C     C_R   0.271397 0.271877 0.909407 0.133309
C29   C     C_R   0.709423 0.191429 0.997126 0.148901
C30   C     C_R   0.294772 0.775918 0.982876 0.156558
C31   C     C_R   0.230311 0.232262 0.087732 0.088018
C32   C     C_R   0.774112 0.766468 0.906513 0.133797
C33   C     C_R   0.225048 0.689064 0.071505 0.088648
C34   C     C_R   0.752217 0.308611 0.963457 0.126631
C35   C     C_R   0.703189 0.713009 0.040132 0.086033
C36   C     C_R   0.290056 0.306335 0.962937 0.134796
C37   C     C_R   0.738019 0.173162 0.044902 0.086988
C38   C     C_R   0.266511 0.793477 0.935036 0.123340
C39   C     C_R   0.198759 0.221578 0.043464 0.085142
C40   C     C_R   0.792941 0.800745 0.959931 0.136466
C41   C     C_R   0.142434 0.824752 0.945085 -0.230823
C42   C     C_R   0.851211 0.163431 0.060638 -0.237861
C43   C     C_R   0.862929 0.818634 0.052560 -0.279275
C44   C     C_R   0.153531 0.157481 0.928256 -0.183565
C45   C     C_R   0.641735 0.324124 0.945555 -0.259405
C46   C     C_R   0.351001 0.663130 0.061136 -0.252344
C47   C     C_R   0.360867 0.321467 0.053947 -0.278984
C48   C     C_R   0.655100 0.654014 0.926053 -0.182499
C49   C     C_R   0.120781 0.856639 0.892842 -0.070824
C50   C     C_R   0.882573 0.149390 0.104596 -0.107212
C51   C     C_R   0.889333 0.841978 0.100526 -0.059456
C52   C     C_R   0.118659 0.147109 0.890454 -0.121628
C53   C     C_R   0.620453 0.356259 0.893039 -0.063222
C54   C     C_R   0.382456 0.649187 0.104889 -0.107565
C55   C     C_R   0.388465 0.342885 0.100871 -0.063100
C56   C     C_R   0.619195 0.646053 0.889888 -0.118205
C57   C     C_R   0.145315 0.845492 0.800654 0.097825
C58   C     C_R   0.868299 0.180939 0.188111 0.093002
C59   C     C_R   0.871562 0.817745 0.187885 0.133803
C60   C     C_R   0.129229 0.182935 0.810182 0.115651
C61   C     C_R   0.645140 0.345164 0.800854 0.095974
C62   C     C_R   0.368347 0.680930 0.188240 0.151100
C63   C     C_R   0.371136 0.317826 0.187730 0.146711
C64   C     C_R   0.629355 0.682999 0.810493 0.118945
C65   C     C_R   0.184595 0.792198 0.763892 -0.099316
C66   C     C_R   0.818237 0.214821 0.233036 -0.036383
C67   C     C_R   0.818603 0.791186 0.234797 -0.084561
C68   C     C_R   0.175862 0.223964 0.768376 -0.056861
C69   C     C_R   0.684546 0.291993 0.764145 -0.108470
C70   C     C_R   0.318560 0.715536 0.232840 -0.042097
C71   C     C_R   0.317870 0.292542 0.235456 -0.079186
C72   C     C_R   0.676321 0.723308 0.768376 -0.054629
C73   C     C_R   0.205909 0.760299 0.816639 -0.244705
C74   C     C_R   0.787266 0.228121 0.188213 -0.231045
C75   C     C_R   0.786626 0.786647 0.190802 -0.146548
C76   C     C_R   0.200676 0.248110 0.818483 -0.276224
C77   C     C_R   0.705845 0.260188 0.817157 -0.214422
C78   C     C_R   0.287934 0.729689 0.187625 -0.258900
C79   C     C_R   0.284927 0.290664 0.193054 -0.168046
C80   C     C_R   0.702058 0.745639 0.817883 -0.275940
C81   C     C_R   0.186968 0.779631 0.905825 0.141232
C82   C     C_R   0.804536 0.204468 0.101116 0.081581
C83   C     C_R   0.809647 0.793059 0.097186 0.118104
C84   C     C_R   0.191585 0.213405 0.898536 0.124163
C85   C     C_R   0.686336 0.279160 0.906647 0.140049
C86   C     C_R   0.304874 0.705277 0.100917 0.088341
C87   C     C_R   0.307110 0.297547 0.099632 0.121971
C88   C     C_R   0.693622 0.709310 0.896711 0.123100
C89   C     C_R   0.199029 0.630581 0.518655 0.852453
C90   C     C_R   0.804026 0.368228 0.468988 0.834464
C91   C     C_R   0.803858 0.632161 0.469988 0.850797
C92   C     C_R   0.202773 0.368416 0.507259 0.852422
C93   C     C_R   0.697757 0.131358 0.522976 0.889290
C94   C     C_R   0.300380 0.869163 0.483232 0.863288
C95   C     C_R   0.303430 0.131625 0.473784 0.860485
C96   C     C_R   0.697244 0.868448 0.524576 0.857761
C97   C     C_R   0.930063 0.898809 0.063922 0.835175
C98   C     C_R   0.074185 0.095879 0.931966 0.799616
C99   C     C_R   0.074855 0.905302 0.932544 0.825285
C100  C     C_R   0.927013 0.097735 0.066070 0.805462
C101  C     C_R   0.429814 0.399010 0.064067 0.837487
C102  C     C_R   0.574283 0.595656 0.931847 0.797209
C103  C     C_R   0.574739 0.405171 0.932618 0.823567
C104  C     C_R   0.426920 0.597599 0.066188 0.810909
C105  C     C_R   0.054159 0.496570 0.485159 -0.083446
C106  C     C_R   0.959780 0.498404 0.463357 -0.084326
C107  C     C_R   0.533281 0.000297 0.558698 -0.084861
C108  C     C_R   0.438944 0.001171 0.536134 -0.080166
C109  C     C_R   0.023560 0.559519 0.502127 0.068141
C110  C     C_R   0.989642 0.434602 0.447057 0.060865
C111  C     C_R   0.980589 0.562360 0.479380 0.068007
C112  C     C_R   0.036324 0.433032 0.460904 0.059858
C113  C     C_R   0.510900 0.065343 0.549976 0.071600
C114  C     C_R   0.454801 0.936595 0.564007 0.061652
C115  C     C_R   0.468521 0.064977 0.525791 0.065673
C116  C     C_R   0.503019 0.936540 0.575879 0.062023
C117  C     C_R   0.132850 0.434274 0.478641 -0.005714
C118  C     C_R   0.886984 0.565112 0.453724 -0.008914
C119  C     C_R   0.888753 0.435759 0.444404 -0.012665
C120  C     C_R   0.119553 0.558837 0.521653 -0.004500
C121  C     C_R   0.609837 0.936067 0.559595 -0.007768
C122  C     C_R   0.380894 0.064441 0.482799 -0.008817
C123  C     C_R   0.364878 0.939009 0.523132 -0.012837
C124  C     C_R   0.611040 0.065121 0.553589 -0.008780
C125  C     C_R   0.179700 0.434675 0.490965 -0.203763
C126  C     C_R   0.836946 0.565860 0.450026 -0.230726
C127  C     C_R   0.837097 0.435456 0.447777 -0.224325
C128  C     C_R   0.173361 0.562253 0.512345 -0.244678
C129  C     C_R   0.666612 0.935358 0.532649 -0.230630
C130  C     C_R   0.335200 0.065065 0.465830 -0.222353
C131  C     C_R   0.327496 0.936674 0.486058 -0.235378
C132  C     C_R   0.667174 0.064814 0.530624 -0.223469
C133  C     C_R   0.205170 0.499837 0.485061 0.295935
C134  C     C_R   0.816412 0.501008 0.435128 0.364252
C135  C     C_R   0.695431 0.000028 0.503583 0.355079
C136  C     C_R   0.316842 0.999948 0.450435 0.356694
C137  C     C_R   0.102270 0.496702 0.494819 0.068890
C138  C     C_R   0.911116 0.499727 0.455642 0.064490
C139  C     C_R   0.585202 0.000389 0.555383 0.077740
C140  C     C_R   0.394938 0.001472 0.514010 0.074299
C141  C     C_R   0.575353 0.877077 0.596117 -0.230129
C142  C     C_R   0.415956 0.122930 0.461217 -0.202699
C143  C     C_R   0.376211 0.879731 0.563399 -0.233877
C144  C     C_R   0.578465 0.126602 0.577264 -0.221558
C145  C     C_R   0.115244 0.373322 0.451845 -0.221322
C146  C     C_R   0.917891 0.627164 0.443096 -0.207073
C147  C     C_R   0.923033 0.376868 0.413504 -0.201552
C148  C     C_R   0.082161 0.614458 0.556420 -0.221734
Cu1   Cu    Cu3+1 0.209920 0.785290 0.495070 0.987302
Cu2   Cu    Cu3+1 0.790080 0.214710 0.504930 1.014398
Cu3   Cu    Cu3+1 0.790080 0.785290 0.504930 0.991047
Cu4   Cu    Cu3+1 0.209920 0.214710 0.495070 0.998052
Cu5   Cu    Cu3+1 0.709920 0.285290 0.495070 0.997532
Cu6   Cu    Cu3+1 0.290080 0.714710 0.504930 1.025029
Cu7   Cu    Cu3+1 0.290080 0.285290 0.504930 1.003283
Cu8   Cu    Cu3+1 0.709920 0.714710 0.495070 1.023157
Cu9   Cu    Cu3+1 0.495240 0.500000 0.924150 0.941038
Cu10  Cu    Cu3+1 0.504760 0.500000 0.075850 0.971989
Cu11  Cu    Cu3+1 0.995240 0.000000 0.924150 0.941325
Cu12  Cu    Cu3+1 0.004760 1.000000 0.075850 0.956081
H1    H     H_    0.588012 0.831571 0.621490 0.167365
H2    H     H_    0.413306 0.166753 0.421350 0.167092
H3    H     H_    0.350481 0.833608 0.585691 0.172939
H4    H     H_    0.588997 0.173997 0.601197 0.167217
H5    H     H_    0.139610 0.326484 0.426608 0.174418
H6    H     H_    0.911100 0.675748 0.415197 0.168998
H7    H     H_    0.913146 0.333066 0.382485 0.168216
H8    H     H_    0.087981 0.656829 0.593860 0.165420
H9    H     H_    0.126528 0.837534 0.015089 0.164643
H10   H     H_    0.862624 0.142105 0.994999 0.163482
H11   H     H_    0.884058 0.823357 0.981115 0.162546
H12   H     H_    0.150180 0.121942 0.981260 0.176775
H13   H     H_    0.625531 0.336674 0.015680 0.163896
H14   H     H_    0.361984 0.641012 0.996020 0.164715
H15   H     H_    0.381512 0.326442 0.982512 0.163154
H16   H     H_    0.652232 0.616865 0.977271 0.177878
H17   H     H_    0.239046 0.723073 0.787585 0.160579
H18   H     H_    0.749336 0.256246 0.221002 0.168267
H19   H     H_    0.743959 0.777790 0.230526 0.176532
H20   H     H_    0.227944 0.292422 0.792241 0.162883
H21   H     H_    0.739289 0.223434 0.788123 0.163853
H22   H     H_    0.250508 0.758972 0.219901 0.168542
H23   H     H_    0.242183 0.283699 0.234044 0.170447
H24   H     H_    0.729617 0.789671 0.791919 0.161972
O1    O     O_R   0.255040 0.869590 0.478480 -0.510082
O2    O     O_R   0.744960 0.130410 0.521520 -0.519552
O3    O     O_R   0.744960 0.869590 0.521520 -0.521181
O4    O     O_R   0.255040 0.130410 0.478480 -0.507313
O5    O     O_R   0.755040 0.369590 0.478480 -0.508526
O6    O     O_R   0.244960 0.630410 0.521520 -0.502160
O7    O     O_R   0.244960 0.369590 0.521520 -0.522853
O8    O     O_R   0.755040 0.630410 0.478480 -0.500171
O9    O     O_R   0.182050 0.796550 0.624440 -0.609108
O10   O     O_R   0.817950 0.203450 0.375560 -0.543207
O11   O     O_R   0.817950 0.796550 0.375560 -0.584392
O12   O     O_R   0.182050 0.203450 0.624440 -0.561972
O13   O     O_R   0.682050 0.296550 0.624440 -0.610274
O14   O     O_R   0.317950 0.703450 0.375560 -0.511748
O15   O     O_R   0.317950 0.296550 0.375560 -0.577207
O16   O     O_R   0.682050 0.703450 0.624440 -0.567399
O17   O     O_R   0.250530 0.763330 0.367210 -0.596574
O18   O     O_R   0.749470 0.236670 0.632790 -0.594289
O19   O     O_R   0.749470 0.763330 0.632790 -0.604683
O20   O     O_R   0.250530 0.236670 0.367210 -0.588141
O21   O     O_R   0.750530 0.263330 0.367210 -0.585194
O22   O     O_R   0.249470 0.736670 0.632790 -0.608278
O23   O     O_R   0.249470 0.263330 0.632790 -0.601833
O24   O     O_R   0.750530 0.736670 0.367210 -0.570053
O25   O     O_R   0.177260 0.690030 0.513710 -0.609885
O26   O     O_R   0.822740 0.309970 0.486290 -0.608697
O27   O     O_R   0.822740 0.690030 0.486290 -0.617331
O28   O     O_R   0.177260 0.309970 0.513710 -0.622892
O29   O     O_R   0.677260 0.190030 0.513710 -0.609307
O30   O     O_R   0.322740 0.809970 0.486290 -0.615867
O31   O     O_R   0.322740 0.190030 0.486290 -0.615199
O32   O     O_R   0.677260 0.809970 0.513710 -0.605559
O33   O     O_R   0.051640 0.926880 0.885090 -0.558693
O34   O     O_R   0.948360 0.073120 0.114910 -0.591909
O35   O     O_R   0.948360 0.926880 0.114910 -0.551017
O36   O     O_R   0.051640 0.073120 0.885090 -0.596744
O37   O     O_R   0.551640 0.426880 0.885090 -0.559472
O38   O     O_R   0.448360 0.573120 0.114910 -0.583548
O39   O     O_R   0.448360 0.426880 0.114910 -0.544508
O40   O     O_R   0.551640 0.573120 0.885090 -0.596755
O41   O     O_R   0.940620 0.926560 0.986760 -0.603118
O42   O     O_R   0.059380 0.073440 0.013240 -0.587314
O43   O     O_R   0.059380 0.926560 0.013240 -0.603808
O44   O     O_R   0.940620 0.073440 0.986760 -0.589570
O45   O     O_R   0.440620 0.426560 0.986760 -0.604376
O46   O     O_R   0.559380 0.573440 0.013240 -0.587121
O47   O     O_R   0.559380 0.426560 0.013240 -0.604907
O48   O     O_R   0.440620 0.573440 0.986760 -0.592807
S1    S     S_3+6 0.276039 0.503949 0.413276 0.021357
O49   O     O_2   0.306048 0.511103 0.467223 -0.242598
O50   O     O_2   0.295286 0.438406 0.357281 -0.325255
O51   O     O_3   0.290022 0.573656 0.343249 -0.535892
H25   H     H_    0.269242 0.564982 0.310015 0.322684
S2    S     S_3+6 0.777343 0.501916 0.375941 0.021369
O52   O     O_2   0.790133 0.567440 0.317519 -0.293035
O53   O     O_2   0.789999 0.437556 0.317524 -0.305365
O54   O     O_3   0.711446 0.501377 0.449354 -0.519475
H26   H     H_    0.692468 0.502256 0.412212 0.358405
S3    S     S_3+6 0.762531 0.000237 0.413679 0.012521
O55   O     O_2   0.802607 0.002085 0.449806 -0.271529
O56   O     O_2   0.771846 0.934936 0.357873 -0.334687
O57   O     O_3   0.771711 0.071644 0.347349 -0.559393
H27   H     H_    0.804470 0.060790 0.291352 0.363627
S4    S     S_3+6 0.290962 0.998115 0.371292 0.022181
O58   O     O_2   0.309232 0.063101 0.311691 -0.298332
O59   O     O_2   0.310959 0.933156 0.314000 -0.300684
O60   O     O_3   0.223247 0.996551 0.425865 -0.517836
H28   H     H_    0.211833 0.995077 0.378384 0.361118
N1    N     N_3   0.483855 0.831638 0.678063 -0.561019
H29   H     H_    0.483273 0.843378 0.738905 0.219084
H30   H     H_    0.498312 0.779622 0.661743 0.226157
N2    N     N_3   0.498748 0.179259 0.441695 -0.579511
H31   H     H_    0.479004 0.228139 0.461667 0.224267
H32   H     H_    0.514803 0.176782 0.372284 0.214628
N3    N     N_3   0.443052 0.804406 0.573416 -0.572142
H33   H     H_    0.448851 0.778187 0.515351 0.219591
H34   H     H_    0.413244 0.776686 0.627824 0.223950
N4    N     N_3   0.495477 0.189046 0.605461 -0.574545
H35   H     H_    0.517921 0.233890 0.571190 0.224693
H36   H     H_    0.485299 0.195243 0.672842 0.214134
N5    N     N_3   0.039603 0.300841 0.470389 -0.574301
H37   H     H_    0.035211 0.280295 0.531236 0.220605
H38   H     H_    0.065631 0.266853 0.420343 0.216165
N6    N     N_3   0.996061 0.689726 0.435158 -0.582320
H39   H     H_    0.971810 0.732329 0.470727 0.225292
H40   H     H_    0.009907 0.700796 0.367242 0.209419
N7    N     N_3   0.014481 0.332211 0.343235 -0.585136
H41   H     H_    0.019090 0.345618 0.279794 0.214813
H42   H     H_    0.999660 0.279992 0.357287 0.224727
N8    N     N_3   0.994348 0.667242 0.596371 -0.573958
H43   H     H_    0.012231 0.717651 0.578085 0.224467
H44   H     H_    0.982480 0.659951 0.664399 0.216891
N9    N     N_3   0.288141 0.847927 0.867146 -0.537834
H45   H     H_    0.296477 0.825666 0.805712 0.214757
H46   H     H_    0.259215 0.887767 0.881588 0.222649
N10   N     N_3   0.729863 0.104117 0.086518 -0.590189
H47   H     H_    0.766713 0.077384 0.059593 0.230771
H48   H     H_    0.716904 0.110825 0.154761 0.243640
N11   N     N_3   0.821951 0.866386 0.925623 -0.595875
H49   H     H_    0.819856 0.899262 0.976619 0.229770
H50   H     H_    0.861735 0.855730 0.879197 0.232219
N12   N     N_3   0.143574 0.199824 0.094551 -0.602058
H51   H     H_    0.123677 0.237561 0.144027 0.228091
H52   H     H_    0.142056 0.150693 0.125430 0.211669
N13   N     N_3   0.760881 0.377624 0.921531 -0.540126
H53   H     H_    0.773698 0.370968 0.853323 0.222785
H54   H     H_    0.724360 0.405124 0.948674 0.219476
N14   N     N_3   0.203661 0.634809 0.139602 -0.596858
H55   H     H_    0.232566 0.594842 0.124447 0.232618
H56   H     H_    0.196305 0.657145 0.200552 0.226966
N15   N     N_3   0.319499 0.371658 0.928290 -0.594722
H57   H     H_    0.318259 0.404135 0.979027 0.228173
H58   H     H_    0.359044 0.360540 0.881182 0.233304
N16   N     N_3   0.648645 0.689074 0.092086 -0.600552
H59   H     H_    0.628506 0.725371 0.143316 0.229890
H60   H     H_    0.648641 0.639339 0.120600 0.213692
N17   N     N_3   0.146508 0.672544 0.043711 -0.569957
H61   H     H_    0.119721 0.681598 0.110708 0.234653
H62   H     H_    0.153400 0.617736 0.035401 0.243404
N18   N     N_3   0.817203 0.341950 0.015585 -0.530492
H63   H     H_    0.804709 0.353715 0.082600 0.238207
H64   H     H_    0.855581 0.319321 0.989270 0.225143
N19   N     N_3   0.724880 0.682052 0.161344 -0.579758
H65   H     H_    0.727649 0.628148 0.144939 0.243560
H66   H     H_    0.685799 0.692249 0.210959 0.213492
N20   N     N_3   0.307246 0.270768 0.815241 -0.592017
H67   H     H_    0.300148 0.226848 0.784636 0.232306
H68   H     H_    0.304840 0.318881 0.785532 0.234728
N21   N     N_3   0.672967 0.141485 0.989852 -0.569192
H69   H     H_    0.643662 0.127792 0.054224 0.242032
H70   H     H_    0.694535 0.095533 0.959618 0.239242
N22   N     N_3   0.344111 0.812980 0.961696 -0.535675
H71   H     H_    0.340762 0.837061 0.019559 0.236726
H72   H     H_    0.375463 0.776035 0.940211 0.216637
N23   N     N_3   0.217750 0.192142 0.167829 -0.588434
H73   H     H_    0.219127 0.137887 0.153656 0.237483
H74   H     H_    0.178786 0.204734 0.216081 0.207695
N24   N     N_3   0.809553 0.766119 0.812146 -0.592800
H75   H     H_    0.801879 0.723021 0.781022 0.232638
H76   H     H_    0.807267 0.814795 0.783420 0.233467
N25   N     N_3   0.133620 0.893601 0.744812 -0.559572
H77   H     H_    0.169286 0.914781 0.694051 0.229479
H78   H     H_    0.110493 0.867892 0.719600 0.253672
N26   N     N_3   0.904241 0.180750 0.227486 -0.576860
H79   H     H_    0.942863 0.196052 0.179715 0.224378
H80   H     H_    0.904705 0.130196 0.253663 0.266988
N27   N     N_3   0.908120 0.819835 0.226004 -0.569706
H81   H     H_    0.909662 0.769674 0.252317 0.215046
H82   H     H_    0.895880 0.858766 0.275176 0.274689
N28   N     N_3   0.093410 0.180026 0.770669 -0.565773
H83   H     H_    0.094750 0.129500 0.744418 0.257529
H84   H     H_    0.054325 0.192836 0.818294 0.227070
N29   N     N_3   0.633473 0.393259 0.744963 -0.557462
H85   H     H_    0.669123 0.414555 0.694298 0.236681
H86   H     H_    0.610368 0.367557 0.719702 0.252246
N30   N     N_3   0.404240 0.680378 0.227706 -0.556013
H87   H     H_    0.442907 0.695572 0.180003 0.218925
H88   H     H_    0.404558 0.629757 0.253841 0.287660
N31   N     N_3   0.408382 0.317842 0.224542 -0.568583
H89   H     H_    0.409271 0.267240 0.250385 0.217991
H90   H     H_    0.397135 0.356380 0.274031 0.282936
N32   N     N_3   0.592908 0.681775 0.772117 -0.581473
H91   H     H_    0.593563 0.631656 0.745371 0.260302
H92   H     H_    0.554092 0.694666 0.820689 0.221155

loop_
_geom_bond_atom_site_label_1
_geom_bond_atom_site_label_2
_ccdc_geom_bond_type
C51   C97   S    
N24   H76   S    
C40   N11   S    
Cu9   Cu10  S    
C98   O36   A    
C1    O14   A    
C2    O18   A    
C94   O1    A    
Cu5   O29   S    
N29   H85   S    
C102  O40   A    
C61   C69   A    
N17   H61   S    
C16   N8    S    
C13   C112  A    
Cu7   O23   S    
Cu12  O35   S    
N7    H41   S    
C62   C70   A    
N8    H43   S    
C135  S3    S    
C62   N30   S    
C107  C113  A    
C42   H10   S    
C7    C68   S    
N20   H67   S    
C4    O15   A    
Cu8   O32   S    
Cu9   O40   S    
C77   H21   S    
C46   H14   S    
C75   H19   S    
Cu4   O4    S    
C79   C87   A    
C144  H4    S    
C134  S2    S    
C41   C49   A    
S4    O59   D    
C16   C109  A    
N20   H68   S    
C94   O30   A    
N30   H87   S    
C57   C65   A    
C20   C28   A    
C27   C35   A    
C41   H9    S    
N22   H71   S    
C11   N3    S    
C24   C32   A    
C45   H13   S    
C74   H18   S    
C64   N32   S    
C12   N4    S    
C147  H7    S    
C7    O23   A    
C105  C112  A    
N6    H40   S    
C120  C148  A    
N16   H59   S    
C90   O26   A    
C26   C34   A    
C9    C116  A    
C9    N1    S    
N30   H88   S    
N3    H34   S    
Cu10  O47   S    
C50   C100  S    
C1    C70   S    
C96   O32   A    
Cu12  O43   S    
C17   C25   A    
N14   H56   S    
C3    C72   S    
C80   C88   A    
C103  O37   A    
N12   H52   S    
C52   C98   S    
C18   C82   S    
Cu8   O24   S    
C37   N10   S    
C126  C134  A    
Cu11  O36   S    
C102  O46   A    
C7    O12   A    
C118  C138  A    
C11   C143  A    
C4    C71   S    
C96   C129  S    
C113  C115  A    
N23   H74   S    
Cu10  O39   S    
C43   C83   A    
C124  C139  A    
C69   C77   A    
C127  C134  A    
C13   C145  A    
C43   C51   A    
C92   C125  S    
C71   C79   A    
Cu9   O45   S    
N15   H58   S    
Cu5   O5    S    
C30   C38   A    
Cu2   O26   S    
C108  C115  A    
C117  C145  A    
C29   N21   S    
C109  C111  A    
N1    H29   S    
Cu6   O14   S    
N21   H70   S    
Cu3   O11   S    
C66   C74   A    
C59   N27   S    
C49   C57   A    
O51   H25   S    
C124  C132  A    
C8    O11   A    
C32   N24   S    
O54   H26   S    
N25   H78   S    
C52   C60   A    
C59   C67   A    
C129  C135  A    
C53   C61   A    
Cu2   O10   S    
N2    H32   S    
C95   C130  S    
C89   O6    A    
C56   C64   A    
C2    C69   S    
S1    O49   D    
C92   O7    A    
C93   O2    A    
C44   C52   A    
N18   H64   S    
C77   C85   A    
N9    H45   S    
Cu9   O37   S    
C96   O3    A    
C58   N26   S    
C19   C83   S    
C104  O38   A    
N13   H53   S    
C106  C111  A    
C103  O47   A    
Cu4   O12   S    
N10   H47   S    
C91   O27   A    
C131  C136  A    
C43   H11   S    
N28   H83   S    
C89   O25   A    
C78   H22   S    
C47   C87   A    
C49   C99   S    
S1    O50   D    
C38   N9    S    
N32   H92   S    
S3    O57   S    
C3    O16   A    
Cu11  O44   S    
N5    H38   S    
C60   C68   A    
C42   C50   A    
Cu5   O21   S    
C23   C36   A    
C20   C84   S    
C92   O28   A    
C67   C75   A    
C33   N14   S    
Cu7   O15   S    
C35   N16   S    
C105  C109  A    
O57   H27   S    
C22   C30   A    
C119  C138  A    
C5    C66   S    
C30   N22   S    
Cu2   O2    S    
C114  C116  A    
N4    H35   S    
C68   C76   A    
C44   C84   A    
C121  C139  A    
N31   H90   S    
C122  C140  A    
C72   C80   A    
Cu12  O42   S    
N8    H44   S    
C17   C38   A    
C80   H24   S    
Cu4   O28   S    
S1    O51   S    
C110  C112  A    
C107  C116  A    
C6    O22   A    
C19   C40   A    
C105  C137  A    
C8    C67   S    
N11   H49   S    
C28   N20   S    
C5    O10   A    
C117  C125  A    
C47   H15   S    
C25   C33   A    
C48   H16   S    
C119  C127  A    
C97   O41   A    
Cu1   O1    S    
C2    O13   A    
C3    O19   A    
C18   C26   A    
Cu6   O30   S    
C1    O17   A    
C76   C84   A    
O60   H28   S    
C145  H5    S    
Cu3   O3    S    
S2    O54   S    
C10   N2    S    
C54   C104  S    
Cu1   O25   S    
N11   H50   S    
C119  C147  A    
S3    O55   D    
Cu11  O41   S    
C136  S4    S    
N22   H72   S    
C10   C142  A    
C108  C114  A    
C100  O44   A    
C63   N31   S    
C6    C65   S    
Cu2   Cu5   S    
C95   O4    A    
C90   C127  S    
C48   C88   A    
C34   N13   S    
N24   H75   S    
Cu6   O6    S    
C15   C110  A    
N16   H60   S    
C74   C82   A    
N29   H86   S    
C4    O20   A    
S2    O53   D    
N17   H62   S    
C21   C85   S    
C93   O29   A    
N19   H65   S    
C50   C58   A    
C121  C141  A    
N15   H57   S    
C20   C39   A    
N26   H79   S    
C21   C34   A    
C54   C62   A    
C57   N25   S    
C45   C53   A    
Cu1   Cu6   S    
Cu11  Cu12  S    
Cu4   Cu7   S    
C41   C81   A    
C46   C54   A    
C133  S1    S    
Cu3   Cu8   S    
Cu7   O31   S    
C24   C88   S    
C60   N28   S    
C63   C71   A    
C73   C81   A    
C148  H8    S    
Cu2   O18   S    
S4    O58   D    
C55   C101  S    
S2    O52   D    
C123  C131  A    
C121  C129  A    
C76   H20   S    
C13   N5    S    
C142  H2    S    
C120  C128  A    
C91   O8    A    
C94   C131  S    
C15   C147  A    
C75   C83   A    
N21   H69   S    
C21   C29   A    
C53   C103  S    
C27   N19   S    
C17   C81   S    
C22   C86   S    
N25   H77   S    
C106  C138  A    
C56   C102  S    
N23   H73   S    
N6    H39   S    
C28   C36   A    
C29   C37   A    
Cu4   O20   S    
C101  O45   A    
C120  C137  A    
C6    O9    A    
C23   C31   A    
C89   C128  S    
N31   H89   S    
C141  H1    S    
C91   C126  S    
C70   C78   A    
C95   O31   A    
C42   C82   A    
N27   H81   S    
Cu10  O46   S    
C44   H12   S    
Cu3   O27   S    
N14   H55   S    
C18   C37   A    
N10   H48   S    
N12   H51   S    
N28   H84   S    
C104  O48   A    
Cu5   O13   S    
C25   N17   S    
C65   C73   A    
C8    O24   A    
C11   C114  A    
C58   C66   A    
C36   N15   S    
C99   O33   A    
C79   H23   S    
Cu11  O33   S    
C97   O35   A    
C19   C27   A    
N5    H37   S    
C48   C56   A    
S4    O60   S    
C73   H17   S    
C78   C86   A    
C64   C72   A    
C146  H6    S    
Cu10  O38   S    
C23   C87   S    
C107  C139  A    
Cu8   O16   S    
C15   N7    S    
C14   N6    S    
C39   N12   S    
C14   C111  A    
Cu12  O34   S    
C24   C35   A    
C118  C146  A    
N26   H80   S    
C108  C140  A    
C9    C141  A    
N4    H36   S    
S3    O56   D    
C117  C137  A    
C123  C140  A    
C100  O34   A    
C12   C144  A    
C55   C63   A    
N19   H66   S    
C45   C85   A    
N1    H30   S    
N2    H31   S    
N27   H82   S    
Cu6   O22   S    
Cu7   O7    S    
C143  H3    S    
Cu8   O8    S    
N18   H63   S    
N9    H46   S    
C51   C59   A    
C122  C142  A    
N3    H33   S    
C93   C132  S    
Cu1   O17   S    
C47   C55   A    
C12   C113  A    
C106  C110  A    
C125  C133  A    
N7    H42   S    
C22   C33   A    
C130  C136  A    
Cu3   O19   S    
C14   C146  A    
Cu1   O9    S    
C26   N18   S    
C16   C148  A    
C128  C133  A    
C101  O39   A    
N32   H91   S    
C132  C135  A    
N13   H54   S    
C31   C39   A    
C32   C40   A    
C99   O43   A    
C5    O21   A    
C31   N23   S    
C123  C143  A    
C124  C144  A    
C61   N29   S    
C118  C126  A    
C46   C86   A    
C122  C130  A    
C10   C115  A    
Cu9   O48   S    
C98   O42   A    
C90   O5    A    
