data_mof_unit_65740.cif
_audit_creation_date              2012-10-26T18:45:09-0400
_audit_creation_method            fapswitch 2.2
_symmetry_space_group_name_H-M    P1
_symmetry_Int_Tables_number       1
_space_group_crystal_system       triclinic
_cell_length_a                    15.993578
_cell_length_b                    14.771801
_cell_length_c                    10.756043
_cell_angle_alpha                 89.916468
_cell_angle_beta                  89.991892
_cell_angle_gamma                 89.978209
_cell_volume                      2541.15475155

loop_
_atom_site_label
_atom_site_type_symbol
_atom_type_description
_atom_site_fract_x
_atom_site_fract_y
_atom_site_fract_z
_atom_type_partial_charge
C1    C     C_R   0.340853 0.500011 0.500184 0.554210
C2    C     C_1   0.176681 0.500023 0.500695 -0.029641
C3    C     C_1   0.251735 0.500027 0.500462 0.012110
C4    C     C_1   0.748256 0.499966 0.500391 0.012920
C5    C     C_R   0.500236 0.951779 0.612960 0.225435
C6    C     C_R   0.500155 0.047962 0.612959 0.225235
C7    C     C_R   0.501822 0.500168 0.259438 0.525629
C8    C     C_R   0.500076 0.902853 0.500113 -0.066890
C9    C     C_R   0.500009 0.097135 0.500112 -0.067898
C10   C     C_R   0.499946 0.952024 0.387276 0.225430
C11   C     C_R   0.499924 0.048198 0.387275 0.225240
C12   C     C_3   0.565899 0.429552 0.929028 -0.202519
C13   C     C_1   0.500026 0.802593 0.500085 0.274440
C14   C     C_1   0.499987 0.197403 0.500084 0.275220
C15   C     C_R   0.659138 0.499987 0.500120 0.552631
C16   C     C_R   0.501291 0.500012 0.740773 0.587381
C17   C     C_3   0.525347 0.596137 0.071926 -0.195292
C18   C     C_3   0.414679 0.474663 0.073430 -0.205859
C19   C     C_3   0.527127 0.595937 0.928995 0.080009
C20   C     C_3   0.413188 0.477045 0.929723 0.064145
C21   C     C_3   0.567651 0.431809 0.072214 -0.234505
C22   C     C_3   0.502463 0.500691 0.122011 -0.045686
C23   C     C_R   0.956325 0.582140 0.498468 -0.085082
C24   C     C_3   0.502204 0.500170 0.878674 0.026321
C25   C     C_R   0.956406 0.417839 0.503357 -0.092231
C26   C     C_R   0.912772 0.499982 0.500868 0.038057
C27   C     C_R   0.043666 0.417853 0.503377 -0.085295
C28   C     C_R   0.043585 0.582155 0.498484 -0.092234
C29   C     C_R   0.087219 0.500011 0.500904 0.037833
C30   C     C_1   0.823310 0.499967 0.500634 -0.029122
Cl1   Cl    Cl    0.499848 0.892883 0.244564 -0.436750
Cl2   Cl    Cl    0.499787 0.107627 0.244560 -0.430264
Cl3   Cl    Cl    0.627990 0.632564 0.874284 -0.535457
Cl4   Cl    Cl    0.371988 0.372184 0.871157 -0.523014
Cl5   Cl    Cl    0.500213 0.107113 0.755660 -0.399228
Cl6   Cl    Cl    0.500605 0.892308 0.755660 -0.406948
Cu1   Cu    Cu3+1 0.500000 0.589220 0.500040 1.086505
Cu2   Cu    Cu3+1 0.500000 0.410780 0.500040 1.093195
H1    H     H_    0.586876 0.617365 0.110448 0.201639
H2    H     H_    0.548755 0.360258 0.897768 0.210721
H3    H     H_    0.076957 0.645964 0.496558 0.133820
H4    H     H_    0.077101 0.354054 0.505252 0.140709
H5    H     H_    0.922890 0.645938 0.496534 0.140539
H6    H     H_    0.923033 0.354028 0.505216 0.133759
H7    H     H_    0.397735 0.406217 0.108737 0.206633
H8    H     H_    0.478392 0.646732 0.103836 0.158357
H9    H     H_    0.367086 0.522674 0.110257 0.107985
H10   H     H_    0.481057 0.646986 0.895479 0.175258
H11   H     H_    0.368911 0.530850 0.899270 0.127580
H12   H     H_    0.631342 0.450803 0.104694 0.141923
H13   H     H_    0.554136 0.362716 0.108421 0.189923
H14   H     H_    0.629558 0.443289 0.891964 0.165822
N1    N     N_1   0.499980 0.276710 0.500040 -0.153785
N2    N     N_1   0.499980 0.723290 0.500040 -0.154527
O1    O     O_R   0.380310 0.575320 0.500060 -0.502235
O2    O     O_R   0.380310 0.424680 0.500060 -0.470740
O3    O     O_R   0.499990 0.575340 0.317720 -0.504642
O4    O     O_R   0.499990 0.424660 0.317720 -0.499917
O5    O     O_R   0.619690 0.575360 0.500000 -0.471533
O6    O     O_R   0.619690 0.424640 0.500000 -0.504802
O7    O     O_R   0.500010 0.575340 0.682340 -0.474231
O8    O     O_R   0.500010 0.424660 0.682340 -0.456288

loop_
_geom_bond_atom_site_label_1
_geom_bond_atom_site_label_2
_ccdc_geom_bond_type
C16   O7    A    
C12   H2    S    
C5    C8    A    
Cu1   O7    S    
C9    C14   S    
C5    Cl6   S    
C20   H11   S    
C25   C27   A    
C7    C22   S    
C27   C29   A    
C15   O6    A    
C12   C24   S    
C7    O4    A    
C17   C22   S    
C20   Cl4   S    
C18   H9    S    
C6    C9    A    
C2    C3    T    
C1    O1    A    
C23   H5    S    
C16   C24   S    
C18   C22   S    
C21   C22   S    
C6    Cl5   S    
C9    C11   A    
C27   H4    S    
Cu1   O5    S    
Cu2   N1    S    
C16   O8    A    
C4    C15   S    
C2    C29   S    
Cu2   O6    S    
Cu1   N2    S    
C12   C21   S    
C25   H6    S    
C28   C29   A    
C17   C19   S    
Cu1   Cu2   S    
C7    O3    A    
C11   Cl2   S    
C26   C30   S    
C18   C20   S    
C8    C13   S    
C19   Cl3   S    
C5    C6    A    
Cu1   O3    S    
C23   C28   A    
C10   C11   A    
Cu1   O1    S    
C18   H7    S    
C28   H3    S    
C21   H13   S    
C14   N1    T    
Cu2   O2    S    
C17   H8    S    
C8    C10   A    
C13   N2    T    
C17   H1    S    
C23   C26   A    
C19   H10   S    
C21   H12   S    
C15   O5    A    
C12   H14   S    
C25   C26   A    
Cu2   O4    S    
C19   C24   S    
C10   Cl1   S    
C1    O2    A    
C4    C30   T    
C20   C24   S    
Cu2   O8    S    
C1    C3    S    
