data_mof_unit_7789.cif
_audit_creation_date              2012-12-10T21:21:36-0500
_audit_creation_method            fapswitch 2.2
_symmetry_space_group_name_H-M    P1
_symmetry_Int_Tables_number       1
_space_group_crystal_system       triclinic
_cell_length_a                    17.523568
_cell_length_b                    16.953825
_cell_length_c                    23.278453
_cell_angle_alpha                 90.001256
_cell_angle_beta                  92.565892
_cell_angle_gamma                 90.000057
_cell_volume                      6908.89680896

loop_
_atom_site_label
_atom_site_type_symbol
_atom_type_description
_atom_site_fract_x
_atom_site_fract_y
_atom_site_fract_z
_atom_type_partial_charge
C1    C     C_R   0.353484 0.499988 0.502233 0.891714
C2    C     C_R   0.646516 0.499988 0.497766 0.891723
C3    C     C_R   0.556938 0.427179 0.245455 0.395380
C4    C     C_R   0.443058 0.427180 0.754542 0.395376
C5    C     C_R   0.551959 0.435322 0.304541 -0.407967
C6    C     C_R   0.448039 0.435324 0.695456 -0.407966
C7    C     C_R   0.510671 0.497651 0.327410 -0.317903
C8    C     C_R   0.489323 0.497656 0.672590 -0.317917
C9    C     C_R   0.477137 0.555148 0.290959 0.383461
C10   C     C_R   0.522847 0.555159 0.709042 0.383460
C11   C     C_R   0.493931 0.555410 0.232747 0.337767
C12   C     C_R   0.506048 0.555420 0.767253 0.337758
C13   C     C_R   0.528192 0.487949 0.209217 -0.019301
C14   C     C_R   0.471795 0.487955 0.790781 -0.019290
C15   C     C_R   0.840754 0.573955 0.463600 -0.264552
C16   C     C_R   0.145285 0.452940 0.481605 -0.271202
C17   C     C_R   0.159244 0.573956 0.536392 -0.264552
C18   C     C_R   0.854716 0.452939 0.518383 -0.271202
C19   C     C_R   0.761936 0.564105 0.460352 0.430446
C20   C     C_R   0.224012 0.441089 0.485123 0.439148
C21   C     C_R   0.238062 0.564105 0.539644 0.430447
C22   C     C_R   0.775988 0.441089 0.514869 0.439154
C23   C     C_R   0.728900 0.500965 0.490573 -0.295885
C24   C     C_R   0.271099 0.500965 0.509424 -0.295883
C25   C     C_R   0.886153 0.519476 0.493762 0.005175
C26   C     C_R   0.113846 0.519478 0.506226 0.005172
C27   C     C_R   0.501317 0.499714 0.389268 0.912987
C28   C     C_R   0.498681 0.499716 0.610732 0.912987
C29   C     C_1   0.966119 0.528408 0.497940 0.005278
C30   C     C_1   0.033881 0.528409 0.502047 0.005278
C31   C     C_R   0.432273 0.833238 0.506507 0.232397
C32   C     C_R   0.505274 0.166775 0.551862 0.167750
C33   C     C_R   0.567727 0.833237 0.493490 0.232392
C34   C     C_R   0.494724 0.166774 0.448134 0.168319
C35   C     C_R   0.432574 0.749513 0.498898 0.394659
C36   C     C_R   0.510381 0.250787 0.550705 0.361826
C37   C     C_R   0.567426 0.749513 0.501102 0.394662
C38   C     C_R   0.489619 0.250787 0.449294 0.361724
C39   C     C_R   0.500000 0.876369 0.499998 -0.259688
C40   C     C_R   0.499999 0.123921 0.499997 -0.277918
C41   C     C_1   0.500000 0.963897 0.499997 0.358209
C42   C     C_1   0.499999 0.036337 0.499996 0.286339
C43   C     C_R   0.548525 0.463524 0.876626 0.669134
C44   C     C_R   0.451465 0.463510 0.123372 0.669136
C45   C     C_R   0.414117 0.482814 0.883305 0.706823
C46   C     C_R   0.585871 0.482818 0.116693 0.706815
C47   C     C_R   0.420725 0.475810 0.943526 -0.147419
C48   C     C_R   0.579263 0.475817 0.056472 -0.147425
C49   C     C_R   0.494942 0.470391 0.969889 -0.075192
C50   C     C_R   0.505047 0.470390 0.030108 -0.075198
C51   C     C_R   0.559264 0.465485 0.936193 -0.052991
C52   C     C_R   0.440726 0.465473 0.063804 -0.052996
C53   C     C_R   0.356491 0.475604 0.978324 0.506185
C54   C     C_R   0.643498 0.475623 0.021674 0.506188
C55   C     C_R   0.367170 0.465299 0.037627 -0.204465
C56   C     C_R   0.632820 0.465320 0.962371 -0.204463
H1    H     H_    0.317350 0.460811 0.063335 0.197643
H2    H     H_    0.682640 0.460841 0.936662 0.197645
H3    H     H_    0.577010 0.390754 0.332863 0.236449
H4    H     H_    0.422994 0.390752 0.667133 0.236455
H5    H     H_    0.866225 0.624178 0.442929 0.180159
H6    H     H_    0.108683 0.410587 0.458879 0.158844
H7    H     H_    0.133771 0.624179 0.557064 0.180160
H8    H     H_    0.891320 0.410586 0.541106 0.158843
N1    N     N_R   0.477588 0.476532 0.851613 -0.309583
N2    N     N_R   0.522400 0.476525 0.148385 -0.309583
N3    N     N_R   0.500000 0.707230 0.500000 -0.200033
N4    N     N_R   0.500000 0.292770 0.500000 -0.226081
O1    O     O_R   0.389110 0.566570 0.500000 -0.541733
O2    O     O_R   0.610890 0.433430 0.500000 -0.619739
O3    O     O_R   0.610890 0.566570 0.500000 -0.541732
O4    O     O_R   0.389110 0.433430 0.500000 -0.619746
O5    O     O_R   0.499970 0.566560 0.416150 -0.594191
O6    O     O_R   0.500030 0.433440 0.583850 -0.581742
O7    O     O_R   0.500030 0.566560 0.583850 -0.594184
O8    O     O_R   0.499970 0.433440 0.416150 -0.581747
O9    O     O_2   0.608729 0.450932 0.843576 -0.577396
O10   O     O_2   0.391263 0.450908 0.156420 -0.577391
O11   O     O_2   0.345761 0.496854 0.856430 -0.500237
O12   O     O_2   0.654225 0.496865 0.143570 -0.500244
Zn1   Zn    Zn3+2 0.500000 0.588860 0.500000 1.037362
Zn2   Zn    Zn3+2 0.500000 0.411140 0.500000 0.959245
O13   O     O_3   0.282654 0.479860 0.954849 -0.587222
C57   C     C_3   0.258621 0.559702 0.952347 0.157120
H9    H     H_    0.220320 0.566280 0.913293 0.200123
H10   H     H_    0.306443 0.602456 0.947365 0.138715
C58   C     C_3   0.213484 0.581098 0.005052 -0.423161
H11   H     H_    0.168103 0.536385 0.010925 0.252905
H12   H     H_    0.252211 0.581627 0.044112 0.237580
C59   C     C_3   0.176723 0.662369 0.998392 -0.862444
H13   H     H_    0.221215 0.708125 0.992995 0.277293
H14   H     H_    0.145164 0.676460 0.037415 0.273992
H15   H     H_    0.135849 0.663332 0.960518 0.262656
O14   O     O_3   0.717334 0.479888 0.045148 -0.587223
C60   C     C_3   0.741354 0.559734 0.047659 0.157122
H16   H     H_    0.779659 0.566313 0.086712 0.200121
H17   H     H_    0.693526 0.602479 0.052649 0.138725
C61   C     C_3   0.786482 0.581149 0.994954 -0.423178
H18   H     H_    0.831870 0.536446 0.989073 0.252902
H19   H     H_    0.747751 0.581677 0.955896 0.237585
C62   C     C_3   0.823229 0.662426 0.001621 -0.862424
H20   H     H_    0.778730 0.708172 0.007026 0.277295
H21   H     H_    0.854781 0.676530 0.962599 0.273995
H22   H     H_    0.864106 0.663391 0.039493 0.262653
O15   O     O_3   0.363910 0.710702 0.490882 -0.530896
C63   C     C_3   0.334294 0.725652 0.434336 0.158260
H23   H     H_    0.369348 0.694486 0.402922 0.149648
H24   H     H_    0.335001 0.789567 0.423356 0.184250
C64   C     C_3   0.251408 0.697158 0.428616 -0.303211
H25   H     H_    0.249983 0.631749 0.427839 0.193366
H26   H     H_    0.219854 0.717273 0.466277 0.282119
C65   C     C_3   0.210657 0.729122 0.374186 -0.928588
H27   H     H_    0.204708 0.794218 0.377075 0.295647
H28   H     H_    0.152757 0.702719 0.369174 0.266436
H29   H     H_    0.243177 0.714492 0.335824 0.273114
O16   O     O_3   0.524604 0.289908 0.601978 -0.564906
C66   C     C_3   0.604556 0.296098 0.611951 0.145966
H30   H     H_    0.625831 0.344032 0.584899 0.213957
H31   H     H_    0.635108 0.240259 0.602077 0.094342
C67   C     C_3   0.623197 0.316989 0.674940 -0.270862
H32   H     H_    0.592625 0.371488 0.686376 0.227867
H33   H     H_    0.604248 0.268947 0.703325 0.286522
C68   C     C_3   0.708743 0.329704 0.686069 -0.943859
H34   H     H_    0.740676 0.275128 0.676167 0.275131
H35   H     H_    0.720416 0.344990 0.732006 0.288286
H36   H     H_    0.729040 0.378730 0.659058 0.278537
O17   O     O_3   0.636089 0.710703 0.509118 -0.530896
C69   C     C_3   0.665708 0.725662 0.565663 0.158269
H37   H     H_    0.630650 0.694506 0.597080 0.149625
H38   H     H_    0.665008 0.789579 0.576638 0.184265
C70   C     C_3   0.748591 0.697158 0.571385 -0.303217
H39   H     H_    0.750008 0.631749 0.572165 0.193364
H40   H     H_    0.780147 0.717264 0.533723 0.282118
C71   C     C_3   0.789344 0.729127 0.625813 -0.928576
H41   H     H_    0.795300 0.794222 0.622920 0.295655
H42   H     H_    0.847241 0.702719 0.630827 0.266435
H43   H     H_    0.756822 0.714509 0.664176 0.273108
O18   O     O_3   0.475398 0.289906 0.398022 -0.564909
C72   C     C_3   0.395446 0.296101 0.388049 0.145945
H44   H     H_    0.374178 0.344052 0.415091 0.214000
H45   H     H_    0.364886 0.240272 0.397939 0.094275
C73   C     C_3   0.376804 0.316963 0.325056 -0.270998
H46   H     H_    0.407379 0.371453 0.313607 0.227926
H47   H     H_    0.395749 0.268904 0.296682 0.286479
C74   C     C_3   0.291258 0.329677 0.313926 -0.943920
H48   H     H_    0.259325 0.275105 0.323835 0.275087
H49   H     H_    0.279585 0.344951 0.267988 0.288305
H50   H     H_    0.270963 0.378711 0.340932 0.278552
S1    S     S_3+6 0.596813 0.339292 0.218605 0.084392
O19   O     O_2   0.550846 0.311061 0.166566 -0.231312
O20   O     O_2   0.677374 0.354591 0.201994 -0.255756
O21   O     O_3   0.597596 0.268043 0.268941 -0.457013
H51   H     H_    0.645138 0.276594 0.292775 0.354074
S2    S     S_3+6 0.403193 0.339288 0.781389 0.084394
O22   O     O_2   0.449162 0.311065 0.833429 -0.231310
O23   O     O_2   0.322629 0.354575 0.797997 -0.255751
O24   O     O_3   0.402424 0.268038 0.731051 -0.457022
H52   H     H_    0.354881 0.276580 0.707216 0.354077
O25   O     O_3   0.423358 0.606900 0.311034 -0.587989
C75   C     C_3   0.352739 0.566486 0.315668 0.052653
H53   H     H_    0.325109 0.588751 0.354098 0.155662
H54   H     H_    0.358401 0.501688 0.322745 0.115385
C76   C     C_3   0.299851 0.581727 0.262761 -0.271824
H55   H     H_    0.296995 0.646049 0.253795 0.261471
H56   H     H_    0.323009 0.551481 0.225136 0.279727
C77   C     C_3   0.219436 0.550411 0.271102 -0.949674
H57   H     H_    0.220672 0.485425 0.276545 0.275071
H58   H     H_    0.182214 0.564757 0.232672 0.281589
H59   H     H_    0.194658 0.577585 0.309435 0.267798
O26   O     O_3   0.576622 0.606918 0.688970 -0.587975
C78   C     C_3   0.647245 0.566512 0.684338 0.052676
H60   H     H_    0.674875 0.588779 0.645910 0.155658
H61   H     H_    0.641591 0.501713 0.677260 0.115377
C79   C     C_3   0.700129 0.581761 0.737247 -0.271827
H62   H     H_    0.702985 0.646085 0.746209 0.261462
H63   H     H_    0.676968 0.551522 0.774872 0.279735
C80   C     C_3   0.780544 0.550442 0.728911 -0.949665
H64   H     H_    0.779308 0.485456 0.723472 0.275072
H65   H     H_    0.817764 0.564794 0.767342 0.281590
H66   H     H_    0.805326 0.577610 0.690577 0.267796
S3    S     S_3+6 0.473099 0.639820 0.189591 0.037295
O27   O     O_2   0.400718 0.627259 0.153693 -0.335357
O28   O     O_2   0.464208 0.711411 0.226796 -0.211633
O29   O     O_3   0.545358 0.655254 0.145771 -0.572044
H67   H     H_    0.526266 0.695930 0.118176 0.389361
S4    S     S_3+6 0.526867 0.639835 0.810412 0.037294
O30   O     O_2   0.599245 0.627285 0.846314 -0.335335
O31   O     O_2   0.535753 0.711425 0.773208 -0.211639
O32   O     O_3   0.454601 0.655260 0.854227 -0.572050
H68   H     H_    0.473674 0.695964 0.881808 0.389374
O33   O     O_3   0.717914 0.620078 0.430978 -0.560553
C81   C     C_3   0.689133 0.588687 0.377958 0.160449
H69   H     H_    0.634010 0.618646 0.367041 0.197275
H70   H     H_    0.676466 0.524218 0.379680 0.077550
C82   C     C_3   0.744068 0.605905 0.330177 -0.432449
H71   H     H_    0.754858 0.670430 0.328153 0.265612
H72   H     H_    0.799335 0.575488 0.339757 0.220537
C83   C     C_3   0.711302 0.577759 0.271882 -0.780513
H73   H     H_    0.702333 0.512934 0.272511 0.273564
H74   H     H_    0.751865 0.591870 0.238057 0.280705
H75   H     H_    0.656113 0.607624 0.261019 0.276805
O34   O     O_3   0.255159 0.376465 0.458441 -0.663278
C84   C     C_3   0.235914 0.305611 0.486825 0.052269
H76   H     H_    0.237572 0.257159 0.454774 0.160162
H77   H     H_    0.177086 0.305401 0.503115 0.138799
C85   C     C_3   0.294349 0.287481 0.536012 -0.368662
H78   H     H_    0.352248 0.286260 0.518900 0.234015
H79   H     H_    0.292549 0.334371 0.569297 0.222489
C86   C     C_3   0.279185 0.207803 0.563688 -0.859903
H80   H     H_    0.221506 0.207048 0.581607 0.266390
H81   H     H_    0.322449 0.197105 0.599163 0.302867
H82   H     H_    0.283365 0.159735 0.531534 0.263165
O35   O     O_3   0.282082 0.620079 0.569022 -0.560554
C87   C     C_3   0.310862 0.588688 0.622041 0.160451
H83   H     H_    0.365983 0.618649 0.632961 0.197278
H84   H     H_    0.323531 0.524219 0.620316 0.077552
C88   C     C_3   0.255924 0.605902 0.669821 -0.432448
H85   H     H_    0.245130 0.670426 0.671847 0.265612
H86   H     H_    0.200658 0.575482 0.660238 0.220537
C89   C     C_3   0.288687 0.577756 0.728115 -0.780517
H87   H     H_    0.297662 0.512931 0.727484 0.273559
H88   H     H_    0.248122 0.591863 0.761940 0.280706
H89   H     H_    0.343874 0.607625 0.738981 0.276809
O36   O     O_3   0.744843 0.376466 0.541552 -0.663275
C90   C     C_3   0.764085 0.305610 0.513167 0.052261
H90   H     H_    0.762427 0.257160 0.545219 0.160148
H91   H     H_    0.822913 0.305398 0.496877 0.138807
C91   C     C_3   0.705649 0.287479 0.463982 -0.368669
H92   H     H_    0.647750 0.286262 0.481094 0.233998
H93   H     H_    0.707450 0.334366 0.430696 0.222497
C92   C     C_3   0.720808 0.207798 0.436306 -0.859984
H94   H     H_    0.778487 0.207039 0.418386 0.266411
H95   H     H_    0.677543 0.197100 0.400831 0.302882
H96   H     H_    0.716627 0.159733 0.468461 0.263099
S5    S     S_3+6 0.346857 0.883692 0.523045 0.052536
O37   O     O_2   0.283486 0.827540 0.535837 -0.243380
O38   O     O_2   0.362714 0.934661 0.574918 -0.229307
O39   O     O_3   0.319478 0.941170 0.466955 -0.568222
H97   H     H_    0.280410 0.977026 0.481930 0.377969
S6    S     S_3+6 0.506544 0.114492 0.618300 0.083750
O40   O     O_2   0.506991 0.167922 0.669689 -0.200347
O41   O     O_2   0.436496 0.063741 0.619233 -0.196080
O42   O     O_3   0.583932 0.055831 0.623055 -0.492815
H98   H     H_    0.627810 0.091563 0.617901 0.337815
S7    S     S_3+6 0.653142 0.883690 0.476948 0.052506
O43   O     O_2   0.716519 0.827538 0.464170 -0.243347
O44   O     O_2   0.637286 0.934636 0.425064 -0.229320
O45   O     O_3   0.680512 0.941192 0.533029 -0.568385
H99   H     H_    0.719552 0.977071 0.518042 0.377929
S8    S     S_3+6 0.493459 0.114493 0.381694 0.083627
O46   O     O_2   0.493064 0.167928 0.330309 -0.200588
O47   O     O_2   0.563481 0.063703 0.380771 -0.196103
O48   O     O_3   0.416040 0.055877 0.376918 -0.493011
H100  H     H_    0.372145 0.091709 0.381714 0.338022

loop_
_geom_bond_atom_site_label_1
_geom_bond_atom_site_label_2
_ccdc_geom_bond_type
C4    S2    S    
C84   H76   S    
S7    O44   D    
O24   H52   S    
C11   C13   A    
C41   C42   T    
C53   C55   A    
C44   N2    A    
C60   H16   S    
C11   S3    S    
C57   C58   S    
C58   H11   S    
C70   C71   S    
C28   O6    A    
O36   C90   S    
C90   C91   S    
C71   H43   S    
C65   H28   S    
C74   H48   S    
C60   C61   S    
S1    O19   D    
C68   H34   S    
C39   C41   S    
S3    O27   D    
O16   C66   S    
C88   C89   S    
C15   C19   A    
C78   H61   S    
C33   C39   A    
C43   O9    S    
C34   C40   A    
C17   C26   A    
C32   C36   A    
C76   H56   S    
C52   C55   A    
C57   H10   S    
C46   N2    A    
S1    O20   D    
O25   C75   S    
O48   H100  S    
C72   C73   S    
C85   H79   S    
C68   H35   S    
C63   H23   S    
C9    O25   S    
S8    O47   D    
O42   H98   S    
C37   N3    A    
C86   H82   S    
C7    C27   S    
O29   H67   S    
C51   C56   A    
C49   C50   A    
C79   H62   S    
C89   H87   S    
C16   C26   A    
C76   H55   S    
C31   C39   A    
C49   C51   A    
C50   C52   A    
S5    O37   D    
O17   C69   S    
C33   S7    S    
C83   H73   S    
C78   H60   S    
S2    O23   D    
C3    C13   A    
C67   C68   S    
C16   C20   A    
C47   C53   A    
C82   C83   S    
C44   C52   A    
S8    O48   S    
C48   C50   A    
C67   H32   S    
C80   H65   S    
C62   H21   S    
C34   C38   A    
S7    O43   D    
C69   H37   S    
C73   H47   S    
C77   H58   S    
S5    O38   D    
C73   C74   S    
O14   C60   S    
C18   C25   A    
C16   H6    S    
O6    Zn2   S    
O5    Zn1   S    
C65   H27   S    
C74   H49   S    
C67   H33   S    
C86   H80   S    
C46   C48   A    
C13   N2    S    
C45   C47   A    
C25   C29   S    
C90   H91   S    
C78   C79   S    
C54   C56   A    
C3    S1    S    
C1    O4    A    
O34   C84   S    
C5    H3    S    
O33   C81   S    
C62   H20   S    
C20   C24   A    
C84   C85   S    
C65   H29   S    
C76   C77   S    
O1    Zn1   S    
C57   H9    S    
S2    O24   S    
C47   C49   A    
S1    O21   S    
O8    Zn2   S    
C5    C7    A    
C66   H31   S    
C85   H78   S    
O7    Zn1   S    
C68   H36   S    
C6    C8    A    
C32   S6    S    
C3    C5    A    
C88   H85   S    
O35   C87   S    
C31   S5    S    
S6    O42   S    
C1    O1    A    
C64   C65   S    
C81   H70   S    
C48   C54   A    
C75   C76   S    
C29   C30   T    
C35   O15   S    
C6    H4    S    
C84   H77   S    
C59   H14   S    
O13   C57   S    
C35   N3    A    
C43   N1    A    
C80   H66   S    
C12   S4    S    
C36   N4    A    
C83   H75   S    
S6    O41   D    
C90   H90   S    
C15   H5    S    
C92   H95   S    
C79   H63   S    
C37   O17   S    
C9    C11   A    
C79   C80   S    
C45   O11   S    
S2    O22   D    
C10   C12   A    
C80   H64   S    
C4    C6    A    
C38   N4    A    
N3    Zn1   S    
C62   H22   S    
C61   H19   S    
C55   H1    S    
C45   N1    A    
C91   H93   S    
C8    C28   S    
S5    O39   S    
C21   O35   S    
C58   C59   S    
C10   O26   S    
C21   C24   A    
S4    O31   D    
C27   O8    A    
C36   O16   S    
C69   C70   S    
C91   C92   S    
C75   H54   S    
C2    C23   S    
C74   H50   S    
O45   H99   S    
C19   C23   A    
C59   H15   S    
S3    O29   S    
C7    C9    A    
O39   H97   S    
C18   C22   A    
C22   C23   A    
C77   H59   S    
C12   C14   A    
C40   C42   S    
C70   H40   S    
C87   C88   S    
C69   H38   S    
C71   H42   S    
C72   H44   S    
C60   H17   S    
C26   C30   S    
C71   H41   S    
C88   H86   S    
C61   C62   S    
O15   C63   S    
C66   H30   S    
C89   H88   S    
C53   O13   S    
N4    Zn2   S    
C81   H69   S    
C66   C67   S    
S4    O32   S    
C64   H26   S    
C81   C82   S    
S8    O46   D    
C87   H84   S    
C20   O34   S    
C2    O2    A    
C70   H39   S    
C17   H7    S    
C46   O12   S    
C72   H45   S    
C85   C86   S    
C18   H8    S    
C59   H13   S    
C77   H57   S    
C63   H24   S    
C43   C51   A    
C87   H83   S    
C44   O10   S    
S6    O40   D    
C86   H81   S    
C14   N1    S    
C56   H2    S    
C92   H96   S    
C31   C35   A    
C32   C40   A    
C4    C14   A    
O32   H68   S    
O2    Zn2   S    
C75   H53   S    
C33   C37   A    
C54   O14   S    
C15   C25   A    
O18   C72   S    
C91   H92   S    
C82   H71   S    
C22   O36   S    
S3    O28   D    
O21   H51   S    
C1    C24   S    
C8    C10   A    
C61   H18   S    
O26   C78   S    
S7    O45   S    
C64   H25   S    
C92   H94   S    
C34   S8    S    
C58   H12   S    
C73   H46   S    
C83   H74   S    
C38   O18   S    
C82   H72   S    
S4    O30   D    
C27   O5    A    
C28   O7    A    
C89   H89   S    
O4    Zn2   S    
C2    O3    A    
C19   O33   S    
O3    Zn1   S    
C63   C64   S    
C17   C21   A    
