data_mof_unit_19186.cif
_audit_creation_date              2013-03-05T15:40:48-0500
_audit_creation_method            fapswitch 2.2
_symmetry_space_group_name_H-M    P1
_symmetry_Int_Tables_number       1
_space_group_crystal_system       triclinic
_cell_length_a                    7.841125
_cell_length_b                    8.722506
_cell_length_c                    15.032434
_cell_angle_alpha                 93.840045
_cell_angle_beta                  86.274164
_cell_angle_gamma                 93.445413
_cell_volume                      1022.05003538

loop_
_atom_site_label
_atom_site_type_symbol
_atom_site_description
_atom_site_fract_x
_atom_site_fract_y
_atom_site_fract_z
_atom_type_partial_charge
O1    O     O_R   0.389250 0.738570 0.505970 -0.613862
O2    O     O_R   0.610750 0.261430 0.494030 -0.614087
O3    O     O_R   0.678390 0.711620 0.490370 -0.553465
O4    O     O_R   0.321610 0.288380 0.509630 -0.553375
C1    C     C_R   0.544497 0.793522 0.497777 0.878217
C2    C     C_R   0.455503 0.206484 0.502222 0.878201
O5    O     O_R   0.355420 0.513510 0.639950 -0.558975
O6    O     O_R   0.644580 0.486490 0.360050 -0.558867
O7    O     O_R   0.644560 0.486560 0.624350 -0.606093
O8    O     O_R   0.355440 0.513440 0.375650 -0.606077
C3    C     C_R   0.503147 0.507661 0.672711 0.947800
C4    C     C_R   0.496852 0.492326 0.327290 0.947633
Zn1   Zn    Zn3+2 0.306940 0.517990 0.510420 1.178748
Zn2   Zn    Zn3+2 0.693060 0.482010 0.489580 1.178661
C5    C     C_R   0.408268 0.370294 0.182990 0.214377
C6    C     C_R   0.591666 0.629661 0.817024 0.214545
C7    C     C_R   0.495405 0.490672 0.231577 -0.244522
C8    C     C_R   0.504609 0.509261 0.768422 -0.244304
C9    C     C_R   0.588450 0.609790 0.189457 0.452226
C10   C     C_R   0.411792 0.390010 0.810532 0.451581
C11   C     C_R   0.588996 0.613780 0.097076 -0.021883
C12   C     C_R   0.411311 0.385962 0.902909 -0.022448
C13   C     C_R   0.500460 0.495843 0.046582 -0.009858
C14   C     C_R   0.499744 0.503928 0.953416 -0.009880
C15   C     C_R   0.415875 0.368687 0.088799 -0.099532
C16   C     C_R   0.584208 0.631136 0.911208 -0.099389
C17   C     C_R   0.670501 0.738682 0.055441 -0.143066
C18   C     C_R   0.329944 0.260975 0.944520 -0.142351
C19   C     C_R   0.658897 0.754076 0.965013 0.351297
C20   C     C_R   0.341226 0.245702 0.034988 0.350885
H1    H     H_    0.732877 0.832382 0.094287 0.232044
H2    H     H_    0.267791 0.167189 0.905632 0.232561
C21   C     C_2   0.568456 0.955736 0.501210 -0.049002
C22   C     C_2   0.431538 0.044289 0.498956 -0.048220
N1    N     N_2   0.950330 0.457950 0.475660 0.031535
N2    N     N_2   0.049670 0.542050 0.524340 0.031522
N3    N     N_R   0.308491 0.254411 0.229926 0.255063
O9    O     O_R   0.378381 0.175764 0.287023 -0.381324
O10   O     O_R   0.147695 0.226210 0.214863 -0.248108
N4    N     N_R   0.691289 0.745668 0.770109 0.254949
O11   O     O_R   0.621288 0.824236 0.713015 -0.381788
O12   O     O_R   0.852072 0.774012 0.785157 -0.248202
O13   O     O_3   0.686152 0.718607 0.238717 -0.583121
C23   C     C_3   0.582223 0.838779 0.271591 -0.127636
H3    H     H_    0.527793 0.894377 0.216866 0.225022
H4    H     H_    0.662142 0.927979 0.308020 0.224878
H5    H     H_    0.476714 0.797725 0.318301 0.148636
O14   O     O_3   0.314552 0.280831 0.761267 -0.583338
C24   C     C_3   0.419137 0.161121 0.728397 -0.126441
H6    H     H_    0.338956 0.070045 0.693512 0.225715
H7    H     H_    0.477163 0.107916 0.782952 0.224813
H8    H     H_    0.522224 0.202240 0.680332 0.147953
N5    N     N_R   0.701458 0.903298 0.932923 0.254584
O15   O     O_R   0.581933 0.977685 0.902052 -0.385892
O16   O     O_R   0.842907 0.978373 0.954211 -0.285293
N6    N     N_R   0.297952 0.096637 0.067164 0.254909
O17   O     O_R   0.156344 0.021956 0.045768 -0.285161
O18   O     O_R   0.416905 0.021938 0.098330 -0.385078
N7    N     N_R   0.740582 0.017140 0.511995 0.257321
O19   O     O_R   0.856952 0.994523 0.447634 -0.242356
O20   O     O_R   0.785689 0.072530 0.590056 -0.272154
N8    N     N_R   0.259371 0.982899 0.488338 0.257333
O21   O     O_R   0.143260 0.005439 0.552842 -0.242047
O22   O     O_R   0.213965 0.927596 0.410314 -0.271783
N9    N     N_R   0.025576 0.398602 0.396383 0.306910
O23   O     O_R   0.009494 0.467955 0.323709 -0.302335
O24   O     O_R   0.062343 0.255008 0.390440 -0.231569
N10   N     N_R   0.974418 0.601383 0.603623 0.306926
O25   O     O_R   0.990584 0.532081 0.676305 -0.302498
O26   O     O_R   0.937468 0.744929 0.609552 -0.231465

loop_
_geom_bond_atom_site_label_1
_geom_bond_atom_site_label_2
_geom_bond_distance
_ccdc_geom_bond_type
C4    C7    1.438688 S    
O6    Zn2   2.011370 S    
O7    Zn2   2.035060 S    
N2    N10   1.378085 S    
C3    C8    1.438689 S    
N3    O9    1.301073 A    
N3    O10   1.301467 A    
O6    C4    1.292856 A    
C17   C19   1.384246 A    
C10   C12   1.391225 A    
N1    N2    1.270376 D    
C23   H5    1.108281 S    
C18   H2    1.083285 S    
O13   C23   1.409953 S    
C24   H8    1.108164 S    
O3    C1    1.299727 A    
N4    O12   1.301470 A    
C21   C22   1.363183 D    
C11   C17   1.393823 A    
N7    O19   1.299589 A    
C21   N7    1.436886 S    
C12   C18   1.393817 A    
N5    O15   1.297948 A    
N6    O17   1.300803 A    
O5    C3    1.292866 A    
Zn1   N2    2.036521 S    
O7    C3    1.301442 A    
C14   C16   1.422568 A    
N8    O21   1.299625 A    
O3    Zn2   2.012164 S    
C19   N5    1.431492 S    
C6    N4    1.435427 S    
O1    C1    1.282594 A    
O8    C4    1.301436 A    
C18   C20   1.384322 A    
O14   C24   1.409994 S    
C9    C11   1.391197 A    
N6    O18   1.297966 A    
C24   H6    1.108323 S    
C8    C10   1.396303 A    
N5    O16   1.300817 A    
C11   C13   1.412232 A    
C6    C16   1.412452 A    
O2    Zn2   1.996300 S    
C12   C14   1.412103 A    
C5    C15   1.412462 A    
O4    C2    1.299690 A    
N7    O20   1.301132 A    
N1    N9    1.378039 S    
C13   C14   1.407391 A    
C17   H1    1.083211 S    
C22   N8    1.436776 S    
C2    C22   1.413921 S    
O5    Zn1   2.011369 S    
C13   C15   1.422659 A    
O1    Zn1   1.996298 S    
C23   H3    1.103644 S    
C16   C19   1.420210 A    
C6    C8    1.406602 A    
N9    O23   1.300350 A    
C15   C20   1.420411 A    
C5    C7    1.406656 A    
N10   O26   1.298039 A    
N4    O11   1.301061 A    
N8    O22   1.301150 A    
C10   O14   1.388652 S    
C7    C9    1.396310 A    
C24   H7    1.104445 S    
C20   N6    1.431616 S    
Zn2   N1    2.036520 S    
C23   H4    1.107642 S    
C5    N3    1.435388 S    
O2    C2    1.282578 A    
O4    Zn1   2.012165 S    
C9    O13   1.388640 S    
N10   O25   1.300349 A    
N9    O24   1.298043 A    
O8    Zn1   2.035062 S    
C1    C21   1.414027 S    
