data_mof_unit_6160.cif
_audit_creation_date              2012-10-26T21:14:54-0400
_audit_creation_method            fapswitch 2.2
_symmetry_space_group_name_H-M    P1
_symmetry_Int_Tables_number       1
_space_group_crystal_system       triclinic
_cell_length_a                    14.959203
_cell_length_b                    10.882983
_cell_length_c                    13.872119
_cell_angle_alpha                 90.654818
_cell_angle_beta                  89.058997
_cell_angle_gamma                 88.840675
_cell_volume                      2257.46835117

loop_
_atom_site_label
_atom_site_type_symbol
_atom_type_description
_atom_site_fract_x
_atom_site_fract_y
_atom_site_fract_z
_atom_type_partial_charge
C1    C     C_R   0.496402 0.262521 0.499011 0.525374
C2    C     C_R   0.524363 0.889119 0.685068 0.015221
C3    C     C_R   0.561017 0.100906 0.250343 -0.024465
C4    C     C_R   0.465465 0.910138 0.763699 -0.085642
C5    C     C_R   0.555537 0.136872 0.154160 0.314867
C6    C     C_R   0.488516 0.870913 0.857304 0.291892
C7    C     C_R   0.474967 0.189683 0.121205 -0.093052
C8    C     C_R   0.568782 0.804251 0.868433 -0.092098
C9    C     C_R   0.494223 0.931719 0.414378 -0.142274
C10   C     C_R   0.492952 0.067836 0.584968 -0.174409
C11   C     C_R   0.501514 0.871629 0.502570 -0.001658
C12   C     C_R   0.501648 0.737553 0.500869 0.532219
C13   C     C_R   0.491630 0.128473 0.496794 -0.008439
C14   C     C_R   0.503811 0.941209 0.589339 -0.035363
C15   C     C_R   0.490682 0.058941 0.409950 -0.031356
C16   C     C_R   0.329273 0.503888 0.500557 0.569722
C17   C     C_R   0.670820 0.499522 0.499238 0.557747
C18   C     C_R   0.567484 0.439478 0.791926 0.378583
C19   C     C_R   0.429658 0.552783 0.206533 0.367474
C20   C     C_R   0.430645 0.554958 0.796569 0.376432
C21   C     C_R   0.574347 0.456304 0.204162 0.379249
C22   C     C_R   0.433614 0.564268 0.898879 -0.012153
C23   C     C_R   0.053574 0.284496 0.461175 -0.145708
C24   C     C_R   0.574554 0.452359 0.100887 -0.022125
C25   C     C_R   0.503624 0.506805 0.948129 -0.037091
C26   C     C_R   0.504014 0.507914 0.051221 -0.034234
C27   C     C_R   0.572641 0.447285 0.894658 -0.032279
C28   C     C_R   0.433801 0.564808 0.104250 -0.023782
C29   C     C_R   0.368483 0.631580 0.952889 -0.093157
C30   C     C_R   0.644850 0.396497 0.046032 -0.107362
C31   C     C_R   0.368990 0.632689 0.053673 -0.113857
C32   C     C_R   0.645040 0.396981 0.945262 -0.141336
C33   C     C_R   0.810435 0.607239 0.519302 -0.190288
C34   C     C_R   0.946884 0.721659 0.531802 -0.142446
C35   C     C_R   0.189727 0.395658 0.486411 -0.208665
C36   C     C_R   0.767283 0.498180 0.497692 0.001666
C37   C     C_R   0.233003 0.506344 0.501345 -0.002229
C38   C     C_R   0.815859 0.389862 0.473292 0.252934
C39   C     C_R   0.184882 0.618280 0.511553 0.248678
C40   C     C_R   0.909669 0.390739 0.475204 0.024665
C41   C     C_R   0.090953 0.616622 0.513046 0.023952
C42   C     C_R   0.953316 0.501642 0.497074 0.017883
C43   C     C_R   0.047136 0.503994 0.498156 0.016549
C44   C     C_R   0.903317 0.610679 0.516495 0.002704
C45   C     C_R   0.400796 0.202300 0.183350 -0.173959
C46   C     C_R   0.097019 0.394048 0.482214 -0.002225
C47   C     C_R   0.960739 0.283240 0.455920 -0.122114
C48   C     C_R   0.039890 0.725147 0.528098 -0.120874
C49   C     C_3   0.614939 0.241115 0.759743 -0.119131
C50   C     C_3   0.282990 0.520579 0.243602 -0.093649
C51   C     C_3   0.286096 0.513017 0.763328 -0.126130
C52   C     C_3   0.724547 0.483801 0.233691 -0.080247
C53   C     C_3   0.745451 0.215808 0.517959 -0.120706
C54   C     C_3   0.251722 0.772241 0.596264 -0.114381
C55   C     C_3   0.615339 0.056108 0.013741 -0.129826
C56   C     C_R   0.627514 0.783444 0.790506 -0.166704
C57   C     C_3   0.377207 0.992927 0.933833 -0.149169
C58   C     C_R   0.406074 0.162804 0.278634 -0.080870
C59   C     C_R   0.606452 0.827983 0.699656 -0.079346
C60   C     C_R   0.486416 0.112153 0.312579 0.017993
Cu1   Cu    Cu3+1 0.500010 0.499980 0.597420 1.021967
Cu2   Cu    Cu3+1 0.499990 0.500020 0.402580 1.062332
H1    H     H_    0.771298 0.690079 0.535831 0.095376
H2    H     H_    0.663617 0.207085 0.812950 0.099661
H3    H     H_    0.628678 0.186055 0.693595 0.120996
H4    H     H_    0.226318 0.553843 0.290061 0.158774
H5    H     H_    0.299906 0.424911 0.265319 0.119660
H6    H     H_    0.258827 0.519228 0.168523 0.071600
H7    H     H_    0.258687 0.515115 0.838109 0.081937
H8    H     H_    0.308059 0.417296 0.743883 0.124053
H9    H     H_    0.230196 0.538255 0.715495 0.131421
H10   H     H_    0.715595 0.556254 0.178253 0.061912
H11   H     H_    0.781198 0.422333 0.210683 0.129213
H12   H     H_    0.228771 0.311291 0.475675 0.099814
H13   H     H_    0.745764 0.531384 0.299997 0.150758
H14   H     H_    0.317778 0.686704 0.091670 0.150350
H15   H     H_    0.703094 0.358532 0.907660 0.139303
H16   H     H_    0.693298 0.265135 0.561600 0.166076
H17   H     H_    0.802885 0.189201 0.563844 0.095464
H18   H     H_    0.715670 0.130170 0.490072 0.132219
H19   H     H_    0.256242 0.873776 0.593776 0.122936
H20   H     H_    0.318871 0.736171 0.614664 0.210212
H21   H     H_    0.201834 0.750529 0.653876 0.098124
H22   H     H_    0.929199 0.197337 0.438342 0.150813
H23   H     H_    0.491753 0.879571 0.347389 0.153086
H24   H     H_    0.071493 0.812741 0.538931 0.144333
H25   H     H_    0.469925 0.222944 0.048268 0.103973
H26   H     H_    0.586327 0.769477 0.938608 0.125136
H27   H     H_    0.339025 0.242232 0.157365 0.093065
H28   H     H_    0.689902 0.733592 0.800808 0.118234
H29   H     H_    0.347670 0.170709 0.325669 0.107722
H30   H     H_    0.653624 0.813842 0.640312 0.101509
H31   H     H_    0.623127 0.061389 0.276131 0.129468
H32   H     H_    0.402538 0.957323 0.750828 0.082659
H33   H     H_    0.574970 0.108685 0.961224 0.114645
H34   H     H_    0.489513 0.119652 0.651714 0.120178
H35   H     H_    0.582730 0.968377 0.032610 0.154889
H36   H     H_    0.680244 0.032198 0.977782 0.130197
H37   H     H_    0.351812 0.016112 0.007512 0.147936
H38   H     H_    0.318284 0.971769 0.889320 0.114829
H39   H     H_    0.412561 0.074944 0.906507 0.086774
H40   H     H_    0.316959 0.684834 0.917460 0.155899
H41   H     H_    0.700381 0.350582 0.080132 0.175499
H42   H     H_    0.091512 0.199956 0.447719 0.111997
H43   H     H_    0.908940 0.806132 0.545524 0.104147
H44   H     H_    0.545807 0.220386 0.785358 0.084649
N1    N     N_R   0.499960 0.499900 0.743810 -0.219359
N2    N     N_R   0.500040 0.500100 0.256190 -0.227259
O1    O     O_R   0.500000 0.319630 0.582270 -0.509927
O2    O     O_3   0.355834 0.600280 0.256500 -0.521187
O3    O     O_3   0.355707 0.598169 0.750130 -0.565496
O4    O     O_3   0.648129 0.411171 0.252646 -0.498532
O5    O     O_3   0.772365 0.287346 0.439113 -0.552798
O6    O     O_3   0.228559 0.729016 0.504007 -0.569093
O7    O     O_3   0.631958 0.127469 0.096655 -0.579611
O8    O     O_3   0.434752 0.889063 0.939468 -0.580918
O9    O     O_R   0.500000 0.680370 0.417730 -0.493743
O10   O     O_R   0.499990 0.319660 0.417730 -0.475320
O11   O     O_R   0.500010 0.680340 0.582270 -0.490460
O12   O     O_R   0.370260 0.499960 0.582280 -0.486882
O13   O     O_R   0.629740 0.500040 0.417720 -0.454850
O14   O     O_R   0.370250 0.499990 0.417740 -0.463120
O15   O     O_R   0.629750 0.500010 0.582260 -0.468564
O16   O     O_3   0.628480 0.366974 0.739559 -0.539684

loop_
_geom_bond_atom_site_label_1
_geom_bond_atom_site_label_2
_ccdc_geom_bond_type
C40   C47   A    
C38   C40   A    
C35   H12   S    
C22   C29   A    
Cu1   O11   S    
C15   C60   S    
C54   H20   S    
C52   H13   S    
Cu1   O1    S    
C8    C56   A    
C39   C41   A    
C49   H3    S    
C7    C45   A    
C35   C37   A    
C24   C26   A    
C16   O12   A    
C11   C14   A    
Cu2   N2    S    
C52   O4    S    
C58   C60   A    
C12   O11   A    
C50   O2    S    
C33   C36   A    
C16   O14   A    
C18   N1    A    
Cu2   O9    S    
C9    H23   S    
C32   H15   S    
C17   O15   A    
C7    H25   S    
C33   C44   A    
C22   C25   A    
C30   H41   S    
C51   H8    S    
C45   H27   S    
C58   H29   S    
C16   C37   S    
C1    O10   A    
C20   N1    A    
C1    O1    A    
C3    C60   A    
C40   C42   A    
C49   H2    S    
C5    O7    S    
Cu1   O12   S    
C41   C43   A    
C42   C44   A    
C2    C14   S    
C54   H21   S    
C53   O5    S    
C57   O8    S    
C45   C58   A    
C23   C47   A    
C53   H18   S    
C34   C44   A    
C55   H33   S    
C52   H11   S    
C10   C14   A    
C5    C7    A    
C38   O5    S    
C2    C59   A    
C6    C8    A    
C25   C26   A    
C49   O16   S    
C8    H26   S    
C2    C4    A    
C52   H10   S    
C20   O3    S    
C9    C11   A    
C23   H42   S    
C10   H34   S    
C33   H1    S    
C39   O6    S    
C55   H35   S    
C3    H31   S    
C47   H22   S    
C19   C28   A    
C50   H4    S    
C6    O8    S    
C4    H32   S    
C4    C6    A    
C17   C36   S    
C20   C22   A    
C13   C15   A    
C48   H24   S    
C1    C13   S    
C42   C43   A    
Cu2   O14   S    
C21   O4    S    
C50   H5    S    
C19   O2    S    
C17   O13   A    
C51   O3    S    
C53   H17   S    
C27   C32   A    
C34   H43   S    
C28   C31   A    
C18   C27   A    
C3    C5    A    
C10   C13   A    
C11   C12   S    
C51   H9    S    
C49   H44   S    
C25   C27   A    
C57   H39   S    
C26   C28   A    
C56   C59   A    
Cu1   O15   S    
C36   C38   A    
C53   H16   S    
C9    C15   A    
C37   C39   A    
C19   N2    A    
C30   C32   A    
C57   H38   S    
C31   H14   S    
C55   O7    S    
C54   O6    S    
C55   H36   S    
C56   H28   S    
C41   C48   A    
C29   H40   S    
C59   H30   S    
C54   H19   S    
Cu1   Cu2   S    
Cu1   N1    S    
C43   C46   A    
C24   C30   A    
Cu2   O10   S    
C21   N2    A    
C12   O9    A    
C34   C48   A    
C29   C31   A    
C21   C24   A    
C23   C46   A    
C51   H7    S    
C35   C46   A    
C50   H6    S    
Cu2   O13   S    
C18   O16   S    
C57   H37   S    
