data_mof_unit_67492.cif
_audit_creation_date              2013-03-05T15:41:00-0500
_audit_creation_method            fapswitch 2.2
_symmetry_space_group_name_H-M    P1
_symmetry_Int_Tables_number       1
_space_group_crystal_system       triclinic
_cell_length_a                    10.822147
_cell_length_b                    8.828892
_cell_length_c                    7.589096
_cell_angle_alpha                 103.525503
_cell_angle_beta                  95.034572
_cell_angle_gamma                 95.061581
_cell_volume                      697.847815189

loop_
_atom_site_label
_atom_site_type_symbol
_atom_site_description
_atom_site_fract_x
_atom_site_fract_y
_atom_site_fract_z
_atom_type_partial_charge
O1    O     O_R   0.509140 0.286130 0.619770 -0.592394
O2    O     O_R   0.485380 0.256770 0.308360 -0.589770
C1    C     C_R   0.487858 0.199451 0.451196 0.854194
O3    O     O_R   0.329570 0.514650 0.655700 -0.608613
O4    O     O_R   0.305810 0.485300 0.344290 -0.605200
C2    C     C_R   0.260314 0.497140 0.500551 0.745732
Cu1   Cu    Cu3+1 0.514070 0.517380 0.684380 0.903917
Cu2   Cu    Cu3+1 0.485930 0.482620 0.315620 0.897676
O5    O     O_R   0.514620 0.743230 0.691640 -0.602241
O6    O     O_R   0.490860 0.713870 0.380230 -0.610046
O7    O     O_R   0.694190 0.514700 0.655710 -0.598416
O8    O     O_R   0.670430 0.485350 0.344300 -0.615282
C3    C     C_R   0.495499 0.798732 0.545451 0.857130
C4    C     C_R   0.740062 0.501989 0.500632 0.752485
C5    C     C_3   0.080201 0.477035 0.687629 -0.370620
C6    C     C_3   0.937426 0.464336 0.681399 -0.387542
H1    H     H_    0.900442 0.344904 0.686599 0.162289
H2    H     H_    0.911984 0.541579 0.807470 0.166208
C7    C     C_3   0.086163 0.655783 0.477629 -0.471237
C8    C     C_3   0.049650 0.367992 0.337248 -0.017115
C9    C     C_3   0.122276 0.495596 0.501585 0.155685
C10   C     C_3   0.878889 0.502773 0.504147 0.117050
C11   C     C_3   0.943852 0.665291 0.489555 -0.041715
C12   C     C_3   0.907031 0.371077 0.341388 -0.436457
H3    H     H_    0.860559 0.256019 0.350095 0.173531
H4    H     H_    0.109889 0.674280 0.343713 0.144575
H5    H     H_    0.904970 0.683048 0.356972 0.129098
C13   C     C_2   0.465078 0.029261 0.418694 -0.086586
C14   C     C_2   0.493806 0.966406 0.562923 -0.427098
H6    H     H_    0.524201 0.041152 0.697741 0.170891
N1    N     N_2   0.464720 0.456420 0.038520 -0.220647
H7    H     H_    0.390920 0.389025 0.952703 0.207045
N2    N     N_2   0.535280 0.543580 0.961480 -0.118230
H8    H     H_    0.120537 0.581129 0.797499 0.172394
H9    H     H_    0.866198 0.391728 0.210303 0.152918
C15   C     C_3   0.400848 0.928032 0.232470 -0.350685
C16   C     C_3   0.367305 0.002530 0.073087 -0.349729
C17   C     C_3   0.288727 0.882751 0.917501 -0.918087
H10   H     H_    0.326325 0.767935 0.894826 0.300586
H11   H     H_    0.190630 0.867651 0.948655 0.240954
H12   H     H_    0.291201 0.923931 0.791185 0.247137
H13   H     H_    0.313563 0.102630 0.111291 0.232519
H14   H     H_    0.454279 0.043398 0.021813 0.233066
H15   H     H_    0.464345 0.845213 0.173006 0.238200
H16   H     H_    0.315095 0.860919 0.257977 0.210872
C18   C     C_3   0.650417 0.633579 0.061538 -0.060126
C19   C     C_3   0.685433 0.782262 0.996013 -0.369869
C20   C     C_3   0.790253 0.892427 0.119688 -1.051870
H17   H     H_    0.838020 0.971955 0.048391 0.275328
H18   H     H_    0.748838 0.967580 0.232377 0.269605
H19   H     H_    0.862741 0.825741 0.166268 0.251955
H20   H     H_    0.715777 0.751948 0.860062 0.277186
H21   H     H_    0.604950 0.849976 0.990376 0.237537
H22   H     H_    0.642353 0.677600 0.205017 0.218635
H23   H     H_    0.727835 0.558508 0.045059 0.142915
H24   H     H_    0.114884 0.375603 0.729507 0.184344
H25   H     H_    0.144697 0.749855 0.581264 0.168351
C21   C     C_3   0.921603 0.808648 0.645473 -0.419261
C22   C     C_3   0.818730 0.898321 0.583191 -0.389437
C23   C     C_3   0.796426 0.045018 0.723713 -0.888766
H26   H     H_    0.728283 0.015774 0.813829 0.268386
H27   H     H_    0.884865 0.105082 0.805376 0.245864
H28   H     H_    0.754296 0.127381 0.652045 0.243485
H29   H     H_    0.849502 0.938519 0.467795 0.223327
H30   H     H_    0.731541 0.819473 0.536216 0.227650
H31   H     H_    0.901015 0.774045 0.770713 0.213112
H32   H     H_    0.006480 0.893613 0.687506 0.216257
H33   H     H_    0.070889 0.405738 0.211638 0.125824
C24   C     C_3   0.091825 0.201144 0.303339 -0.401245
C25   C     C_3   0.068866 0.108256 0.447217 -0.326206
C26   C     C_3   0.185443 0.106269 0.575309 -0.882186
H34   H     H_    0.231844 0.001364 0.520396 0.245022
H35   H     H_    0.252776 0.211797 0.593073 0.264532
H36   H     H_    0.158926 0.101043 0.711887 0.226958
H37   H     H_    0.994366 0.152705 0.527981 0.237253
H38   H     H_    0.037026 0.984647 0.374759 0.209000
H39   H     H_    0.043214 0.131836 0.169800 0.165317
H40   H     H_    0.191629 0.210400 0.286096 0.202682

loop_
_geom_bond_atom_site_label_1
_geom_bond_atom_site_label_2
_geom_bond_distance
_ccdc_geom_bond_type
C11   C21   1.569498 S    
C24   H39   1.112568 S    
Cu1   Cu2   2.729656 S    
C7    H25   1.106276 S    
Cu1   O7    1.981865 S    
C22   H29   1.086055 S    
C16   C17   1.522064 S    
C23   H28   1.110167 S    
C3    C14   1.456988 S    
C13   C14   1.362916 D    
C7    C9    1.546380 S    
O4    C2    1.308900 A    
O7    C4    1.301821 A    
C5    C6    1.535047 S    
C23   H27   1.110836 S    
C16   H13   1.097183 S    
C7    H4    1.114225 S    
O5    C3    1.321248 A    
C21   H31   1.098786 S    
C20   H19   1.103265 S    
C19   C20   1.518284 S    
C6    H1    1.105168 S    
C18   H23   1.111077 S    
C15   C16   1.537745 S    
N1    N2    1.304694 D    
C25   C26   1.527606 S    
C11   H5    1.106872 S    
C5    H8    1.112343 S    
C19   H21   1.102358 S    
C20   H18   1.107627 S    
C22   C23   1.525549 S    
N2    C18   1.462044 S    
Cu1   N2    2.051077 S    
C24   H40   1.097565 S    
O3    Cu1   1.986829 S    
C12   H9    1.113591 S    
C8    C12   1.549032 S    
C12   H3    1.111888 S    
C17   H12   1.103489 S    
O3    C2    1.308258 A    
C26   H35   1.105185 S    
C21   C22   1.525731 S    
C2    C9    1.493452 S    
C23   H26   1.102601 S    
O1    C1    1.317042 A    
C16   H14   1.112469 S    
C7    C11   1.559141 S    
C14   H6    1.085051 S    
C26   H36   1.109533 S    
N1    H7    1.029409 S    
Cu2   O8    1.986828 S    
C18   H22   1.081214 S    
C15   H16   1.112640 S    
Cu2   O6    1.979811 S    
C20   H17   1.102609 S    
O8    C4    1.318731 A    
C25   H38   1.109864 S    
C10   C12   1.557923 S    
C8    C24   1.551276 S    
C15   H15   1.095104 S    
Cu1   O5    1.981309 S    
C18   C19   1.537769 S    
C1    C13   1.459449 S    
C6    C10   1.558172 S    
O1    Cu1   1.979811 S    
Cu2   N1    2.051077 S    
C8    H33   1.116309 S    
O2    Cu2   1.981310 S    
O6    C3    1.295750 A    
O4    Cu2   1.981865 S    
C19   H20   1.090773 S    
C5    H24   1.102442 S    
C4    C10   1.499673 S    
O2    C1    1.298367 A    
C26   H34   1.105406 S    
C22   H30   1.100459 S    
C17   H11   1.111089 S    
C17   H10   1.107352 S    
C24   C25   1.535274 S    
C21   H32   1.106012 S    
C5    C9    1.560630 S    
C8    C9    1.567447 S    
C13   C15   1.551260 S    
C6    H2    1.109261 S    
C25   H37   1.099901 S    
C10   C11   1.573313 S    
