data_mof_unit_39039.cif
_audit_creation_date              2012-12-10T16:53:08-0500
_audit_creation_method            fapswitch 2.2
_symmetry_space_group_name_H-M    P1
_symmetry_Int_Tables_number       1
_space_group_crystal_system       triclinic
_cell_length_a                    10.816701
_cell_length_b                    10.937569
_cell_length_c                    9.685358
_cell_angle_alpha                 90.847072
_cell_angle_beta                  89.087232
_cell_angle_gamma                 91.120009
_cell_volume                      1145.37500359

loop_
_atom_site_label
_atom_site_type_symbol
_atom_type_description
_atom_site_fract_x
_atom_site_fract_y
_atom_site_fract_z
_atom_type_partial_charge
C1    C     C_R   0.497384 0.265222 0.498665 0.888801
C2    C     C_R   0.066787 0.601411 0.573738 -0.030469
C3    C     C_R   0.128817 0.505572 0.503603 -0.179259
C4    C     C_R   0.064303 0.418316 0.423557 0.293838
C5    C     C_R   0.934432 0.418246 0.424469 0.268809
C6    C     C_R   0.872025 0.513410 0.492862 -0.200719
C7    C     C_2   0.437890 0.931099 0.395151 0.243301
C8    C     C_2   0.462167 0.863556 0.506550 -0.385629
C9    C     C_2   0.429472 0.065813 0.408216 0.177037
C10   C     C_2   0.504902 0.132533 0.493235 0.012276
C11   C     C_2   0.417839 0.439371 0.922404 0.332971
C12   C     C_R   0.262618 0.501427 0.501226 0.883272
C13   C     C_2   0.411490 0.451437 0.078561 -0.163025
C14   C     C_R   0.486574 0.733305 0.501140 0.871736
C15   C     C_R   0.737612 0.505029 0.498540 0.952398
C16   C     C_R   0.131192 0.692208 0.651596 -0.176858
C17   C     C_R   0.069436 0.790229 0.711526 -0.184202
C18   C     C_R   0.945225 0.806108 0.685405 -0.186673
C19   C     C_R   0.880288 0.721593 0.602425 0.281292
C20   C     C_R   0.937714 0.611267 0.558130 -0.003299
Cu1   Cu    Cu3+1 0.500020 0.500020 0.638630 0.955473
Cu2   Cu    Cu3+1 0.499980 0.499980 0.361370 0.970213
H1    H     H_    0.554774 0.562723 0.894504 0.162053
H2    H     H_    0.330412 0.414910 0.131466 0.197057
H3    H     H_    0.579459 0.525678 0.104453 0.194448
H4    H     H_    0.229751 0.690612 0.666176 0.154542
H5    H     H_    0.119982 0.858307 0.771514 0.139871
H6    H     H_    0.901530 0.889004 0.721912 0.123130
H7    H     H_    0.460806 0.905168 0.608897 0.140320
N1    N     N_2   0.498640 0.498660 0.846910 -0.292847
N2    N     N_2   0.498610 0.498630 0.153040 -0.303091
O1    O     O_R   0.500020 0.321960 0.617040 -0.578872
O2    O     O_R   0.499980 0.321920 0.382900 -0.546490
O3    O     O_R   0.319670 0.500020 0.617100 -0.574509
O4    O     O_R   0.319630 0.499980 0.382950 -0.560169
O5    O     O_R   0.500020 0.678080 0.617100 -0.596957
O6    O     O_R   0.499980 0.678040 0.382960 -0.570949
O7    O     O_R   0.680370 0.500020 0.617050 -0.590067
O8    O     O_R   0.680330 0.499980 0.382900 -0.544069
O9    O     O_3   0.130691 0.333047 0.347906 -0.743474
H8    H     H_    0.084432 0.311376 0.263255 0.319770
N3    N     N_2   0.598230 0.077272 0.572352 -0.471715
H9    H     H_    0.585876 0.091991 0.677066 0.252733
C21   C     C_3   0.723430 0.105990 0.527975 -0.680484
H10   H     H_    0.788590 0.048993 0.585014 0.218947
H11   H     H_    0.745945 0.203632 0.550713 0.246982
H12   H     H_    0.735284 0.086565 0.415644 0.247193
N4    N     N_2   0.332198 0.358556 0.856078 -0.363158
H13   H     H_    0.348380 0.268011 0.876200 0.224321
C22   C     C_3   0.203197 0.388691 0.874871 -0.673057
H14   H     H_    0.147016 0.335094 0.799560 0.229555
H15   H     H_    0.189069 0.487490 0.856661 0.247439
H16   H     H_    0.170207 0.365514 0.980619 0.190238
N5    N     N_2   0.768005 0.759344 0.543614 -0.439110
H17   H     H_    0.719664 0.820150 0.605268 0.258669
C23   C     C_3   0.784459 0.803003 0.403721 -0.685097
H18   H     H_    0.695724 0.835991 0.364290 0.235579
H19   H     H_    0.816881 0.728348 0.334002 0.232459
H20   H     H_    0.852843 0.880166 0.400935 0.217192
O10   O     O_3   0.865740 0.326039 0.361095 -0.753499
H21   H     H_    0.914349 0.250249 0.357784 0.323559
N6    N     N_2   0.413342 0.876194 0.263718 -0.422213
H22   H     H_    0.486801 0.837764 0.211011 0.261768
C24   C     C_3   0.293280 0.817149 0.246435 -0.666848
H23   H     H_    0.303652 0.716763 0.234837 0.250386
H24   H     H_    0.250459 0.851564 0.151592 0.214695
H25   H     H_    0.230072 0.836079 0.335627 0.218061
N7    N     N_2   0.335716 0.124811 0.332602 -0.395724
H26   H     H_    0.249645 0.084079 0.346013 0.263786
C25   C     C_3   0.364002 0.146127 0.188034 -0.607035
H27   H     H_    0.292511 0.205343 0.145120 0.211620
H28   H     H_    0.362365 0.059589 0.127287 0.219479
H29   H     H_    0.456060 0.191291 0.174598 0.242295

loop_
_geom_bond_atom_site_label_1
_geom_bond_atom_site_label_2
_ccdc_geom_bond_type
H3    N2    S    
C22   H15   S    
C23   H20   S    
C7    N6    S    
N6    H22   S    
H1    N1    S    
C2    C16   A    
C10   N3    S    
C6    C20   A    
C9    C10   D    
Cu1   N1    S    
C19   C20   A    
Cu1   O3    S    
C21   H12   S    
C24   H23   S    
C25   H29   S    
N4    C22   S    
C2    C3    A    
C9    N7    S    
C1    O2    A    
C7    C8    D    
C15   O7    A    
Cu1   O5    S    
Cu1   Cu2   S    
C23   H18   S    
C12   O4    A    
C16   H4    S    
Cu2   O4    S    
C11   C13   S    
C15   O8    A    
C11   N4    S    
C25   H27   S    
N3    C21   S    
C8    H7    S    
C19   N5    S    
O9    H8    S    
C21   H11   S    
C17   C18   A    
C14   O5    A    
C5    C6    A    
Cu1   O1    S    
N5    C23   S    
C22   H16   S    
C16   C17   A    
Cu2   N2    S    
Cu2   O8    S    
C2    C20   A    
C3    C4    A    
C17   H5    S    
C24   H25   S    
C4    C5    A    
C18   H6    S    
C21   H10   S    
C13   H2    S    
N7    C25   S    
C18   C19   A    
N3    H9    S    
C7    C9    S    
Cu2   O2    S    
C13   N2    D    
N5    H17   S    
N4    H13   S    
N6    C24   S    
C3    C12   S    
C8    C14   S    
C5    O10   S    
C22   H14   S    
C6    C15   S    
N7    H26   S    
Cu2   O6    S    
C12   O3    A    
C1    C10   S    
C25   H28   S    
C1    O1    A    
Cu1   O7    S    
C4    O9    S    
C11   N1    D    
C23   H19   S    
O10   H21   S    
C14   O6    A    
C24   H24   S    
