data_mof_unit_23368.cif
_audit_creation_date              2012-10-26T18:44:13-0400
_audit_creation_method            fapswitch 2.2
_symmetry_space_group_name_H-M    P1
_symmetry_Int_Tables_number       1
_space_group_crystal_system       triclinic
_cell_length_a                    19.422518
_cell_length_b                    9.0821
_cell_length_c                    7.767307
_cell_angle_alpha                 90.000124
_cell_angle_beta                  90.000126
_cell_angle_gamma                 90.218271
_cell_volume                      1370.12165824

loop_
_atom_site_label
_atom_site_type_symbol
_atom_type_description
_atom_site_fract_x
_atom_site_fract_y
_atom_site_fract_z
_atom_type_partial_charge
C1    C     C_R   0.500273 0.219988 0.499985 0.601630
C2    C     C_R   0.253339 0.589402 0.380618 0.244493
C3    C     C_R   0.180936 0.420962 0.626396 0.232169
C4    C     C_R   0.818766 0.422830 0.370761 0.211226
C5    C     C_R   0.819064 0.579033 0.626399 0.232170
C6    C     C_R   0.181234 0.577166 0.370759 0.211224
C7    C     C_R   0.145145 0.497554 0.498358 -0.008614
C8    C     C_R   0.854855 0.502441 0.498360 -0.008611
C9    C     C_R   0.290355 0.500168 0.499645 -0.069208
C10   C     C_R   0.709646 0.499831 0.499646 -0.069206
C11   C     C_R   0.930432 0.501061 0.504061 0.361787
C12   C     C_R   0.499727 0.780012 0.499985 0.601635
C13   C     C_R   0.069567 0.498935 0.504058 0.361785
C14   C     C_R   0.366847 0.500422 0.499910 0.633532
C15   C     C_R   0.633153 0.499577 0.499911 0.633523
C16   C     C_1   0.500123 0.065359 0.499919 -0.011028
C17   C     C_1   0.499877 0.934641 0.499920 -0.011026
C18   C     C_R   0.253310 0.409672 0.617654 0.187993
C19   C     C_R   0.746661 0.410597 0.380617 0.244497
C20   C     C_R   0.746690 0.590324 0.617658 0.187996
Cu1   Cu    Cu3+1 0.500000 0.500000 0.669080 1.214472
Cu2   Cu    Cu3+1 0.500000 0.500000 0.330920 1.211529
H1    H     H_    0.369593 0.100523 0.684566 0.371942
H2    H     H_    0.626144 0.113339 0.279172 0.369206
H3    H     H_    0.630392 0.899445 0.684608 0.371939
H4    H     H_    0.373831 0.886714 0.279223 0.369214
H5    H     H_    0.171517 0.365295 0.865429 0.380190
H6    H     H_    0.897592 0.403434 0.216043 0.342950
H7    H     H_    0.828485 0.634700 0.865432 0.380192
H8    H     H_    0.102411 0.596550 0.216033 0.342950
N1    N     N_1   0.500000 0.500000 0.076820 -0.031223
N2    N     N_1   0.500000 0.500000 0.923180 -0.030689
N3    N     N_R   0.033582 0.370643 0.505276 -0.119564
N4    N     N_R   0.966417 0.629353 0.505253 -0.119573
N5    N     N_R   0.965096 0.371668 0.504830 -0.157804
N6    N     N_R   0.034904 0.628328 0.504805 -0.157804
O1    O     O_R   0.500000 0.288390 0.642760 -0.491248
O2    O     O_2   0.244532 0.153136 0.796408 -0.192921
O3    O     O_3   0.354952 0.187610 0.617270 -0.528839
O4    O     O_2   0.671092 0.358893 0.096665 -0.231866
O5    O     O_2   0.754075 0.168352 0.174915 -0.142485
O6    O     O_3   0.644052 0.189817 0.358521 -0.541823
O7    O     O_2   0.671464 0.663578 0.895443 -0.236474
O8    O     O_2   0.755469 0.846858 0.796418 -0.192905
O9    O     O_3   0.645048 0.812386 0.617285 -0.528821
O10   O     O_2   0.328907 0.641119 0.096669 -0.231845
O11   O     O_2   0.245923 0.831653 0.174930 -0.142510
O12   O     O_R   0.500000 0.711610 0.357240 -0.492275
O13   O     O_3   0.355947 0.810184 0.358535 -0.541848
O14   O     O_3   0.143508 0.358677 0.759036 -0.591793
O15   O     O_3   0.852457 0.355295 0.235371 -0.579225
O16   O     O_3   0.856493 0.641318 0.759039 -0.591794
O17   O     O_3   0.147543 0.644698 0.235367 -0.579222
O18   O     O_R   0.500000 0.711610 0.642760 -0.491265
O19   O     O_R   0.500000 0.288390 0.357240 -0.492304
O20   O     O_R   0.400140 0.500000 0.642830 -0.453363
O21   O     O_R   0.599860 0.500000 0.357170 -0.454313
O22   O     O_R   0.599860 0.500000 0.642830 -0.453366
O23   O     O_R   0.400140 0.500000 0.357170 -0.454307
O24   O     O_2   0.328538 0.336413 0.895435 -0.236467
S1    S     S_3+6 0.295007 0.269346 0.739528 0.070661
S2    S     S_3+6 0.704387 0.279978 0.244783 0.113030
S3    S     S_3+6 0.704994 0.730648 0.739536 0.070669
S4    S     S_3+6 0.295612 0.720026 0.244791 0.113024

loop_
_geom_bond_atom_site_label_1
_geom_bond_atom_site_label_2
_ccdc_geom_bond_type
C12   C17   S    
Cu1   O20   S    
C14   O20   A    
C9    C14   S    
C5    O16   S    
C13   N3    A    
C6    C7    A    
Cu2   O23   S    
C5    C8    A    
H2    O6    S    
O6    S2    S    
Cu2   O12   S    
N1    N2    T    
C4    C19   A    
H5    O14   S    
C1    O1    A    
C10   C19   A    
C4    C8    A    
O2    S1    D    
C20   S3    S    
C11   N5    A    
C1    O19   A    
Cu2   O19   S    
O7    S3    D    
Cu1   O22   S    
C18   S1    S    
C1    C16   S    
Cu1   N2    S    
C14   O23   A    
C15   O21   A    
C2    C6    A    
O9    S3    S    
O5    S2    D    
Cu2   O21   S    
C8    C11   S    
H1    O3    S    
Cu1   O1    S    
H8    O17   S    
C12   O12   A    
C2    S4    S    
C3    C7    A    
N4    N6    A    
C10   C15   S    
O8    S3    D    
Cu1   O18   S    
O3    S1    S    
C15   O22   A    
C5    C20   A    
C6    O17   S    
Cu2   N1    S    
C4    O15   S    
H3    O9    S    
C9    C18   A    
C7    C13   S    
O4    S2    D    
C3    C18   A    
H4    O13   S    
O10   S4    D    
O11   S4    D    
O13   S4    S    
C16   C17   T    
C19   S2    S    
N3    N5    A    
H6    O15   S    
Cu1   Cu2   S    
C2    C9    A    
C3    O14   S    
C11   N4    A    
C12   O18   A    
C13   N6    A    
C10   C20   A    
O24   S1    D    
H7    O16   S    
