data_mof_unit_67989.cif
_audit_creation_date              2013-03-05T16:49:26-0500
_audit_creation_method            fapswitch 2.2
_symmetry_space_group_name_H-M    P1
_symmetry_Int_Tables_number       1
_space_group_crystal_system       triclinic
_cell_length_a                    10.972036
_cell_length_b                    9.221196
_cell_length_c                    8.278479
_cell_angle_alpha                 89.344985
_cell_angle_beta                  90.484915
_cell_angle_gamma                 93.171965
_cell_volume                      836.213976407

loop_
_atom_site_label
_atom_site_type_symbol
_atom_site_description
_atom_site_fract_x
_atom_site_fract_y
_atom_site_fract_z
_atom_type_partial_charge
O1    O     O_R   0.499990 0.285340 0.636850 -0.626486
O2    O     O_R   0.500010 0.714660 0.363150 -0.611730
O3    O     O_R   0.500010 0.285350 0.363100 -0.628244
O4    O     O_R   0.499990 0.714650 0.636900 -0.617323
C1    C     C_R   0.499083 0.218145 0.500179 0.902754
C2    C     C_R   0.498063 0.781665 0.499215 0.901853
O5    O     O_R   0.316750 0.500000 0.636870 -0.656998
O6    O     O_R   0.683250 0.500000 0.363130 -0.656645
O7    O     O_R   0.316770 0.500020 0.363120 -0.613606
O8    O     O_R   0.683230 0.499980 0.636880 -0.584848
C3    C     C_R   0.259836 0.497222 0.499177 0.838729
C4    C     C_R   0.740485 0.503096 0.501168 0.850406
Zn1   Zn    Zn3+2 0.499990 0.499990 0.682780 0.960241
Zn2   Zn    Zn3+2 0.500010 0.500010 0.317220 0.947037
H1    H     H_    0.313233 0.712606 0.840075 0.208982
H2    H     H_    0.765582 0.312492 0.218828 0.180656
C5    C     C_R   0.240826 0.801105 0.058848 0.189232
C6    C     C_R   0.826129 0.222407 0.999518 0.166078
C7    C     C_R   0.188997 0.762011 0.210039 0.013388
C8    C     C_R   0.850875 0.250848 0.833574 0.030694
C9    C     C_R   0.128321 0.623752 0.227451 -0.040504
C10   C     C_R   0.879743 0.396191 0.786294 -0.028165
C11   C     C_R   0.142743 0.517453 0.110987 0.570303
C12   C     C_R   0.851333 0.509917 0.888795 0.596792
C13   C     C_R   0.223865 0.547787 0.983652 -0.312491
C14   C     C_R   0.797630 0.476790 0.036301 -0.224456
H3    H     H_    0.243467 0.464597 0.899985 0.186407
H4    H     H_    0.761932 0.560974 0.105459 0.175672
C15   C     C_R   0.266999 0.689965 0.952508 -0.224455
C16   C     C_R   0.794103 0.335929 0.096565 -0.153597
C17   C     C_R   0.939320 0.577275 0.381440 -0.235006
C18   C     C_R   0.062204 0.426482 0.619921 -0.286843
H5    H     H_    0.893092 0.637722 0.289957 0.136548
H6    H     H_    0.109919 0.368628 0.712533 0.148261
C19   C     C_R   0.873591 0.504956 0.504747 -0.063451
C20   C     C_R   0.127384 0.498712 0.497040 -0.066862
C21   C     C_R   0.936540 0.434644 0.629470 0.050315
C22   C     C_R   0.065612 0.574857 0.376522 0.097839
C23   C     C_1   0.497844 0.064714 0.498899 -0.228557
C24   C     C_1   0.497234 0.935195 0.497926 -0.233238
N1    N     N_1   0.500020 0.500030 0.073640 -0.063215
N2    N     N_1   0.499980 0.499970 0.926360 -0.059558
C25   C     C_3   0.235349 0.956843 0.999579 -0.454364
C26   C     C_3   0.318714 0.004779 0.859942 -0.365965
C27   C     C_3   0.450670 0.005909 0.913856 -0.784688
H7    H     H_    0.510030 0.048216 0.815632 0.249500
H8    H     H_    0.465317 0.078359 0.019289 0.248237
H9    H     H_    0.475768 0.894251 0.946119 0.270639
H10   H     H_    0.302343 0.936060 0.752046 0.218507
H11   H     H_    0.298526 0.117451 0.823787 0.212722
H12   H     H_    0.139737 0.973093 0.961579 0.150304
H13   H     H_    0.257721 0.031446 0.099715 0.211980
C28   C     C_3   0.836943 0.077526 0.081915 -0.444865
C29   C     C_3   0.713815 0.992770 0.082480 -0.379993
C30   C     C_3   0.722888 0.838350 0.143200 -0.816986
H14   H     H_    0.807897 0.794873 0.098629 0.263090
H15   H     H_    0.722549 0.833012 0.276288 0.258387
H16   H     H_    0.643355 0.770402 0.098113 0.268502
H17   H     H_    0.648245 0.048986 0.158141 0.237235
H18   H     H_    0.679866 0.986881 0.957282 0.242370
H19   H     H_    0.910897 0.017713 0.027716 0.179999
H20   H     H_    0.867097 0.094998 0.208737 0.195864
C31   C     C_3   0.209593 0.861142 0.353075 -0.383523
C32   C     C_3   0.098236 0.946420 0.387126 -0.398336
C33   C     C_3   0.132572 0.093631 0.462469 -0.886353
H21   H     H_    0.167078 0.078846 0.587274 0.242148
H22   H     H_    0.203959 0.154949 0.391474 0.264385
H23   H     H_    0.050545 0.158627 0.465541 0.277329
H24   H     H_    0.044218 0.962291 0.275210 0.217109
H25   H     H_    0.041693 0.880592 0.472541 0.243260
H26   H     H_    0.233301 0.797404 0.462405 0.171136
H27   H     H_    0.290664 0.935182 0.331492 0.217593
C34   C     C_3   0.802586 0.147477 0.704112 -0.396670
C35   C     C_3   0.864037 0.004696 0.700193 -0.378256
C36   C     C_3   0.818491 0.915505 0.557477 -0.877540
H28   H     H_    0.719376 0.894716 0.566546 0.272308
H29   H     H_    0.841388 0.974120 0.443776 0.256434
H30   H     H_    0.858678 0.808325 0.558756 0.274222
H31   H     H_    0.964227 0.025750 0.696312 0.225308
H32   H     H_    0.838814 0.938304 0.806583 0.283693
H33   H     H_    0.703493 0.126053 0.723543 0.202226
H34   H     H_    0.810149 0.198551 0.582174 0.197292
O9    O     O_3   0.072246 0.388404 0.125408 -0.613869
C37   C     C_3   0.136388 0.268108 0.081389 -0.387801
H35   H     H_    0.232487 0.275236 0.126552 0.184339
H36   H     H_    0.131970 0.252478 0.949184 0.158917
H37   H     H_    0.089305 0.171578 0.136345 0.207709
O10   O     O_3   0.859694 0.652473 0.834920 -0.618247
C38   C     C_3   0.980181 0.707752 0.860435 -0.407967
H38   H     H_    0.047788 0.631101 0.825165 0.199366
H39   H     H_    0.992528 0.742953 0.987038 0.167641
H40   H     H_    0.001834 0.800931 0.780366 0.189765

loop_
_geom_bond_atom_site_label_1
_geom_bond_atom_site_label_2
_geom_bond_distance
_ccdc_geom_bond_type
C26   H10   1.108717 S    
C30   H14   1.103372 S    
C5    C15   1.401867 A    
C34   C35   1.512856 S    
C37   H37   1.099998 S    
C25   C26   1.526379 S    
C29   H18   1.099288 S    
C28   C29   1.522872 S    
O5    C3    1.294913 A    
C11   O9    1.387478 S    
O1    C1    1.295881 A    
C18   C20   1.390693 A    
C10   C12   1.406395 A    
C3    C20   1.454048 S    
C7    C9    1.411703 A    
C37   H36   1.105844 S    
C25   H13   1.100733 S    
H2    C16   1.077942 S    
N1    N2    1.219256 T    
O4    Zn1   2.011264 S    
C6    C28   1.503177 S    
C28   H19   1.106929 S    
C9    C22   1.472060 S    
C7    C31   1.512003 S    
C33   H22   1.108968 S    
C17   H5    1.075474 S    
C6    C16   1.389052 A    
C32   H25   1.099675 S    
C38   H39   1.105756 S    
C35   H32   1.095509 S    
O2    C2    1.291814 A    
C34   H33   1.107016 S    
Zn1   N2    2.016471 S    
H1    C15   1.076607 S    
C29   H17   1.111278 S    
C27   H8    1.110431 S    
C13   C15   1.391041 A    
C18   C21   1.387962 A    
C35   C36   1.512873 S    
C37   H35   1.114481 S    
O4    C2    1.290912 A    
C23   C24   1.194095 T    
O7    Zn2   2.049271 S    
C27   H7    1.100532 S    
C10   C21   1.475909 S    
C4    C19   1.459655 S    
C18   H6    1.077622 S    
C36   H28   1.096812 S    
C5    C25   1.516458 S    
O7    C3    1.291900 A    
C28   H20   1.108950 S    
O9    C37   1.399484 S    
O6    C4    1.299102 A    
C33   H23   1.109180 S    
C32   H24   1.108281 S    
O10   C38   1.405446 S    
C38   H40   1.095962 S    
C36   H29   1.103902 S    
O3    Zn2   2.011263 S    
O8    C4    1.291082 A    
Zn2   N1    2.016471 S    
C8    C10   1.411694 A    
C14   C16   1.384741 A    
C35   H31   1.106339 S    
C30   H15   1.102337 S    
C2    C24   1.416182 S    
O1    Zn1   2.019784 S    
C34   H34   1.110819 S    
C26   C27   1.510962 S    
C27   H9    1.109568 S    
C26   H11   1.111466 S    
C1    C23   1.414287 S    
C29   C30   1.512825 S    
O6    Zn2   2.042966 S    
C19   C21   1.409137 A    
C12   O10   1.381772 S    
C12   C14   1.383976 A    
C31   H26   1.110433 S    
O3    C1    1.286603 A    
O8    Zn1   2.049271 S    
C13   H3    1.071167 S    
C14   H4    1.063671 S    
C17   C22   1.388040 A    
C32   C33   1.527234 S    
C9    C11   1.398842 A    
C25   H12   1.110258 S    
C17   C19   1.396605 A    
C20   C22   1.404633 A    
C5    C7    1.413848 A    
C8    C34   1.515196 S    
C6    C8    1.421238 A    
C11   C13   1.401160 A    
O2    Zn2   2.019785 S    
C36   H30   1.104195 S    
C31   C32   1.519174 S    
O5    Zn1   2.042966 S    
C31   H27   1.105433 S    
C33   H21   1.106932 S    
C30   H16   1.110284 S    
C38   H38   1.096127 S    
