data_mof_unit_26778.cif
_audit_creation_date              2012-12-10T20:39:52-0500
_audit_creation_method            fapswitch 2.2
_symmetry_space_group_name_H-M    P1
_symmetry_Int_Tables_number       1
_space_group_crystal_system       triclinic
_cell_length_a                    23.450771
_cell_length_b                    10.649001
_cell_length_c                    9.886034
_cell_angle_alpha                 90.381457
_cell_angle_beta                  91.113888
_cell_angle_gamma                 90.371723
_cell_volume                      2468.23711885

loop_
_atom_site_label
_atom_site_type_symbol
_atom_type_description
_atom_site_fract_x
_atom_site_fract_y
_atom_site_fract_z
_atom_type_partial_charge
C1    C     C_R   0.499302 0.260369 0.499889 0.933146
C2    C     C_R   0.969585 0.270328 0.617187 0.440000
C3    C     C_R   0.029043 0.268600 0.613398 0.448940
C4    C     C_R   0.059321 0.371180 0.558030 -0.215913
C5    C     C_R   0.029282 0.478827 0.514397 -0.101385
C6    C     C_R   0.059191 0.585962 0.468018 -0.112108
C7    C     C_R   0.028382 0.690407 0.417374 0.470942
C8    C     C_R   0.969267 0.689728 0.420929 -0.130270
C9    C     C_R   0.118762 0.369968 0.543142 0.555715
C10   C     C_R   0.118890 0.585351 0.477194 0.542870
C11   C     C_R   0.234932 0.480455 0.378656 0.476290
C12   C     C_R   0.389171 0.501146 0.498634 0.906226
C13   C     C_R   0.293805 0.497907 0.374821 0.413270
C14   C     C_R   0.326511 0.498911 0.496891 -0.371486
C15   C     C_R   0.298810 0.491746 0.621117 -0.211715
C16   C     C_R   0.239922 0.484242 0.626912 0.492074
C17   C     C_R   0.207628 0.477223 0.504950 -0.053604
C18   C     C_R   0.759743 0.398523 0.424873 -0.169831
C19   C     C_R   0.700463 0.397622 0.423838 0.423133
C20   C     C_R   0.671829 0.488127 0.502752 -0.239373
C21   C     C_R   0.702708 0.573807 0.583193 -0.380799
C22   C     C_R   0.761788 0.568121 0.591183 0.593945
C23   C     C_R   0.497592 0.739322 0.500382 0.881649
C24   C     C_R   0.790436 0.482239 0.508595 0.078865
C25   C     C_R   0.515625 0.064178 0.612352 -0.076581
C26   C     C_R   0.493808 0.128860 0.502119 -0.146981
C27   C     C_R   0.461177 0.065446 0.402815 -0.165026
C28   C     C_R   0.457838 0.935142 0.404500 0.419086
C29   C     C_R   0.490867 0.870615 0.503205 -0.222916
C30   C     C_R   0.516204 0.937324 0.609695 -0.130419
C31   C     C_3   0.571153 0.932226 0.691655 0.372647
C32   C     C_3   0.569344 0.076490 0.696026 0.299904
C33   C     C_R   0.460276 0.432841 0.067678 -0.069500
C34   C     C_R   0.610257 0.497123 0.500871 0.919300
C35   C     C_R   0.534141 0.580492 0.075694 0.425628
C36   C     C_R   0.537583 0.572962 0.930457 0.409891
C37   C     C_R   0.458900 0.436098 0.925896 -0.017207
C38   C     C_3   0.443855 0.300178 0.910806 0.308907
C39   C     C_3   0.447288 0.293927 0.066113 0.790462
C40   C     C_R   0.880058 0.582927 0.464628 0.623431
C41   C     C_R   0.878923 0.375877 0.556161 0.534863
C42   C     C_R   0.938948 0.373835 0.564032 -0.210107
C43   C     C_R   0.969235 0.479176 0.515845 -0.066651
C44   C     C_R   0.939466 0.584959 0.467703 -0.099617
H1    H     H_    0.680907 0.646353 0.638414 0.225671
H2    H     H_    0.438232 0.116269 0.325134 0.220913
H3    H     H_    0.563878 0.891430 0.792943 0.087313
H4    H     H_    0.560423 0.116719 0.797882 0.019764
H5    H     H_    0.476829 0.246508 0.855704 0.051566
H6    H     H_    0.946696 0.770808 0.382199 0.221648
H7    H     H_    0.322871 0.493756 0.715813 0.251467
H8    H     H_    0.782236 0.331891 0.362481 0.200253
N1    N     N_R   0.851285 0.480098 0.509498 -0.332450
N2    N     N_R   0.146836 0.477219 0.508659 -0.361171
N3    N     N_R   0.499610 0.499140 0.142800 -0.179651
N4    N     N_R   0.499610 0.499180 0.857150 -0.186246
O1    O     O_R   0.500010 0.316790 0.614690 -0.628332
O2    O     O_2   0.848045 0.274904 0.593173 -0.536029
O3    O     O_2   0.148631 0.263344 0.561305 -0.482959
O4    O     O_2   0.149271 0.691362 0.456732 -0.486610
O5    O     O_R   0.500000 0.316760 0.385350 -0.620479
O6    O     O_R   0.416160 0.499980 0.614700 -0.592151
O7    O     O_R   0.416150 0.499940 0.385360 -0.624083
O8    O     O_R   0.500000 0.683240 0.614650 -0.570718
O9    O     O_R   0.499990 0.683210 0.385310 -0.592292
O10   O     O_R   0.583850 0.500060 0.614640 -0.582380
O11   O     O_R   0.583840 0.500020 0.385300 -0.583043
O12   O     O_2   0.850989 0.682243 0.415299 -0.522370
Zn1   Zn    Zn3+2 0.500000 0.500020 0.653130 1.009109
Zn2   Zn    Zn3+2 0.500000 0.499980 0.346870 0.995804
O13   O     O_3   0.943080 0.171155 0.679514 -0.639905
H9    H     H_    0.918549 0.207638 0.750049 0.354210
O14   O     O_3   0.672807 0.306408 0.346728 -0.757093
H10   H     H_    0.633423 0.295464 0.378900 0.345944
O15   O     O_3   0.791530 0.652584 0.672857 -0.561689
C45   C     C_3   0.802281 0.595487 0.798951 -0.275539
H11   H     H_    0.830779 0.513013 0.788599 0.161508
H12   H     H_    0.761988 0.567231 0.848448 0.135976
H13   H     H_    0.824375 0.664552 0.866487 0.216021
O16   O     O_3   0.423415 0.876194 0.308378 -0.744401
H14   H     H_    0.411794 0.793080 0.343055 0.332405
O17   O     O_3   0.621293 0.881076 0.633206 -0.582502
C46   C     C_3   0.623985 0.887570 0.490565 -0.129512
H15   H     H_    0.602474 0.970503 0.445863 0.179790
H16   H     H_    0.606639 0.799792 0.444712 0.147919
H17   H     H_    0.669492 0.893583 0.462668 0.200611
O18   O     O_3   0.613098 0.136379 0.623486 -0.590271
C47   C     C_3   0.656352 0.177146 0.714677 -0.214754
H18   H     H_    0.672891 0.098212 0.777094 0.183513
H19   H     H_    0.640713 0.254203 0.780555 0.128403
H20   H     H_    0.692387 0.214905 0.655993 0.207541
O19   O     O_3   0.567992 0.662918 0.150998 -0.582793
C48   C     C_3   0.551200 0.787464 0.123683 -0.207809
H21   H     H_    0.503953 0.798430 0.119891 0.188253
H22   H     H_    0.570076 0.821280 0.028537 0.169414
H23   H     H_    0.567808 0.849170 0.206407 0.166658
O20   O     O_3   0.056140 0.168060 0.672963 -0.630591
H24   H     H_    0.086274 0.202645 0.734547 0.362578
O21   O     O_3   0.577781 0.642324 0.862495 -0.574689
C49   C     C_3   0.632867 0.596498 0.894299 -0.274847
H25   H     H_    0.664625 0.666931 0.861782 0.199497
H26   H     H_    0.640502 0.506565 0.840297 0.161765
H27   H     H_    0.641266 0.582683 0.004063 0.182117
O22   O     O_3   0.387719 0.287355 0.857543 -0.548175
C50   C     C_3   0.378407 0.162110 0.815399 -0.144724
H28   H     H_    0.387650 0.094772 0.898554 0.179671
H29   H     H_    0.404372 0.139627 0.725624 0.126190
H30   H     H_    0.332862 0.150646 0.785190 0.210441
O23   O     O_3   0.393900 0.268808 0.122071 -0.672593
H31   H     H_    0.397103 0.292632 0.219100 0.350653
O24   O     O_3   0.489365 0.209180 0.117499 -0.634102
C51   C     C_3   0.546651 0.241855 0.090165 -0.366247
H32   H     H_    0.564076 0.305372 0.170215 0.231165
H33   H     H_    0.552816 0.284627 0.989549 0.095716
H34   H     H_    0.572494 0.155016 0.093131 0.200534
O25   O     O_3   0.054049 0.792512 0.358611 -0.672226
H35   H     H_    0.081991 0.759594 0.293558 0.370321
O26   O     O_3   0.205288 0.472238 0.256573 -0.656818
H36   H     H_    0.165692 0.443925 0.271954 0.337781
O27   O     O_3   0.317792 0.513050 0.249896 -0.645763
H37   H     H_    0.342097 0.589450 0.255736 0.345627
O28   O     O_3   0.215964 0.485288 0.753553 -0.684824
H38   H     H_    0.174021 0.491527 0.744955 0.347399

loop_
_geom_bond_atom_site_label_1
_geom_bond_atom_site_label_2
_ccdc_geom_bond_type
O5    Zn2   S    
C33   N3    A    
O18   C47   S    
C48   H21   S    
C41   C42   A    
C19   C20   A    
C45   H13   S    
C43   C44   A    
C34   O10   A    
C51   H33   S    
O20   H24   S    
C18   H8    S    
C7    C8    A    
C38   H5    S    
C50   H29   S    
C26   C27   A    
C33   C39   S    
C31   O17   S    
C18   C24   A    
C23   C29   S    
O19   C48   S    
C28   C29   A    
C37   C38   S    
C45   H12   S    
C41   O2    S    
C30   C31   S    
O10   Zn1   S    
O9    Zn2   S    
O25   H35   S    
C18   C19   A    
O14   H10   S    
C16   O28   S    
O26   H36   S    
C51   H32   S    
C38   O22   S    
C37   N4    A    
C46   H15   S    
C16   C17   A    
C47   H20   S    
C15   H7    S    
C20   C34   S    
C35   O19   S    
C25   C32   S    
C39   O24   S    
C5    C43   A    
C48   H22   S    
C31   H3    S    
C21   C22   A    
C32   H4    S    
C22   O15   S    
C10   N2    A    
O22   C50   S    
C21   H1    S    
C38   C39   S    
C50   H30   S    
C15   C16   A    
C35   N3    A    
C19   O14   S    
C45   H11   S    
N4    Zn1   S    
C12   O7    A    
C4    C5    A    
C24   N1    S    
C32   O18   S    
C49   H27   S    
C33   C37   A    
O6    Zn1   S    
C9    O3    S    
C35   C36   A    
C7    O25   S    
C10   O4    S    
O15   C45   S    
C29   C30   A    
C36   N4    A    
C1    O1    A    
C12   O6    A    
C3    O20   S    
O21   C49   S    
O7    Zn2   S    
C39   O23   S    
C49   H26   S    
O8    Zn1   S    
C47   H18   S    
C41   N1    A    
C27   H2    S    
C23   O8    A    
C46   H16   S    
C47   H19   S    
C40   N1    A    
C48   H23   S    
C1    C26   S    
C22   C24   A    
C42   C43   A    
C3    C4    A    
C8    H6    S    
C13   O27   S    
O27   H37   S    
C25   C30   A    
C11   C17   A    
O24   C51   S    
C31   C32   S    
C8    C44   A    
C12   C14   S    
O16   H14   S    
C1    O5    A    
C34   O11   A    
C6    C10   A    
C6    C7    A    
C50   H28   S    
O11   Zn2   S    
C23   O9    A    
C2    C3    A    
C25   C26   A    
O13   H9    S    
O23   H31   S    
C11   C13   A    
C5    C6    A    
C2    C42   A    
C49   H25   S    
C36   O21   S    
C28   O16   S    
N3    Zn2   S    
C40   C44   A    
C46   H17   S    
C20   C21   A    
O17   C46   S    
C40   O12   S    
C27   C28   A    
O28   H38   S    
C14   C15   A    
C9    N2    A    
O1    Zn1   S    
C4    C9    A    
C13   C14   A    
C11   O26   S    
C17   N2    S    
C51   H34   S    
C2    O13   S    
