data_mof_unit_11420.cif
_audit_creation_date              2012-12-10T17:15:13-0500
_audit_creation_method            fapswitch 2.2
_symmetry_space_group_name_H-M    P1
_symmetry_Int_Tables_number       1
_space_group_crystal_system       triclinic
_cell_length_a                    10.15347
_cell_length_b                    10.775137
_cell_length_c                    12.931936
_cell_angle_alpha                 90.69849
_cell_angle_beta                  91.108885
_cell_angle_gamma                 96.958083
_cell_volume                      1403.98516179

loop_
_atom_site_label
_atom_site_type_symbol
_atom_type_description
_atom_site_fract_x
_atom_site_fract_y
_atom_site_fract_z
_atom_type_partial_charge
C1    C     C_R   0.444231 0.266813 0.485642 0.865952
C2    C     C_R   0.555362 0.732873 0.513651 0.906402
C3    C     C_2   0.072806 0.503856 0.522108 -0.056098
C4    C     C_2   0.933963 0.529185 0.510167 -0.042066
C5    C     C_R   0.473940 0.502955 0.698289 0.852459
C6    C     C_R   0.524830 0.491519 0.301104 0.854948
C7    C     C_R   0.537748 0.476892 0.189452 -0.201684
C8    C     C_R   0.457296 0.502885 0.809099 -0.199597
C9    C     C_R   0.354253 0.570931 0.963996 -0.234984
C10   C     C_R   0.662494 0.442706 0.034489 -0.106446
C11   C     C_R   0.373705 0.580956 0.857195 -0.050460
C12   C     C_R   0.661312 0.465747 0.141783 -0.214147
C13   C     C_R   0.537372 0.432612 0.869470 -0.037535
C14   C     C_R   0.423163 0.482131 0.126866 -0.097940
C15   C     C_R   0.547512 0.457584 0.975186 0.074075
C16   C     C_R   0.439660 0.503508 0.022357 -0.005673
C17   C     C_2   0.409413 0.131818 0.467123 -0.327633
C18   C     C_2   0.588481 0.866898 0.530885 -0.424254
C19   C     C_2   0.507897 0.058185 0.472331 -0.063721
C20   C     C_2   0.489204 0.938727 0.527804 -0.023317
H1    H     H_    0.859381 0.363742 0.567024 0.199648
H2    H     H_    0.132278 0.598558 0.394859 0.221464
N1    N     N_2   0.162330 0.550370 0.457540 -0.186388
N2    N     N_2   0.837670 0.449630 0.542460 -0.189493
O1    O     O_R   0.567930 0.307680 0.508550 -0.610680
O2    O     O_R   0.432070 0.692320 0.491450 -0.527218
O3    O     O_R   0.351090 0.340020 0.481290 -0.535933
O4    O     O_R   0.648910 0.659980 0.518710 -0.608619
O5    O     O_R   0.590490 0.486480 0.665020 -0.549203
O6    O     O_R   0.409510 0.513520 0.334980 -0.589360
O7    O     O_R   0.373660 0.518820 0.637760 -0.605611
O8    O     O_R   0.626340 0.481180 0.362240 -0.578689
Zn1   Zn    Zn3+2 0.644780 0.478400 0.518200 1.050607
Zn2   Zn    Zn3+2 0.355220 0.521600 0.481800 1.090441
C21   C     C_2   0.288258 0.431366 0.161204 0.971700
O9    O     O_2   0.254011 0.318470 0.155470 -0.560997
O10   O     O_R   0.201609 0.510836 0.200509 -0.737647
H3    H     H_    0.113522 0.463750 0.221205 0.378925
C22   C     C_2   0.584909 0.316202 0.828774 0.903435
O11   O     O_2   0.524716 0.214557 0.851162 -0.576520
O12   O     O_R   0.699045 0.321434 0.769184 -0.731091
H4    H     H_    0.720215 0.235236 0.747630 0.363522
C23   C     C_2   0.791105 0.485593 0.198866 1.060477
O13   O     O_2   0.865659 0.581681 0.185456 -0.520216
O14   O     O_R   0.834903 0.392408 0.259811 -0.752893
H5    H     H_    0.771468 0.312836 0.254597 0.319833
C24   C     C_2   0.322337 0.685041 0.802135 0.951202
O15   O     O_2   0.383641 0.790500 0.810216 -0.607304
O16   O     O_R   0.197732 0.666003 0.752506 -0.701068
H6    H     H_    0.162600 0.747544 0.734794 0.393692
C25   C     C_2   0.262246 0.649312 0.015365 1.034717
O17   O     O_2   0.146457 0.643521 0.984500 -0.496170
O18   O     O_R   0.306135 0.731915 0.096671 -0.683788
H7    H     H_    0.405134 0.735762 0.112187 0.317739
C26   C     C_2   0.789188 0.426103 0.983893 0.963793
O19   O     O_2   0.854825 0.345892 0.013955 -0.568612
O20   O     O_R   0.834662 0.505030 0.904096 -0.701632
H8    H     H_    0.923888 0.487380 0.878384 0.412618
C27   C     C_2   0.379876 0.916675 0.602089 0.507736
H9    H     H_    0.382834 0.973955 0.671782 0.113685
O21   O     O_2   0.283174 0.840543 0.583013 -0.496301
C28   C     C_2   0.639002 0.096005 0.424630 0.139494
H10   H     H_    0.643785 0.134140 0.346260 -0.038346
O22   O     O_2   0.644417 0.139194 0.335839 0.010585
C29   C     C_2   0.715602 0.915703 0.585430 0.970314
O23   O     O_2   0.715690 0.933686 0.679418 -0.520795
O24   O     O_R   0.834257 0.943622 0.531876 -0.688186
H11   H     H_    0.822591 0.928719 0.454197 0.303088
C30   C     C_2   0.269296 0.077237 0.443710 1.003121
O25   O     O_2   0.176258 0.134139 0.466105 -0.535380
O26   O     O_R   0.244443 0.961478 0.392160 -0.713810
H12   H     H_    0.146077 0.934264 0.379783 0.380178
C31   C     C_2   0.912121 0.651925 0.468787 0.994947
O27   O     O_2   0.974993 0.745982 0.506312 -0.564739
O28   O     O_R   0.831733 0.660372 0.381475 -0.746349
H13   H     H_    0.832041 0.749044 0.356552 0.331614
C32   C     C_2   0.103227 0.430698 0.614699 1.031094
O29   O     O_2   0.054959 0.454181 0.697383 -0.581897
O30   O     O_R   0.170176 0.326283 0.606802 -0.729453
H14   H     H_    0.179622 0.283207 0.675377 0.346440

loop_
_geom_bond_atom_site_label_1
_geom_bond_atom_site_label_2
_ccdc_geom_bond_type
C6    O8    A    
C26   O19   D    
C17   C30   S    
C8    C13   A    
C2    C18   S    
C31   O27   D    
C11   C24   S    
C19   C20   S    
C9    C25   S    
C23   O13   D    
C24   O16   S    
O14   H5    S    
C18   C29   S    
C28   H10   S    
C21   O10   S    
C9    C16   A    
C12   C23   S    
C10   C15   A    
C4    N2    D    
C19   C28   S    
C15   C16   A    
O5    Zn1   S    
O12   H4    S    
C30   O26   S    
C28   O22   D    
C3    N1    D    
O2    Zn2   S    
C7    C14   A    
C21   O9    D    
C29   O24   S    
C27   H9    S    
C1    O1    A    
C31   O28   S    
C5    O5    A    
C32   O30   S    
O3    Zn2   S    
C7    C12   A    
C27   O21   D    
O6    Zn2   S    
O24   H11   S    
C22   O12   S    
C22   O11   D    
C32   O29   D    
C25   O17   D    
C25   O18   S    
O28   H13   S    
O10   H3    S    
C9    C11   A    
C24   O15   D    
N1    Zn2   S    
O7    Zn2   S    
C2    O2    A    
C20   C27   S    
C10   C26   S    
C23   O14   S    
C4    C31   S    
C10   C12   A    
C6    O6    A    
O4    Zn1   S    
C29   O23   D    
C13   C15   A    
C14   C16   A    
C3    C4    S    
C3    C32   S    
C14   C21   S    
C5    C8    S    
O18   H7    S    
C6    C7    S    
C1    C17   S    
N2    Zn1   S    
O8    Zn1   S    
C26   O20   S    
O26   H12   S    
O20   H8    S    
C8    C11   A    
C17   C19   D    
C18   C20   D    
C30   O25   D    
C13   C22   S    
O30   H14   S    
O16   H6    S    
H1    N2    S    
C1    O3    A    
H2    N1    S    
C2    O4    A    
O1    Zn1   S    
C5    O7    A    
