data_mof_unit_10243.cif
_audit_creation_date              2012-12-11T15:44:56-0500
_audit_creation_method            fapswitch 2.2
_symmetry_space_group_name_H-M    P1
_symmetry_Int_Tables_number       1
_space_group_crystal_system       triclinic
_cell_length_a                    19.247139
_cell_length_b                    11.092349
_cell_length_c                    18.720562
_cell_angle_alpha                 90.024901
_cell_angle_beta                  90.710233
_cell_angle_gamma                 90.091117
_cell_volume                      3996.45225676

loop_
_atom_site_label
_atom_site_type_symbol
_atom_type_description
_atom_site_fract_x
_atom_site_fract_y
_atom_site_fract_z
_atom_type_partial_charge
C1    C     C_R   0.759652 0.533299 0.646198 0.541656
C2    C     C_R   0.182938 0.050848 0.543634 -0.152302
C3    C     C_R   0.489742 0.946446 0.965641 0.021110
C4    C     C_R   0.944840 0.238403 0.976679 -0.156788
C5    C     C_R   0.962189 0.238391 0.049965 -0.165205
C6    C     C_R   0.476390 0.732013 0.969003 -0.159478
C7    C     C_R   0.478444 0.735209 0.043852 -0.171483
C8    C     C_3   0.048639 0.534501 0.028781 -0.255749
C9    C     C_3   0.025722 0.538615 0.951673 -0.268332
C10   C     C_3   0.554022 0.041923 0.033000 -0.251449
C11   C     C_3   0.541905 0.041444 0.953452 -0.284807
C12   C     C_R   0.762390 0.527318 0.853974 0.536860
C13   C     C_R   0.329277 0.590715 0.446807 -0.158096
C14   C     C_R   0.238577 0.528406 0.146675 0.545209
C15   C     C_R   0.262180 0.028000 0.853625 0.541946
C16   C     C_R   0.739735 0.032070 0.148351 0.541346
C17   C     C_R   0.774217 0.132341 0.854925 0.537275
C18   C     C_R   0.227285 0.125190 0.147791 0.553516
C19   C     C_R   0.272216 0.627288 0.852994 0.557902
C20   C     C_R   0.727763 0.624571 0.148099 0.549944
C21   C     C_R   0.937980 0.350899 0.860282 0.563166
C22   C     C_R   0.028421 0.346886 0.147790 0.536120
C23   C     C_R   0.467425 0.846490 0.854852 0.544856
C24   C     C_R   0.681368 0.544956 0.541615 -0.143293
C25   C     C_R   0.529005 0.847057 0.147506 0.535705
C26   C     C_R   0.758757 0.106833 0.416174 0.006637
C27   C     C_R   0.241777 0.092482 0.580682 0.022279
C28   C     C_R   0.264261 0.611441 0.414059 -0.003081
C29   C     C_R   0.736474 0.596149 0.581260 0.010444
C30   C     C_R   0.709813 0.170388 0.454674 0.029836
C31   C     C_R   0.286248 0.172859 0.547568 0.045838
C32   C     C_R   0.220549 0.688163 0.450090 0.025263
C33   C     C_R   0.766976 0.699090 0.553478 0.017521
C34   C     C_R   0.720351 0.199816 0.525747 0.018728
C35   C     C_3   0.634110 0.153971 0.460944 -0.122621
C36   C     C_R   0.275630 0.199661 0.475175 0.007417
C37   C     C_R   0.231994 0.720111 0.521181 0.019179
C38   C     C_R   0.753961 0.734460 0.482984 -0.005981
C39   C     C_3   0.650299 0.241460 0.933672 -0.379368
C40   C     C_3   0.375604 0.108480 0.091416 -0.390832
C41   C     C_3   0.146760 0.735927 0.930991 -0.373419
C42   C     C_3   0.875955 0.630203 0.089226 -0.384262
C43   C     C_3   0.799834 0.847247 0.908790 -0.391930
C44   C     C_3   0.063463 0.988133 0.056872 -0.393655
C45   C     C_3   0.365911 0.336452 0.907268 -0.395191
C46   C     C_3   0.293794 0.303862 0.566042 -0.141304
C47   C     C_3   0.567976 0.472978 0.061549 -0.394431
C48   C     C_3   0.598361 0.249779 0.415033 -0.379559
C49   C     C_3   0.234048 0.353258 0.611275 -0.393857
C50   C     C_3   0.114523 0.785423 0.407418 -0.382626
C51   C     C_3   0.857450 0.833539 0.602536 -0.386922
C52   C     C_3   0.144818 0.686328 0.455269 -0.124271
C53   C     C_3   0.840940 0.731321 0.550699 -0.149667
C54   C     C_3   0.644395 0.183437 0.540384 -0.245504
C55   C     C_3   0.285420 0.330498 0.487389 -0.237257
C56   C     C_3   0.156044 0.717626 0.534183 -0.240159
C57   C     C_R   0.241131 0.536894 0.352381 0.526519
C58   C     C_3   0.827329 0.770107 0.473507 -0.245761
C59   C     C_R   0.781011 0.162101 0.561594 -0.002538
C60   C     C_R   0.220672 0.147467 0.436529 0.012070
C61   C     C_R   0.287155 0.669689 0.560190 -0.009092
C62   C     C_R   0.710846 0.664694 0.438594 0.005049
C63   C     C_R   0.995160 0.335292 0.424002 -0.033830
C64   C     C_R   0.004184 0.343643 0.575304 -0.043280
C65   C     C_R   0.489102 0.829845 0.419495 -0.036306
C66   C     C_R   0.494768 0.844823 0.570312 -0.036607
C67   C     C_R   0.993062 0.114352 0.431716 -0.102872
C68   C     C_R   0.259897 0.034100 0.647178 0.542460
C69   C     C_R   0.023014 0.126517 0.577629 -0.094492
C70   C     C_R   0.495022 0.608801 0.428607 -0.096607
C71   C     C_R   0.520393 0.625903 0.574958 -0.086064
C72   C     C_R   0.994277 0.010363 0.473140 -0.170757
C73   C     C_R   0.013481 0.015998 0.544938 -0.155622
C74   C     C_R   0.500006 0.504711 0.469973 -0.174449
C75   C     C_R   0.515362 0.513039 0.542521 -0.152428
C76   C     C_R   0.010213 0.233120 0.539462 0.000967
C77   C     C_R   0.001301 0.227780 0.464075 0.016323
C78   C     C_R   0.505052 0.732120 0.536010 0.003513
C79   C     C_R   0.739939 0.034844 0.353218 0.534729
C80   C     C_R   0.497958 0.723876 0.460634 0.021458
C81   C     C_R   0.001556 0.450474 0.533951 0.011536
C82   C     C_R   0.984168 0.443420 0.460934 0.013616
C83   C     C_R   0.482585 0.949764 0.526769 0.012708
C84   C     C_R   0.468018 0.935079 0.453518 0.009857
C85   C     C_R   0.790913 0.171610 0.639120 0.567545
C86   C     C_R   0.209148 0.170138 0.361042 0.565458
C87   C     C_R   0.292410 0.674064 0.639262 0.560655
C88   C     C_R   0.707025 0.674643 0.360346 0.574263
C89   C     C_R   0.013861 0.565423 0.563587 -0.098808
C90   C     C_R   0.835929 0.122136 0.519428 -0.170637
C91   C     C_R   0.962501 0.548222 0.424874 -0.082989
C92   C     C_R   0.482752 0.069958 0.553095 -0.070551
C93   C     C_R   0.436774 0.029274 0.414191 -0.071750
C94   C     C_R   0.000501 0.668608 0.524072 -0.141992
C95   C     C_R   0.974831 0.659931 0.454798 -0.136352
C96   C     C_R   0.454415 0.164024 0.513029 -0.131472
C97   C     C_R   0.428692 0.142249 0.444552 -0.123842
C98   C     C_R   0.754304 0.084326 0.079201 -0.001162
C99   C     C_R   0.256823 0.060193 0.928346 -0.011199
C100  C     C_R   0.244927 0.557411 0.071590 -0.001691
C101  C     C_R   0.173130 0.075993 0.472560 -0.151115
C102  C     C_R   0.757439 0.558310 0.929098 -0.015544
C103  C     C_R   0.809555 0.038233 0.039997 0.003474
C104  C     C_R   0.194744 0.037116 0.961823 -0.008839
C105  C     C_R   0.280120 0.475609 0.028259 0.019285
C106  C     C_R   0.697031 0.528309 0.963715 -0.004148
C107  C     C_R   0.811701 0.051581 0.967821 0.015366
C108  C     C_R   0.188625 0.043345 0.033855 0.030957
C109  C     C_R   0.283046 0.490958 0.955731 0.011696
C110  C     C_R   0.691953 0.533250 0.036028 0.034058
C111  C     C_R   0.707656 0.171726 0.969498 -0.031662
C112  C     C_R   0.339472 0.614763 0.520068 -0.152420
C113  C     C_R   0.310913 0.088928 0.046760 -0.040107
C114  C     C_R   0.199278 0.651592 0.963595 -0.034142
C115  C     C_R   0.811999 0.595992 0.046360 -0.038951
C116  C     C_R   0.706913 0.160714 0.044526 -0.144977
C117  C     C_R   0.316674 0.074942 0.972017 -0.142848
C118  C     C_R   0.201163 0.641446 0.038513 -0.152356
C119  C     C_R   0.816994 0.582166 0.971578 -0.143637
C120  C     C_3   0.840165 0.914095 0.034881 -0.238117
C121  C     C_3   0.122158 0.075450 0.946212 -0.255188
C122  C     C_3   0.352964 0.429771 0.032630 -0.244741
C123  C     C_R   0.668474 0.579890 0.471877 -0.136812
C124  C     C_3   0.623678 0.563310 0.949482 -0.262789
C125  C     C_3   0.844702 0.932627 0.954564 -0.137847
C126  C     C_3   0.113956 0.082238 0.027017 -0.106129
C127  C     C_3   0.356707 0.449510 0.952577 -0.136733
C128  C     C_3   0.616773 0.568669 0.030244 -0.109410
C129  C     C_R   0.760147 0.111181 0.930060 0.025171
C130  C     C_R   0.244227 0.080908 0.077354 0.027813
C131  C     C_R   0.248117 0.585014 0.922266 0.017348
C132  C     C_R   0.746390 0.578376 0.078362 0.018490
C133  C     C_R   0.972353 0.346972 0.647518 0.534533
C134  C     C_R   0.825172 0.096533 0.446837 -0.162744
C135  C     C_R   0.027716 0.345169 0.352426 0.522962
C136  C     C_R   0.470020 0.847385 0.645668 0.528543
C137  C     C_R   0.526776 0.844380 0.351317 0.521689
C138  C     C_R   0.990211 0.343289 0.080809 0.009246
C139  C     C_R   0.952125 0.344716 0.936219 0.013942
C140  C     C_R   0.496125 0.843295 0.078072 0.010307
C141  C     C_R   0.484700 0.838738 0.929581 0.015555
C142  C     C_R   0.990423 0.448561 0.040804 0.018462
C143  C     C_R   0.970661 0.450125 0.970894 0.011204
C144  C     C_R   0.498250 0.948500 0.037762 0.015515
Cr1   Cr    Cr6+3 0.885860 0.491680 0.749630 0.984711
Cr2   Cr    Cr6+3 0.112430 0.179310 0.249850 0.982928
Cr3   Cr    Cr6+3 0.387570 0.679310 0.750150 0.988236
Cr4   Cr    Cr6+3 0.612430 0.679310 0.249850 0.981677
Cr5   Cr    Cr6+3 0.114140 0.491680 0.250370 0.990109
Cr6   Cr    Cr6+3 0.385860 0.991680 0.749630 0.997921
Cr7   Cr    Cr6+3 0.614140 0.991680 0.250370 0.987294
Cr8   Cr    Cr6+3 0.730490 0.332970 0.748720 0.984107
Cr9   Cr    Cr6+3 0.269510 0.332970 0.251280 0.987575
Cr10  Cr    Cr6+3 0.230490 0.832970 0.748720 0.987235
Cr11  Cr    Cr6+3 0.769510 0.832970 0.251280 0.983323
Cr12  Cr    Cr6+3 0.887570 0.179310 0.750150 0.986794
H1    H     H_    0.884875 0.100721 0.544271 0.167746
H2    H     H_    0.367448 0.077174 0.947944 0.146842
H3    H     H_    0.908344 0.873137 0.589905 0.132563
H4    H     H_    0.167512 0.696987 0.070806 0.126191
H5    H     H_    0.866514 0.594966 0.946205 0.138823
H6    H     H_    0.802104 0.844288 0.050996 0.169928
H7    H     H_    0.091203 0.003218 0.919569 0.142219
H8    H     H_    0.354498 0.334213 0.048400 0.156498
H9    H     H_    0.592952 0.490656 0.923081 0.138528
H10   H     H_    0.891962 0.908624 0.061576 0.110900
H11   H     H_    0.119565 0.165132 0.919778 0.129871
H12   H     H_    0.387928 0.490045 0.064048 0.118638
H13   H     H_    0.128440 0.038181 0.445707 0.161090
H14   H     H_    0.619493 0.653186 0.923484 0.120954
H15   H     H_    0.898892 0.942117 0.935370 0.137600
H16   H     H_    0.105069 0.175598 0.046339 0.162775
H17   H     H_    0.392991 0.521521 0.938523 0.160346
H18   H     H_    0.607884 0.661579 0.050065 0.167642
H19   H     H_    0.930491 0.155120 0.950829 0.138412
H20   H     H_    0.958652 0.156124 0.080585 0.125676
H21   H     H_    0.472647 0.647147 0.941792 0.122373
H22   H     H_    0.473977 0.652878 0.074072 0.120466
H23   H     H_    0.099434 0.488881 0.036650 0.158713
H24   H     H_    0.384683 0.579336 0.546763 0.165621
H25   H     H_    0.003236 0.626894 0.935504 0.127206
H26   H     H_    0.605331 0.003861 0.048466 0.165411
H27   H     H_    0.516872 0.124906 0.932791 0.132091
H28   H     H_    0.042022 0.621325 0.057503 0.132786
H29   H     H_    0.064953 0.500597 0.914801 0.158709
H30   H     H_    0.540197 0.128535 0.058986 0.127647
H31   H     H_    0.586900 0.007006 0.922812 0.137994
H32   H     H_    0.865579 0.052959 0.417316 0.136540
H33   H     H_    0.145453 0.994428 0.569187 0.143415
H34   H     H_    0.367556 0.538330 0.419192 0.137773
H35   H     H_    0.630078 0.530878 0.441879 0.159232
H36   H     H_    0.652434 0.468703 0.561172 0.143012
H37   H     H_    0.121825 0.595309 0.446852 0.178783
H38   H     H_    0.873623 0.650113 0.557454 0.188497
H39   H     H_    0.616612 0.059954 0.450416 0.173074
H40   H     H_    0.346163 0.326887 0.587740 0.147648
H41   H     H_    0.618700 0.267759 0.557761 0.126023
H42   H     H_    0.238395 0.383737 0.472982 0.139182
H43   H     H_    0.134832 0.805489 0.550233 0.133048
H44   H     H_    0.833223 0.867410 0.464094 0.153271
H45   H     H_    0.634870 0.104737 0.575721 0.127970
H46   H     H_    0.009853 0.754810 0.547624 0.105359
H47   H     H_    0.334552 0.359688 0.462898 0.129539
H48   H     H_    0.143272 0.642723 0.570970 0.125138
H49   H     H_    0.850114 0.711994 0.432155 0.148019
H50   H     H_    0.979050 0.926570 0.449243 0.099993
H51   H     H_    0.020277 0.936465 0.576841 0.090623
H52   H     H_    0.492525 0.417744 0.445274 0.099847
H53   H     H_    0.522936 0.432130 0.573896 0.098125
H54   H     H_    0.978572 0.105606 0.375942 0.130038
H55   H     H_    0.038904 0.127810 0.633296 0.131525
H56   H     H_    0.482569 0.597874 0.372476 0.131184
H57   H     H_    0.964560 0.739179 0.423315 0.095884
H58   H     H_    0.535264 0.628629 0.630801 0.135551
H59   H     H_    0.940225 0.544343 0.371477 0.133882
H60   H     H_    0.036114 0.576740 0.616527 0.134626
H61   H     H_    0.420238 0.016057 0.359192 0.129319
H62   H     H_    0.506869 0.094399 0.603434 0.135643
H63   H     H_    0.671542 0.324804 0.912789 0.198863
H64   H     H_    0.627619 0.190658 0.888114 0.138400
H65   H     H_    0.608044 0.264721 0.970589 0.101531
H66   H     H_    0.371911 0.185304 0.128538 0.152209
H67   H     H_    0.387284 0.025936 0.122749 0.148749
H68   H     H_    0.453588 0.254322 0.534670 0.093025
H69   H     H_    0.419542 0.131955 0.056722 0.117489
H70   H     H_    0.172616 0.820169 0.916311 0.195820
H71   H     H_    0.121791 0.694569 0.883174 0.140363
H72   H     H_    0.104927 0.758349 0.968715 0.095855
H73   H     H_    0.869420 0.713846 0.120199 0.152824
H74   H     H_    0.889806 0.556089 0.126533 0.150864
H75   H     H_    0.919928 0.649819 0.053641 0.118384
H76   H     H_    0.781641 0.890705 0.858812 0.157591
H77   H     H_    0.832419 0.771026 0.891657 0.139743
H78   H     H_    0.753352 0.815216 0.937867 0.133466
H79   H     H_    0.407635 0.215128 0.412707 0.112540
H80   H     H_    0.051933 0.009211 0.113414 0.163588
H81   H     H_    0.014007 0.988770 0.025761 0.106210
H82   H     H_    0.085551 0.896015 0.054982 0.128088
H83   H     H_    0.377015 0.362659 0.851351 0.153943
H84   H     H_    0.410407 0.282726 0.927975 0.114996
H85   H     H_    0.317811 0.281786 0.906475 0.156630
H86   H     H_    0.553470 0.498943 0.116607 0.159086
H87   H     H_    0.519720 0.465296 0.028741 0.107462
H88   H     H_    0.593014 0.383360 0.064845 0.131569
H89   H     H_    0.608806 0.340339 0.436684 0.128239
H90   H     H_    0.665571 0.201667 0.074763 0.123732
H91   H     H_    0.617467 0.246417 0.359343 0.161413
H92   H     H_    0.542275 0.234631 0.412187 0.136692
H93   H     H_    0.182630 0.322277 0.590559 0.137270
H94   H     H_    0.240528 0.322864 0.667453 0.145164
H95   H     H_    0.234234 0.452791 0.610114 0.163340
H96   H     H_    0.154481 0.849318 0.387607 0.164464
H97   H     H_    0.088055 0.744241 0.360359 0.146431
H98   H     H_    0.076948 0.837467 0.437782 0.123883
H99   H     H_    0.817080 0.904494 0.598742 0.182702
H100  H     H_    0.859308 0.798423 0.658055 0.151252
O1    O     O_R   0.957020 0.451640 0.669920 -0.521058
O2    O     O_R   0.168040 0.093290 0.169870 -0.521021
O3    O     O_R   0.331960 0.593290 0.830130 -0.525115
O4    O     O_R   0.668040 0.593290 0.169870 -0.519807
O5    O     O_R   0.945600 0.250580 0.824860 -0.509480
O6    O     O_R   0.054400 0.250580 0.175140 -0.516397
O7    O     O_R   0.445600 0.750580 0.824860 -0.511167
O8    O     O_R   0.554400 0.750580 0.175140 -0.517316
O9    O     O_3   0.834640 0.334650 0.749500 -0.284241
O10   O     O_3   0.165360 0.334650 0.250500 -0.263797
O11   O     O_3   0.334640 0.834650 0.749500 -0.265787
O12   O     O_R   0.042980 0.451640 0.330080 -0.524876
O13   O     O_3   0.665360 0.834650 0.250500 -0.265807
O14   O     O_R   0.821450 0.543440 0.674610 -0.501041
O15   O     O_R   0.178550 0.543440 0.325390 -0.500157
O16   O     O_R   0.321450 0.043440 0.674610 -0.494529
O17   O     O_R   0.678550 0.043440 0.325390 -0.504539
O18   O     O_R   0.715320 0.458650 0.668100 -0.535241
O19   O     O_R   0.284680 0.458650 0.331900 -0.540562
O20   O     O_R   0.215320 0.958650 0.668100 -0.541894
O21   O     O_R   0.784680 0.958650 0.331900 -0.539485
O22   O     O_R   0.737170 0.209590 0.674530 -0.498401
O23   O     O_R   0.457020 0.951640 0.669920 -0.526052
O24   O     O_R   0.262830 0.209590 0.325470 -0.501789
O25   O     O_R   0.237170 0.709590 0.674530 -0.506961
O26   O     O_R   0.762830 0.709590 0.325470 -0.506322
O27   O     O_R   0.832710 0.092740 0.669580 -0.534324
O28   O     O_R   0.167290 0.092740 0.330420 -0.531832
O29   O     O_R   0.332710 0.592740 0.669580 -0.530765
O30   O     O_R   0.667290 0.592740 0.330420 -0.527507
O31   O     O_R   0.946290 0.250060 0.676040 -0.513349
O32   O     O_R   0.053710 0.250060 0.323960 -0.520618
O33   O     O_R   0.446290 0.750060 0.676040 -0.520570
O34   O     O_R   0.542980 0.951640 0.330080 -0.521472
O35   O     O_R   0.553710 0.750060 0.323960 -0.524407
O36   O     O_R   0.956270 0.452200 0.830470 -0.526438
O37   O     O_R   0.043730 0.452200 0.169530 -0.521863
O38   O     O_R   0.456270 0.952200 0.830470 -0.521142
O39   O     O_R   0.543730 0.952200 0.169530 -0.523736
O40   O     O_R   0.820760 0.543950 0.823440 -0.526225
O41   O     O_R   0.179240 0.543950 0.176560 -0.507580
O42   O     O_R   0.320760 0.043950 0.823440 -0.512300
O43   O     O_R   0.679240 0.043950 0.176560 -0.510958
O44   O     O_R   0.714570 0.459210 0.828640 -0.531185
O45   O     O_R   0.736470 0.210100 0.823360 -0.512737
O46   O     O_R   0.285430 0.459210 0.171360 -0.521121
O47   O     O_R   0.214570 0.959210 0.828640 -0.530768
O48   O     O_R   0.785430 0.959210 0.171360 -0.524740
O49   O     O_R   0.263530 0.210100 0.176640 -0.508176
O50   O     O_R   0.236470 0.710100 0.823360 -0.509024
O51   O     O_R   0.763530 0.710100 0.176640 -0.512785
O52   O     O_R   0.831960 0.093290 0.830130 -0.528149

loop_
_geom_bond_atom_site_label_1
_geom_bond_atom_site_label_2
_ccdc_geom_bond_type
C118  H4    S    
C107  C129  A    
C119  H5    S    
C9    C143  S    
C120  H10   S    
C47   C128  S    
C16   O43   A    
Cr6   O42   S    
C14   O41   A    
Cr7   O39   S    
C68   O16   A    
C13   C112  A    
C136  O33   A    
C44   H80   S    
C19   O3    A    
C90   C134  A    
C97   H79   S    
C29   C33   A    
C89   C94   A    
C32   C52   S    
C91   H59   S    
C27   C68   S    
C37   C56   S    
Cr9   O46   S    
C109  C127  S    
C46   C55   S    
C70   C74   A    
C50   C52   S    
C69   H55   S    
C65   C137  S    
C42   H75   S    
C39   C111  S    
Cr4   O30   S    
C19   C131  S    
C53   H38   S    
C19   O50   A    
C20   C132  S    
C51   H100  S    
Cr10  O50   S    
C27   C31   A    
Cr6   O38   S    
C134  H32   S    
C28   C32   A    
C136  O23   A    
Cr7   O43   S    
Cr6   O16   S    
C60   C86   S    
C120  C125  S    
Cr7   O13   S    
C72   H50   S    
C40   H67   S    
C58   H49   S    
Cr4   O35   S    
C62   C88   S    
C82   C91   A    
C44   H82   S    
C23   O7    A    
C55   H47   S    
C16   O48   A    
C1    C29   S    
C14   O46   A    
C6    C141  A    
C46   H40   S    
C66   C136  S    
C49   H94   S    
Cr11  O51   S    
C34   C54   S    
C20   O51   A    
C6    H21   S    
C10   H26   S    
C5    H20   S    
C18   C130  S    
C21   C139  S    
Cr3   O7    S    
C50   H96   S    
Cr3   O33   S    
C41   H70   S    
C87   O29   A    
C72   C73   A    
C43   H78   S    
C88   O26   A    
Cr12  O27   S    
C53   C58   S    
C14   C100  S    
C6    C7    A    
C104  C121  S    
C71   H58   S    
C33   C38   A    
Cr9   O10   S    
C48   H92   S    
C36   C55   S    
C16   C98   S    
Cr10  O47   S    
C22   O6    A    
C84   C93   A    
C137  O34   A    
C125  H15   S    
C3    C11   S    
C42   H73   S    
C85   O27   A    
C106  C124  S    
C50   H97   S    
C86   O28   A    
C31   C36   A    
C23   C141  S    
C103  C107  A    
C108  C126  S    
C22   O37   A    
C102  C119  A    
C110  C128  S    
C38   C62   A    
C70   H56   S    
C67   C77   A    
C43   C125  S    
C59   C85   S    
Cr9   O24   S    
C39   H63   S    
C47   H88   S    
C78   C80   A    
C57   O15   A    
C121  H7    S    
C92   C96   A    
C122  H8    S    
C69   C76   A    
C93   H61   S    
C67   C72   A    
C122  C127  S    
Cr6   O23   S    
C61   C87   S    
C139  C143  A    
C83   C84   A    
C31   C46   S    
C86   O24   A    
C23   O38   A    
C108  C130  A    
C120  H6    S    
C112  H24   S    
C41   H72   S    
C25   O39   A    
C115  C132  A    
C113  C130  A    
C30   C34   A    
C63   C82   A    
C126  H16   S    
C107  C125  S    
C24   H36   S    
Cr10  O11   S    
C25   O8    A    
C65   C84   A    
C24   C123  A    
C13   H34   S    
Cr1   O14   S    
C51   C53   S    
Cr10  O20   S    
C45   H83   S    
C26   C134  A    
Cr1   O36   S    
C99   C117  A    
C40   C113  S    
C15   O47   A    
Cr9   O19   S    
C21   O36   A    
C10   C144  S    
C32   C37   A    
Cr4   O8    S    
C110  C132  A    
C1    O18   A    
C111  C116  A    
C89   H60   S    
C113  C117  A    
C116  H90   S    
C26   C30   A    
C115  C119  A    
C135  O12   A    
Cr2   O2    S    
C93   C97   A    
Cr2   O28   S    
C105  C109  A    
C117  H2    S    
C85   O22   A    
Cr4   O13   S    
C52   H37   S    
C47   H86   S    
C54   H45   S    
C128  H18   S    
Cr7   O34   S    
C90   H1    S    
C49   H93   S    
Cr11  O21   S    
C4    C139  A    
Cr5   O41   S    
C17   O52   A    
C10   H30   S    
C105  C122  S    
Cr3   O3    S    
C64   C81   A    
C9    H25   S    
C10   C11   S    
C91   C95   A    
C124  H9    S    
Cr3   O29   S    
C4    C5    A    
Cr1   O9    S    
C135  O32   A    
C61   C112  A    
Cr12  O31   S    
C12   O40   A    
C114  C131  A    
C103  C120  S    
C51   H99   S    
C46   C49   S    
C54   H41   S    
Cr4   O4    S    
C63   C77   A    
C7    C140  A    
C98   C103  A    
Cr5   O37   S    
C24   C29   A    
C66   C83   A    
C38   C58   S    
C111  C129  A    
C3    C141  A    
C109  C131  A    
C13   C28   A    
C69   C73   A    
C2    C27   A    
C94   H46   S    
C35   H39   S    
C124  C128  S    
C81   C89   A    
C133  O1    A    
C99   C104  A    
C73   H51   S    
C79   O17   A    
C35   C54   S    
Cr5   O10   S    
C66   C78   A    
C35   C48   S    
C57   O19   A    
C121  H11   S    
C122  H12   S    
C70   C80   A    
C43   H77   S    
Cr1   O1    S    
C7    H22   S    
C40   H66   S    
C48   H89   S    
C50   H98   S    
C44   C126  S    
C25   C140  S    
C92   H62   S    
Cr7   O17   S    
Cr8   O22   S    
C42   H74   S    
C17   O45   A    
C138  C142  A    
C34   C59   A    
C100  C118  A    
C123  H35   S    
C104  C108  A    
C64   C133  S    
C75   H53   S    
C43   H76   S    
C3    C144  A    
C140  C144  A    
Cr1   O40   S    
Cr8   O9    S    
C22   C138  S    
C26   C79   S    
C47   H87   S    
C8    H23   S    
Cr2   O6    S    
C94   C95   A    
Cr8   O44   S    
C18   O2    A    
Cr2   O32   S    
Cr12  O5    S    
C49   H95   S    
C42   C115  S    
C18   O49   A    
C142  C143  A    
C39   H65   S    
Cr10  O25   S    
C8    C142  S    
Cr5   O12   S    
C127  H17   S    
C41   H71   S    
C2    H33   S    
C41   C114  S    
C44   H81   S    
C81   C82   A    
C5    C138  A    
C74   H52   S    
C28   C57   S    
C83   C92   A    
Cr12  O52   S    
C58   H44   S    
C100  C105  A    
C30   C35   S    
C11   H31   S    
C48   H91   S    
C9    H29   S    
Cr9   O49   S    
C55   H42   S    
C67   H54   S    
C137  O35   A    
C40   H69   S    
Cr2   O10   S    
Cr12  O9    S    
C15   O42   A    
C8    C9    S    
C96   H68   S    
Cr11  O48   S    
C56   H43   S    
C8    H28   S    
C12   O44   A    
C65   C80   A    
Cr8   O45   S    
C62   C123  A    
Cr11  O13   S    
C33   C53   S    
C74   C75   A    
C17   C129  S    
C39   H64   S    
C11   H27   S    
C76   C77   A    
Cr5   O15   S    
Cr3   O11   S    
C1    O14   A    
C2    C101  A    
C133  O31   A    
C4    H19   S    
C59   C90   A    
C63   C135  S    
C87   O25   A    
C12   C102  S    
C88   O30   A    
C98   C116  A    
C68   O20   A    
C79   O21   A    
C96   C97   A    
C64   C76   A    
C114  C118  A    
C20   O4    A    
C21   O5    A    
C95   H57   S    
C60   C101  A    
C45   H85   S    
C106  C110  A    
C15   C99   S    
C36   C60   A    
C37   C61   A    
C56   H48   S    
Cr11  O26   S    
C45   H84   S    
C121  C126  S    
Cr8   O18   S    
C71   C75   A    
C45   C127  S    
C51   H3    S    
C102  C106  A    
C101  H13   S    
C124  H14   S    
Cr6   O11   S    
C71   C78   A    
C52   C56   S    
