data_mof_unit_48965.cif
_audit_creation_date              2012-12-10T16:54:01-0500
_audit_creation_method            fapswitch 2.2
_symmetry_space_group_name_H-M    P1
_symmetry_Int_Tables_number       1
_space_group_crystal_system       triclinic
_cell_length_a                    9.735234
_cell_length_b                    10.925698
_cell_length_c                    13.491955
_cell_angle_alpha                 90.286477
_cell_angle_beta                  72.924233
_cell_angle_gamma                 89.637157
_cell_volume                      1371.73714201

loop_
_atom_site_label
_atom_site_type_symbol
_atom_type_description
_atom_site_fract_x
_atom_site_fract_y
_atom_site_fract_z
_atom_type_partial_charge
C1    C     C_R   0.497825 0.734467 0.504398 0.779912
C2    C     C_R   0.382668 0.540182 0.812368 -0.100472
C3    C     C_2   0.608869 0.066042 0.504153 -0.116410
C4    C     C_R   0.424148 0.512812 0.699289 0.803512
C5    C     C_2   0.505756 0.134210 0.484455 -0.253410
C6    C     C_2   0.609001 0.932997 0.492977 -0.251343
C7    C     C_2   0.488806 0.865506 0.522334 0.239054
C8    C     C_2   0.049752 0.560390 0.567090 -0.000134
C9    C     C_2   0.901979 0.576350 0.553529 0.065544
C10   C     C_R   0.501759 0.265654 0.496446 0.838495
C11   C     C_R   0.576663 0.498537 0.300439 0.779388
C12   C     C_R   0.442051 0.547705 0.977372 0.084889
C13   C     C_R   0.800650 0.502636 0.021063 -0.183984
C14   C     C_R   0.619439 0.501456 0.187102 -0.038542
C15   C     C_R   0.236432 0.550885 0.867524 -0.160438
C16   C     C_R   0.194103 0.567094 0.974606 -0.147816
C17   C     C_R   0.293946 0.560224 0.029581 -0.181947
C18   C     C_3   0.934826 0.364559 0.374610 0.163268
C19   C     C_3   0.044801 0.260436 0.341157 -0.407580
C20   C     C_3   0.078137 0.233136 0.225377 -0.914318
C21   C     C_R   0.486704 0.553220 0.867539 0.088232
C22   C     C_R   0.548056 0.532169 0.030035 0.070521
C23   C     C_R   0.695449 0.528780 0.972527 0.170147
C24   C     C_R   0.736822 0.556074 0.867671 -0.233361
C25   C     C_R   0.633543 0.574522 0.817482 -0.174025
C26   C     C_R   0.512665 0.516905 0.137566 -0.241375
C27   C     C_R   0.763614 0.490989 0.128223 -0.205007
Cl1   Cl    Cl    0.319689 0.923917 0.597448 -0.620939
Cu1   Cu    Cu3+1 0.361370 0.499980 0.499980 0.975709
Cu2   Cu    Cu3+1 0.638630 0.500020 0.500020 0.970634
H1    H     H_    0.847260 0.474533 0.164771 0.142699
H2    H     H_    0.154604 0.548432 0.827816 0.147634
H3    H     H_    0.251659 0.569169 0.112556 0.120704
H4    H     H_    0.082947 0.583186 0.016738 0.137126
H5    H     H_    0.671176 0.610816 0.740664 0.169849
H6    H     H_    0.698659 0.108101 0.523447 0.180902
H7    H     H_    0.975711 0.446202 0.325691 0.104263
H8    H     H_    0.834413 0.333349 0.360523 0.183607
H9    H     H_    0.146171 0.285086 0.358098 0.232663
H10   H     H_    0.001593 0.176669 0.385599 0.235578
H11   H     H_    0.978727 0.206491 0.206432 0.257456
H12   H     H_    0.422138 0.092886 0.457340 0.194805
H13   H     H_    0.156932 0.156494 0.203631 0.271961
H14   H     H_    0.125046 0.314881 0.179387 0.255584
H15   H     H_    0.712810 0.889321 0.458496 0.145274
H16   H     H_    0.071686 0.605153 0.632709 0.135069
H17   H     H_    0.138212 0.481632 0.430538 0.222552
H18   H     H_    0.839863 0.655855 0.589483 0.074698
H19   H     H_    0.849343 0.565697 0.824677 0.138206
H20   H     H_    0.911141 0.491204 0.975142 0.130908
H21   H     H_    0.402391 0.517131 0.184650 0.151295
N1    N     N_2   0.152660 0.501340 0.501130 -0.265149
N2    N     N_2   0.846520 0.501370 0.501160 -0.009759
O1    O     O_R   0.382960 0.678040 0.499980 -0.541331
O2    O     O_R   0.617100 0.678080 0.500020 -0.621838
O3    O     O_R   0.325800 0.499940 0.650950 -0.569914
O4    O     O_R   0.559930 0.499980 0.650990 -0.579822
O5    O     O_R   0.382900 0.321920 0.499980 -0.557899
O6    O     O_R   0.617040 0.321960 0.500020 -0.565225
O7    O     O_R   0.440070 0.500020 0.349010 -0.597737
O8    O     O_R   0.674200 0.500060 0.349050 -0.615699
O9    O     O_3   0.912376 0.390909 0.480844 -0.506663

loop_
_geom_bond_atom_site_label_1
_geom_bond_atom_site_label_2
_ccdc_geom_bond_type
C4    O4    A    
C12   C17   A    
C2    C4    S    
C23   C24   A    
H17   N1    S    
C6    H15   S    
C14   C27   A    
Cu1   Cu2   S    
Cu2   O2    S    
C8    N1    D    
C13   C27   A    
C19   C20   S    
Cu1   O7    S    
C5    H12   S    
C3    C6    S    
C16   H4    S    
Cu2   O6    S    
C3    C5    D    
C2    C21   A    
C20   H11   S    
C18   H8    S    
C15   H2    S    
C26   H21   S    
C14   C26   A    
C2    C15   A    
C6    C7    D    
C17   H3    S    
C3    H6    S    
C25   H5    S    
C1    O1    A    
C19   H9    S    
C13   H20   S    
C20   H14   S    
C18   H7    S    
Cu1   O5    S    
C10   O6    A    
C19   H10   S    
C1    O2    A    
C11   C14   S    
C8    H16   S    
Cu1   O3    S    
C9    N2    D    
Cu1   O1    S    
C22   C26   A    
C15   C16   A    
Cu2   O4    S    
C12   C22   A    
C5    C10   S    
C20   H13   S    
C24   C25   A    
C13   C23   A    
C9    H18   S    
Cu2   N2    S    
C18   C19   S    
N2    O9    S    
Cu2   O8    S    
C24   H19   S    
C21   C25   A    
C22   C23   A    
C18   O9    S    
C10   O5    A    
C1    C7    S    
C27   H1    S    
C12   C21   A    
C4    O3    A    
C7    Cl1   S    
C11   O7    A    
C16   C17   A    
C8    C9    S    
C11   O8    A    
Cu1   N1    S    
