data_mof_unit_29727.cif
_audit_creation_date              2012-12-11T15:39:00-0500
_audit_creation_method            fapswitch 2.2
_symmetry_space_group_name_H-M    P1
_symmetry_Int_Tables_number       1
_space_group_crystal_system       triclinic
_cell_length_a                    14.327243
_cell_length_b                    14.780039
_cell_length_c                    33.183363
_cell_angle_alpha                 97.506637
_cell_angle_beta                  90.422477
_cell_angle_gamma                 118.913876
_cell_volume                      6078.01434184

loop_
_atom_site_label
_atom_site_type_symbol
_atom_type_description
_atom_site_fract_x
_atom_site_fract_y
_atom_site_fract_z
_atom_type_partial_charge
C1    C     C_R   0.617205 0.909884 0.437014 0.542794
C2    C     C_R   0.741816 0.430338 0.188720 0.030766
C3    C     C_R   0.720332 0.882408 0.652049 -0.120456
C4    C     C_R   0.648910 0.777817 0.655438 0.022127
C5    C     C_R   0.635544 0.858932 0.584998 0.019541
C6    C     C_R   0.052214 0.781301 0.063788 0.544226
C7    C     C_R   0.744085 0.486917 0.066267 0.546114
C8    C     C_R   0.742736 0.789274 0.066309 0.553592
C9    C     C_R   0.019874 0.731128 0.946869 0.535343
C10   C     C_R   0.712309 0.438003 0.949145 0.533107
C11   C     C_R   0.741175 0.717605 0.945337 0.562384
C12   C     C_R   0.833394 0.454465 0.167605 -0.118529
C13   C     C_R   0.831953 0.465109 0.126518 -0.125256
C14   C     C_R   0.792418 0.376789 0.249833 -0.111197
C15   C     C_R   0.784837 0.365376 0.290882 -0.109558
C16   C     C_R   0.729918 0.405568 0.315480 0.027770
C17   C     C_R   0.688735 0.463108 0.299142 -0.109824
C18   C     C_R   0.696314 0.474502 0.258133 -0.109285
C19   C     C_R   0.745034 0.428390 0.232900 0.028822
C20   C     C_R   0.596231 0.332761 0.365736 -0.122141
C21   C     C_R   0.594665 0.206657 0.456893 0.540513
C22   C     C_R   0.564201 0.283745 0.399931 -0.132079
C23   C     C_R   0.747347 0.324081 0.417239 -0.010646
C24   C     C_R   0.778210 0.372911 0.382419 -0.095950
C25   C     C_R   0.702465 0.374112 0.355902 0.016676
C26   C     C_R   0.637499 0.274533 0.425125 0.035050
C27   C     C_R   0.244571 0.878162 0.393421 0.017338
C28   C     C_R   0.232891 0.959721 0.380742 -0.127436
C29   C     C_R   0.208949 0.957364 0.339620 -0.114066
C30   C     C_R   0.195730 0.873318 0.310801 0.038264
C31   C     C_R   0.200230 0.788699 0.323421 -0.109625
C32   C     C_R   0.295497 0.892807 0.434408 0.538900
C33   C     C_R   0.224276 0.790865 0.364517 -0.121593
C34   C     C_R   0.195557 0.807338 0.163291 -0.112552
C35   C     C_R   0.167626 0.785926 0.121416 -0.126569
C36   C     C_R   0.090560 0.900963 0.129553 -0.127807
C37   C     C_R   0.118093 0.921814 0.171546 -0.113194
C38   C     C_R   0.167103 0.871981 0.188569 0.039181
C39   C     C_1   0.177892 0.877329 0.231966 -0.026398
C40   C     C_1   0.185203 0.876767 0.268066 -0.025922
C41   C     C_R   0.110606 0.828873 0.104396 0.019668
C42   C     C_R   0.639417 0.877949 0.395466 -0.007332
C43   C     C_R   0.614067 0.904598 0.551475 0.540949
C44   C     C_R   0.565885 0.783692 0.370084 -0.036630
C45   C     C_R   0.578388 0.771104 0.327864 -0.009581
C46   C     C_R   0.664234 0.851541 0.311584 0.013080
C47   C     C_R   0.741465 0.939106 0.337230 -0.134154
C48   C     C_R   0.729733 0.951960 0.378690 -0.138865
C49   C     C_R   0.778239 0.920035 0.174422 -0.116302
C50   C     C_R   0.793181 0.907303 0.132994 -0.127992
C51   C     C_R   0.618073 0.752198 0.121312 -0.126048
C52   C     C_R   0.603265 0.765281 0.162665 -0.111334
C53   C     C_R   0.684936 0.846840 0.189382 0.038242
C54   C     C_R   0.590077 0.199805 0.570796 0.540740
C55   C     C_1   0.677180 0.849182 0.232364 -0.020919
C56   C     C_1   0.671382 0.849486 0.268418 -0.015791
C57   C     C_R   0.715136 0.820441 0.106429 0.021488
C58   C     C_R   0.625004 0.251851 0.613442 0.017185
C59   C     C_R   0.566461 0.292939 0.635127 -0.116296
C60   C     C_R   0.583239 0.318904 0.677538 -0.110703
C61   C     C_R   0.659121 0.304768 0.698516 0.036632
C62   C     C_R   0.723295 0.271587 0.676958 -0.117477
C63   C     C_R   0.706762 0.245675 0.634610 -0.130929
C64   C     C_R   0.763940 0.350626 0.844432 -0.115846
C65   C     C_R   0.287497 0.885987 0.548330 0.537700
C66   C     C_R   0.773293 0.374833 0.886849 -0.127744
C67   C     C_R   0.593255 0.350623 0.884835 -0.130236
C68   C     C_R   0.584174 0.326475 0.842411 -0.114740
C69   C     C_R   0.670897 0.330219 0.822160 0.041177
C70   C     C_1   0.667502 0.321318 0.778610 -0.031199
C71   C     C_1   0.664645 0.315117 0.742111 -0.031570
C72   C     C_R   0.689838 0.379902 0.907343 0.021347
C73   C     C_R   0.056758 0.747330 0.905958 0.024383
C74   C     C_R   0.076409 0.839018 0.891043 -0.134822
C75   C     C_R   0.085258 0.844379 0.849573 -0.123386
C76   C     C_R   0.738864 0.451873 0.106064 0.019973
C77   C     C_R   0.074232 0.758024 0.822371 0.033910
C78   C     C_R   0.060838 0.668644 0.837630 -0.121041
C79   C     C_R   0.052782 0.663547 0.879126 -0.123010
C80   C     C_R   0.129262 0.718612 0.754181 -0.115597
C81   C     C_R   0.135328 0.726270 0.712880 -0.111095
C82   C     C_R   0.088084 0.776771 0.694956 0.033793
C83   C     C_R   0.030534 0.815508 0.718406 -0.120233
C84   C     C_R   0.023467 0.806875 0.759729 -0.120189
C85   C     C_R   0.075069 0.760634 0.778144 0.032663
C86   C     C_R   0.159816 0.904362 0.646676 -0.126302
C87   C     C_R   0.645378 0.420783 0.126605 -0.122917
C88   C     C_R   0.209613 0.932796 0.610899 -0.033233
C89   C     C_R   0.151209 0.748965 0.586250 -0.025794
C90   C     C_R   0.103218 0.722722 0.622466 -0.131862
C91   C     C_R   0.112312 0.800592 0.653512 -0.000506
C92   C     C_R   0.213018 0.855886 0.581307 -0.011861
C93   C     C_R   0.717093 0.705211 0.900929 0.018326
C94   C     C_R   0.625193 0.618802 0.879882 -0.130863
C95   C     C_R   0.604678 0.611642 0.837867 -0.124952
C96   C     C_R   0.675705 0.691004 0.816739 0.028208
C97   C     C_R   0.770048 0.773534 0.837234 -0.117092
C98   C     C_R   0.646920 0.410195 0.167599 -0.117813
C99   C     C_R   0.790860 0.780323 0.878779 -0.118170
C100  C     C_R   0.575799 0.726175 0.763319 0.031931
C101  C     C_R   0.570414 0.748873 0.723329 0.032196
C102  C     C_R   0.641544 0.741741 0.695177 0.024435
C103  C     C_R   0.711875 0.706972 0.705975 -0.140832
C104  C     C_R   0.716071 0.683239 0.744882 -0.141974
C105  C     C_R   0.650630 0.694485 0.773992 0.024851
C106  C     C_R   0.575639 0.712057 0.622568 -0.123634
C107  C     C_R   0.568783 0.752373 0.587607 -0.125028
C108  C     C_R   0.714081 0.922762 0.616922 -0.127807
Cr1   Cr    Cr6+3 0.424820 0.846020 0.489780 1.064864
Cr2   Cr    Cr6+3 0.657880 0.078580 0.505700 1.007172
Cr3   Cr    Cr6+3 0.417280 0.075360 0.504550 1.041841
Cr4   Cr    Cr6+3 0.903360 0.812540 0.006510 1.005745
Cr5   Cr    Cr6+3 0.914630 0.587050 0.006280 1.005424
Cr6   Cr    Cr6+3 0.673560 0.582680 0.008540 1.010199
H1    H     H_    0.572324 0.409421 0.111569 0.130260
H2    H     H_    0.480101 0.247665 0.405242 0.133791
H3    H     H_    0.907354 0.469984 0.183323 0.107874
H4    H     H_    0.184085 0.730153 0.102814 0.125192
H5    H     H_    0.233746 0.768615 0.176221 0.112916
H6    H     H_    0.189747 0.723096 0.301269 0.119655
H7    H     H_    0.233054 0.727073 0.373203 0.148337
H8    H     H_    0.248227 0.028183 0.402181 0.127889
H9    H     H_    0.095692 0.971946 0.190926 0.108711
H10   H     H_    0.045854 0.934489 0.117425 0.124951
H11   H     H_    0.905411 0.489582 0.111513 0.131270
H12   H     H_    0.205253 0.023048 0.330121 0.110908
H13   H     H_    0.868908 0.960771 0.122449 0.122042
H14   H     H_    0.841727 0.983538 0.195050 0.106193
H15   H     H_    0.808650 0.000366 0.324848 0.115741
H16   H     H_    0.788599 0.023982 0.397136 0.139467
H17   H     H_    0.530637 0.708591 0.174101 0.120997
H18   H     H_    0.556464 0.684800 0.101512 0.123385
H19   H     H_    0.848823 0.397200 0.903190 0.124009
H20   H     H_    0.860891 0.407106 0.375100 0.110374
H21   H     H_    0.831305 0.353226 0.828926 0.103645
H22   H     H_    0.782500 0.260827 0.693009 0.107123
H23   H     H_    0.753308 0.214352 0.618847 0.129311
H24   H     H_    0.504055 0.299891 0.619597 0.154149
H25   H     H_    0.511641 0.310286 0.825320 0.105816
H26   H     H_    0.527626 0.354002 0.899608 0.123592
H27   H     H_    0.533741 0.345349 0.694066 0.115594
H28   H     H_    0.079833 0.904709 0.911117 0.116820
H29   H     H_    0.036240 0.591291 0.889672 0.124490
H30   H     H_    0.062507 0.641654 0.627305 0.115082
H31   H     H_    0.815988 0.319487 0.302717 0.105868
H32   H     H_    0.181929 0.697744 0.695395 0.105083
H33   H     H_    0.170665 0.683615 0.767662 0.097466
H34   H     H_    0.098350 0.915222 0.838664 0.102308
H35   H     H_    0.993406 0.854463 0.704950 0.104012
H36   H     H_    0.978997 0.837638 0.777393 0.097221
H37   H     H_    0.164813 0.964541 0.670550 0.113650
H38   H     H_    0.051497 0.600737 0.817289 0.100690
H39   H     H_    0.568628 0.558127 0.895911 0.126775
H40   H     H_    0.830263 0.340587 0.230893 0.105122
H41   H     H_    0.864325 0.845871 0.893716 0.130098
H42   H     H_    0.776969 0.933976 0.677444 0.109686
H43   H     H_    0.532020 0.546633 0.822145 0.109133
H44   H     H_    0.766412 0.701646 0.684566 0.122883
H45   H     H_    0.774475 0.660670 0.753036 0.128026
H46   H     H_    0.519876 0.631266 0.624953 0.118613
H47   H     H_    0.507961 0.701156 0.563345 0.133945
H48   H     H_    0.826187 0.834650 0.821226 0.103333
H49   H     H_    0.574515 0.388697 0.183098 0.112741
H50   H     H_    0.766204 0.005081 0.615800 0.124309
H51   H     H_    0.647188 0.495769 0.317739 0.118521
H52   H     H_    0.661626 0.517010 0.245853 0.120131
H53   H     H_    0.536152 0.332133 0.345512 0.117073
O1    O     O_R   0.318160 0.824460 0.443680 -0.500456
O2    O     O_R   0.645130 0.163230 0.552140 -0.507496
O3    O     O_R   0.498360 0.178430 0.555780 -0.491911
O4    O     O_R   0.328690 0.978040 0.538950 -0.484111
O5    O     O_3   0.499990 0.999990 0.500010 -0.245690
O6    O     O_R   0.828710 0.851830 0.052170 -0.515286
O7    O     O_R   0.005980 0.823990 0.047210 -0.500534
O8    O     O_R   0.031900 0.688850 0.050170 -0.515441
O9    O     O_R   0.830940 0.518420 0.048680 -0.498759
O10   O     O_R   0.668160 0.499860 0.053480 -0.515554
O11   O     O_R   0.689170 0.693840 0.050110 -0.494176
O12   O     O_R   0.525040 0.857250 0.449830 -0.482034
O13   O     O_R   0.803860 0.812940 0.962540 -0.514725
O14   O     O_R   0.982950 0.787950 0.964120 -0.520778
O15   O     O_R   0.007050 0.649970 0.960540 -0.518628
O16   O     O_R   0.807910 0.482370 0.965590 -0.503793
O17   O     O_R   0.643310 0.460980 0.963840 -0.527992
O18   O     O_R   0.666140 0.657800 0.967020 -0.498705
O19   O     O_3   0.830520 0.660760 0.007110 -0.257497
O20   O     O_R   0.684760 0.998800 0.456360 -0.522609
O21   O     O_R   0.647540 0.166310 0.470260 -0.503354
O22   O     O_R   0.500960 0.181750 0.467450 -0.519500
O23   O     O_R   0.331100 0.981120 0.457080 -0.505250
O24   O     O_R   0.315560 0.821140 0.532010 -0.495683
O25   O     O_R   0.522630 0.854180 0.531710 -0.497412
O26   O     O_R   0.682160 0.995480 0.544690 -0.517185
C109  C     C_3   0.832537 0.325322 0.444642 -0.372866
H54   H     H_    0.825854 0.351901 0.476840 0.146550
H55   H     H_    0.824472 0.246116 0.441470 0.155075
H56   H     H_    0.914183 0.379719 0.436715 0.127243
C110  C     C_1   0.476648 0.700937 0.386547 0.220658
N1    N     N_1   0.405316 0.634726 0.399595 -0.289484
C111  C     C_1   0.501562 0.677683 0.301056 0.192225
N2    N     N_1   0.440339 0.603166 0.279646 -0.316121
C112  C     C_1   0.259909 0.042239 0.606857 0.217112
N3    N     N_1   0.299381 0.129983 0.603764 -0.302854
C113  C     C_1   0.136385 0.663846 0.555172 0.218607
N4    N     N_1   0.124250 0.595538 0.530330 -0.297897
C114  C     C_3   0.491788 0.784428 0.711876 -0.397676
H57   H     H_    0.492704 0.798381 0.679884 0.147896
H58   H     H_    0.409053 0.723837 0.715898 0.122128
H59   H     H_    0.510592 0.858873 0.731511 0.130968
C115  C     C_3   0.505667 0.741883 0.794391 -0.399814
H60   H     H_    0.420109 0.688770 0.783905 0.121066
H61   H     H_    0.518553 0.726435 0.825058 0.144249
H62   H     H_    0.522113 0.824121 0.798224 0.132376

loop_
_geom_bond_atom_site_label_1
_geom_bond_atom_site_label_2
_ccdc_geom_bond_type
C65   C92   S    
C109  H55   S    
C21   C26   S    
C78   C79   A    
C44   C110  S    
C101  C102  A    
C10   O17   A    
C73   C74   A    
C54   O3    A    
Cr4   O7    S    
C95   C96   A    
C55   C56   T    
C2    C12   A    
C98   H49   S    
C18   H52   S    
C78   H38   S    
Cr5   O16   S    
C77   C78   A    
C27   C33   A    
C45   C111  S    
C108  H50   S    
Cr2   O21   S    
C100  C105  A    
C80   C85   A    
Cr6   O18   S    
C42   C44   A    
C47   H15   S    
C83   C84   A    
C106  C107  A    
C36   C37   A    
C36   H10   S    
C37   C38   A    
C67   C72   A    
C86   C91   A    
C54   C58   S    
C38   C39   S    
C60   H27   S    
Cr4   O19   S    
C86   C88   A    
C109  H56   S    
C6    O8    A    
Cr1   O25   S    
C15   C16   A    
C58   C63   A    
C18   C19   A    
C7    O10   A    
C34   C35   A    
C23   C26   A    
C62   H22   S    
C20   H53   S    
C34   H5    S    
C9    O15   A    
C37   H9    S    
C80   H33   S    
C79   H29   S    
C88   C92   A    
C111  N2    T    
Cr6   O11   S    
C6    C41   S    
C4    C102  S    
C113  N4    T    
C23   C24   A    
C31   C33   A    
C110  N1    T    
C51   C57   A    
C93   C99   A    
C87   H1    S    
C61   C62   A    
Cr1   O5    S    
Cr5   O8    S    
C87   C98   A    
C13   H11   S    
C11   C93   S    
C53   C55   S    
C109  H54   S    
C5    C43   S    
C64   H21   S    
C77   C85   S    
C59   C60   A    
C34   C38   A    
C29   H12   S    
C14   H40   S    
C33   H7    S    
C10   O16   A    
C63   H23   S    
C54   O2    A    
C48   H16   S    
C36   C41   A    
C69   C70   S    
C9    C73   S    
Cr2   O26   S    
C104  C105  A    
C97   C99   A    
C81   C82   A    
C1    O20   A    
C66   C72   A    
Cr2   O20   S    
C74   C75   A    
C32   O23   A    
C67   C68   A    
C65   O24   A    
C22   H2    S    
C24   C25   A    
C112  N3    T    
C39   C40   T    
C15   H31   S    
C114  H57   S    
C16   C17   A    
C6    O7    A    
C59   H24   S    
C58   C59   A    
C45   C46   A    
C4    C106  A    
C82   C83   A    
C82   C91   S    
C51   C52   A    
C99   H41   S    
C60   C61   A    
C64   C66   A    
C96   C97   A    
C29   C30   A    
Cr1   O1    S    
C8    C57   S    
C66   H19   S    
Cr1   O12   S    
C21   O22   A    
C47   C48   A    
C13   C76   A    
Cr6   O10   S    
C7    O9    A    
C62   C63   A    
C17   C18   A    
C73   C79   A    
C30   C40   S    
C94   C95   A    
C93   C94   A    
C42   C48   A    
C64   C69   A    
C84   C85   A    
C89   C92   A    
C67   H26   S    
C75   C77   A    
C76   C87   A    
C70   C71   T    
Cr5   O9    S    
Cr4   O14   S    
C65   O4    A    
C43   O25   A    
C81   H32   S    
C115  H61   S    
C32   O1    A    
C22   C26   A    
C75   H34   S    
C49   C50   A    
C10   C72   S    
C104  H45   S    
C3    C4    A    
Cr5   O15   S    
C107  H47   S    
C103  C104  A    
C50   C57   A    
C52   C53   A    
C96   C105  S    
C5    C107  A    
C24   H20   S    
C16   C25   S    
C49   H14   S    
C46   C47   A    
C28   C29   A    
C2    C19   S    
C95   H43   S    
C52   H17   S    
C14   C19   A    
C68   C69   A    
C44   C45   A    
C20   C22   A    
C80   C81   A    
C35   H4    S    
C51   H18   S    
C103  H44   S    
Cr3   O22   S    
C7    C76   S    
C50   H13   S    
C3    C108  A    
C115  H62   S    
Cr6   O19   S    
Cr4   O13   S    
C43   O26   A    
Cr3   O3    S    
C106  H46   S    
C17   H51   S    
C86   H37   S    
Cr3   O5    S    
C1    O12   A    
C114  H59   S    
C61   C71   S    
C90   C91   A    
C30   C31   A    
Cr1   O24   S    
C94   H39   S    
Cr6   O17   S    
Cr5   O19   S    
C23   C109  S    
C100  C115  S    
C3    H42   S    
C11   O18   A    
Cr4   O6    S    
C28   H8    S    
C115  H60   S    
C74   H28   S    
C102  C103  A    
C35   C41   A    
C31   H6    S    
C21   O21   A    
C49   C53   A    
C9    O14   A    
C101  C114  S    
C27   C32   S    
C12   H3    S    
Cr2   O2    S    
C8    O11   A    
C1    C42   S    
C89   C113  S    
C12   C13   A    
C2    C98   A    
Cr3   O23   S    
C97   H48   S    
C20   C25   A    
C46   C56   S    
C27   C28   A    
C14   C15   A    
C68   H25   S    
C100  C101  A    
C11   O13   A    
C8    O6    A    
C88   C112  S    
C89   C90   A    
C114  H58   S    
C5    C108  A    
C90   H30   S    
Cr2   O5    S    
C83   H35   S    
Cr3   O4    S    
C84   H36   S    
