data_mof_unit_39331.cif
_audit_creation_date              2012-12-10T17:55:51-0500
_audit_creation_method            fapswitch 2.2
_symmetry_space_group_name_H-M    P1
_symmetry_Int_Tables_number       1
_space_group_crystal_system       triclinic
_cell_length_a                    11.1479
_cell_length_b                    10.776992
_cell_length_c                    9.594902
_cell_angle_alpha                 88.624067
_cell_angle_beta                  101.80447
_cell_angle_gamma                 92.381001
_cell_volume                      1127.24469299

loop_
_atom_site_label
_atom_site_type_symbol
_atom_type_description
_atom_site_fract_x
_atom_site_fract_y
_atom_site_fract_z
_atom_type_partial_charge
C1    C     C_R   0.500620 0.262586 0.501490 0.783617
C2    C     C_R   0.498571 0.737365 0.498475 0.790855
C3    C     C_R   0.264350 0.501932 0.442801 0.857721
C4    C     C_R   0.736133 0.498300 0.556735 0.857655
C5    C     C_R   0.427196 0.418121 0.061625 -0.034196
C6    C     C_R   0.575594 0.579248 0.939130 -0.024348
C7    C     C_R   0.422895 0.419371 0.912771 0.220973
C8    C     C_R   0.573128 0.584204 0.086055 0.248628
C9    C     C_2   0.131901 0.491908 0.411522 -0.374772
C10   C     C_2   0.869523 0.507460 0.584664 -0.389472
C11   C     C_2   0.064151 0.528194 0.503236 -0.057241
C12   C     C_2   0.933418 0.487697 0.482268 -0.044143
C13   C     C_R   0.419110 0.065470 0.395510 -0.222831
C14   C     C_R   0.578439 0.934395 0.605419 -0.236951
C15   C     C_R   0.415668 0.936681 0.392598 -0.021207
C16   C     C_R   0.579983 0.062993 0.610302 -0.011698
C17   C     C_R   0.497611 0.871314 0.496867 -0.074387
C18   C     C_R   0.500336 0.128568 0.503766 -0.069674
Cu1   Cu    Cu3+1 0.500000 0.500020 0.640660 0.955611
Cu2   Cu    Cu3+1 0.500000 0.499980 0.359340 0.953001
H1    H     H_    0.370106 0.352694 0.108408 0.144630
H2    H     H_    0.636933 0.640868 0.893525 0.139884
H3    H     H_    0.914967 0.541965 0.688263 0.155542
H4    H     H_    0.091007 0.442910 0.314856 0.153320
H5    H     H_    0.356454 0.116873 0.315331 0.139520
H6    H     H_    0.641256 0.883031 0.685407 0.143333
N1    N     N_R   0.500030 0.500030 0.852080 -0.191431
N2    N     N_R   0.499970 0.499970 0.147920 -0.193304
O1    O     O_R   0.499990 0.319660 0.618740 -0.599489
O2    O     O_R   0.500010 0.680340 0.381260 -0.598247
O3    O     O_R   0.499990 0.319630 0.381170 -0.579560
O4    O     O_R   0.500010 0.680370 0.618830 -0.579597
O5    O     O_R   0.320690 0.500020 0.575130 -0.584477
O6    O     O_R   0.679310 0.499980 0.424870 -0.589179
O7    O     O_R   0.320680 0.499990 0.337560 -0.574544
O8    O     O_R   0.679320 0.500010 0.662440 -0.573526
C19   C     C_1   0.876820 0.422419 0.352223 0.299486
N3    N     N_1   0.832138 0.370650 0.249080 -0.281693
C20   C     C_1   0.116877 0.611430 0.619232 0.285139
N4    N     N_1   0.158751 0.677594 0.711260 -0.283068
C21   C     C_3   0.331768 0.325932 0.829522 -0.381141
C22   C     C_3   0.197641 0.349838 0.838545 -0.379930
C23   C     C_3   0.139978 0.244428 0.915118 -0.811631
H7    H     H_    0.140054 0.155773 0.858414 0.261383
H8    H     H_    0.190847 0.233391 0.026568 0.241473
H9    H     H_    0.043606 0.265506 0.916772 0.262332
H10   H     H_    0.190666 0.438755 0.892323 0.235717
H11   H     H_    0.141393 0.357863 0.729137 0.228753
H12   H     H_    0.334586 0.323870 0.716969 0.238170
H13   H     H_    0.357935 0.231411 0.870899 0.182859
C24   C     C_3   0.653124 0.687119 0.166546 -0.387809
C25   C     C_3   0.594030 0.814705 0.141131 -0.343861
C26   C     C_3   0.609367 0.878851 0.001685 -0.820564
H14   H     H_    0.706232 0.878271 0.989299 0.252199
H15   H     H_    0.548701 0.833140 0.909576 0.256623
H16   H     H_    0.582408 0.976902 0.001800 0.252897
H17   H     H_    0.494831 0.804706 0.141983 0.249402
H18   H     H_    0.637329 0.876466 0.230111 0.218049
H19   H     H_    0.674832 0.669079 0.281142 0.228221
H20   H     H_    0.744235 0.691512 0.135926 0.169350
C27   C     C_1   0.323223 0.873966 0.287278 0.215560
N5    N     N_1   0.249127 0.823682 0.203071 -0.270679
C28   C     C_1   0.666875 0.125270 0.721812 0.236619
N6    N     N_1   0.736422 0.175135 0.811097 -0.273874

loop_
_geom_bond_atom_site_label_1
_geom_bond_atom_site_label_2
_ccdc_geom_bond_type
C6    C8    A    
C11   C12   S    
C4    O8    A    
C9    H4    S    
C19   N3    T    
C3    C9    S    
C16   C28   S    
C10   H3    S    
C5    N2    A    
Cu1   N1    S    
C21   C22   S    
C6    N1    A    
C8    C24   S    
C12   C19   S    
C3    O7    A    
C23   H7    S    
Cu2   O6    S    
C13   C15   A    
C15   C27   S    
C7    N1    A    
C24   C25   S    
C23   H8    S    
C16   C18   A    
C22   H11   S    
C26   H14   S    
C14   H6    S    
C2    C17   S    
C11   C20   S    
C9    C11   D    
C14   C17   A    
C13   H5    S    
C1    C18   S    
C10   C12   D    
C13   C18   A    
Cu1   O4    S    
C21   H12   S    
C4    O6    A    
C22   H10   S    
C26   H15   S    
Cu1   O5    S    
C27   N5    T    
C8    N2    A    
C23   H9    S    
C14   C16   A    
C24   H19   S    
C22   C23   S    
C1    O1    A    
C4    C10   S    
C28   N6    T    
C6    H2    S    
C21   H13   S    
C1    O3    A    
C5    H1    S    
C25   C26   S    
C2    O4    A    
C25   H17   S    
C26   H16   S    
C20   N4    T    
C15   C17   A    
C3    O5    A    
C5    C7    A    
C2    O2    A    
Cu2   O2    S    
C24   H20   S    
Cu2   N2    S    
Cu1   O8    S    
C25   H18   S    
Cu2   O7    S    
Cu1   Cu2   S    
C7    C21   S    
Cu2   O3    S    
Cu1   O1    S    
