data_mof_unit_7107.cif
_audit_creation_date              2012-12-10T17:02:19-0500
_audit_creation_method            fapswitch 2.2
_symmetry_space_group_name_H-M    P1
_symmetry_Int_Tables_number       1
_space_group_crystal_system       triclinic
_cell_length_a                    10.641472
_cell_length_b                    10.691557
_cell_length_c                    10.075951
_cell_angle_alpha                 89.480047
_cell_angle_beta                  88.212648
_cell_angle_gamma                 91.212088
_cell_volume                      1145.51179575

loop_
_atom_site_label
_atom_site_type_symbol
_atom_type_description
_atom_site_fract_x
_atom_site_fract_y
_atom_site_fract_z
_atom_type_partial_charge
C1    C     C_R   0.492706 0.262801 0.500733 0.922371
C2    C     C_2   0.467383 0.131723 0.504000 -0.319030
C3    C     C_2   0.571983 0.572298 0.924445 0.538015
C4    C     C_R   0.260652 0.499370 0.502112 0.876139
C5    C     C_2   0.590505 0.548587 0.071299 -0.001666
C6    C     C_R   0.495301 0.737058 0.499795 0.983313
C7    C     C_R   0.739471 0.507192 0.497781 0.971781
C8    C     C_R   0.136012 0.714354 0.608523 -0.209378
C9    C     C_R   0.075785 0.822808 0.648377 0.042353
C10   C     C_R   0.947490 0.836198 0.623645 0.028695
C11   C     C_R   0.881548 0.739561 0.560158 0.550752
C12   C     C_R   0.068555 0.613270 0.552682 -0.063421
C13   C     C_R   0.938792 0.622545 0.536898 -0.071563
C14   C     C_3   0.589227 0.783126 0.899053 -0.319284
C15   C     C_3   0.791879 0.824536 0.381611 -0.353689
C16   C     C_R   0.128099 0.504369 0.506872 -0.037423
C17   C     C_R   0.061537 0.402652 0.455440 0.089168
C18   C     C_R   0.932944 0.408251 0.450421 -0.273400
C19   C     C_R   0.872524 0.515701 0.491836 -0.090424
C20   C     C_2   0.450601 0.931976 0.395950 -0.221662
C21   C     C_2   0.493451 0.869395 0.499799 -0.271449
C22   C     C_2   0.458902 0.066993 0.391859 -0.152109
H1    H     H_    0.452041 0.089413 0.601542 0.151349
H2    H     H_    0.603541 0.801961 0.005921 0.131781
H3    H     H_    0.487491 0.787141 0.876768 0.162217
H4    H     H_    0.638575 0.858949 0.840850 0.203010
H5    H     H_    0.376916 0.381136 0.940415 0.158692
H6    H     H_    0.534701 0.343012 0.960328 0.165834
H7    H     H_    0.774954 0.604469 0.053034 0.194147
H8    H     H_    0.692507 0.666209 0.180097 0.194954
H9    H     H_    0.107395 0.939873 0.801143 0.182376
H10   H     H_    0.145254 0.000694 0.648538 0.185434
H11   H     H_    0.888645 0.963027 0.758797 0.178456
H12   H     H_    0.413331 0.496918 0.108942 0.139415
H13   H     H_    0.929259 0.024077 0.607001 0.165700
H14   H     H_    0.702119 0.838114 0.331448 0.196997
H15   H     H_    0.852052 0.766448 0.315185 0.150548
H16   H     H_    0.836104 0.918828 0.393051 0.174318
H17   H     H_    0.236028 0.710821 0.622709 0.175328
H18   H     H_    0.879742 0.327776 0.415948 0.141386
H19   H     H_    0.416888 0.883713 0.309052 0.165575
H20   H     H_    0.533593 0.913974 0.585318 0.166774
H21   H     H_    0.463231 0.112479 0.294908 0.172606
H22   H     H_    0.103770 0.277341 0.312596 0.188744
H23   H     H_    0.088680 0.216236 0.467784 0.169844
N1    N     N_2   0.501340 0.501330 0.852150 -0.111626
N2    N     N_2   0.501380 0.501360 0.147810 -0.216053
N3    N     N_3   0.124879 0.292430 0.411913 -0.461601
N4    N     N_3   0.467870 0.381070 0.898450 -0.393852
N5    N     N_3   0.707667 0.583677 0.128188 -0.387087
N6    N     N_3   0.148278 0.920378 0.708175 -0.463555
N7    N     N_3   0.883480 0.948990 0.656588 -0.435051
O1    O     O_R   0.499980 0.319060 0.613040 -0.601979
O2    O     O_3   0.767359 0.765580 0.506319 -0.607360
O3    O     O_R   0.500020 0.319100 0.386900 -0.610735
O4    O     O_R   0.316750 0.499980 0.613090 -0.630943
O5    O     O_R   0.316790 0.500020 0.386950 -0.615454
O6    O     O_R   0.499980 0.680900 0.613100 -0.580696
O7    O     O_R   0.500020 0.680940 0.386960 -0.628801
O8    O     O_R   0.683210 0.499980 0.613050 -0.573584
O9    O     O_R   0.683250 0.500020 0.386910 -0.595830
O10   O     O_3   0.640504 0.667945 0.860909 -0.575565
Zn1   Zn    Zn3+2 0.499970 0.499970 0.650990 1.009828
Zn2   Zn    Zn3+2 0.500030 0.500030 0.349010 0.946370

loop_
_geom_bond_atom_site_label_1
_geom_bond_atom_site_label_2
_ccdc_geom_bond_type
C4    O5    A    
C2    C22   D    
O9    Zn2   S    
C15   H16   S    
C4    C16   S    
C8    H17   S    
C11   C13   A    
C9    C10   A    
C6    O6    A    
C3    N1    D    
C22   H21   S    
C9    N6    S    
C17   N3    S    
N1    Zn1   S    
C8    C12   A    
C10   N7    S    
O3    Zn2   S    
C2    H1    S    
C17   C18   A    
H8    N5    S    
O4    Zn1   S    
H10   N6    S    
C15   H15   S    
C14   H4    S    
H11   N7    S    
C12   C13   A    
O1    Zn1   S    
N1    N4    S    
O7    Zn2   S    
C7    O9    A    
C11   O2    S    
O8    Zn1   S    
C1    C2    S    
C5    N2    D    
C20   C22   S    
C20   H19   S    
C7    C19   S    
H7    N5    S    
C14   H3    S    
C1    O3    A    
C5    N5    S    
H23   N3    S    
C16   C17   A    
C10   C11   A    
C13   C19   A    
H5    N4    S    
C21   H20   S    
C14   O10   S    
C15   O2    S    
C12   C16   A    
C7    O8    A    
O6    Zn1   S    
C20   C21   D    
O5    Zn2   S    
C18   C19   A    
H6    N4    S    
C3    O10   S    
C14   H2    S    
N2    Zn2   S    
C18   H18   S    
H13   N7    S    
C1    O1    A    
H12   N2    S    
C15   H14   S    
C6    C21   S    
C6    O7    A    
C4    O4    A    
H22   N3    S    
H9    N6    S    
C8    C9    A    
C3    C5    S    
