data_mof_unit_39159.cif
_audit_creation_date              2012-10-26T20:18:16-0400
_audit_creation_method            fapswitch 2.2
_symmetry_space_group_name_H-M    P1
_symmetry_Int_Tables_number       1
_space_group_crystal_system       triclinic
_cell_length_a                    23.451431
_cell_length_b                    8.725476
_cell_length_c                    7.47435
_cell_angle_alpha                 103.22315
_cell_angle_beta                  94.600466
_cell_angle_gamma                 92.706086
_cell_volume                      1480.69948554

loop_
_atom_site_label
_atom_site_type_symbol
_atom_type_description
_atom_site_fract_x
_atom_site_fract_y
_atom_site_fract_z
_atom_type_partial_charge
C1    C     C_R   0.496528 0.200031 0.453853 0.553555
C2    C     C_R   0.698513 0.573463 0.378050 -0.213796
C3    C     C_R   0.238348 0.367248 0.520438 -0.071375
C4    C     C_R   0.757733 0.573384 0.374349 -0.099792
C5    C     C_R   0.209573 0.498715 0.492321 0.177980
C6    C     C_R   0.789617 0.491120 0.482975 0.194495
C7    C     C_2   0.488550 0.032105 0.432526 0.240460
C8    C     C_2   0.511440 0.967918 0.567589 0.240519
C9    C     C_R   0.391376 0.500042 0.501747 0.545835
C10   C     C_R   0.608738 0.498145 0.497923 0.564670
C11   C     C_R   0.883129 0.623919 0.580166 0.414753
C12   C     C_R   0.503553 0.799964 0.546145 0.548601
C13   C     C_R   0.114680 0.372672 0.378162 0.412966
C14   C     C_R   0.874599 0.364490 0.383644 0.390769
C15   C     C_R   0.123411 0.621168 0.597175 0.392587
C16   C     C_R   0.934256 0.363055 0.382985 -0.026349
C17   C     C_R   0.063716 0.626134 0.589740 -0.022946
C18   C     C_R   0.968850 0.496244 0.483122 -0.085859
C19   C     C_R   0.029066 0.495668 0.484252 -0.084831
C20   C     C_R   0.943326 0.629460 0.582753 0.033106
C21   C     C_R   0.054590 0.364508 0.380996 0.034987
C22   C     C_R   0.959798 0.230780 0.286474 -0.137322
C23   C     C_R   0.241662 0.632837 0.472067 -0.030113
C24   C     C_R   0.038286 0.758668 0.686347 -0.134328
C25   C     C_R   0.019367 0.229657 0.285061 0.247764
C26   C     C_R   0.978683 0.763141 0.680968 0.245250
C27   C     C_3   0.047555 0.985689 0.293309 0.015247
C28   C     C_3   0.077322 0.845218 0.190933 -0.317871
C29   C     C_3   0.953727 0.011336 0.679412 0.024771
C30   C     C_3   0.924520 0.152236 0.783453 -0.320460
C31   C     C_3   0.350785 0.849677 0.683163 0.001218
C32   C     C_3   0.350764 0.027484 0.715695 -0.344637
C33   C     C_3   0.692722 0.369981 0.896055 0.000093
C34   C     C_R   0.762283 0.408996 0.595825 -0.051750
C35   C     C_3   0.712109 0.228308 0.965868 -0.339761
C36   C     C_R   0.301480 0.638348 0.487838 0.242994
C37   C     C_R   0.702828 0.412571 0.605360 0.244594
C38   C     C_R   0.329475 0.502842 0.505225 0.018976
C39   C     C_R   0.670859 0.493874 0.493342 0.019662
C40   C     C_R   0.297775 0.368100 0.521489 -0.186992
Cu1   Cu    Cu3+1 0.506340 0.517380 0.684380 1.099671
Cu2   Cu    Cu3+1 0.493660 0.482620 0.315620 1.111188
H1    H     H_    0.933689 0.126986 0.210478 0.186233
H2    H     H_    0.073711 0.037011 0.426804 0.135466
H3    H     H_    0.118725 0.885422 0.148634 0.206874
H4    H     H_    0.085795 0.762938 0.281721 0.099993
H5    H     H_    0.049465 0.781076 0.067014 0.169329
H6    H     H_    0.928619 0.965394 0.542844 0.144487
H7    H     H_    0.997743 0.053106 0.658567 0.106992
H8    H     H_    0.951589 0.211089 0.911325 0.168066
H9    H     H_    0.918512 0.238787 0.696840 0.101035
H10   H     H_    0.881939 0.113643 0.819142 0.196248
H11   H     H_    0.395166 0.818332 0.714416 0.171210
H12   H     H_    0.064515 0.860655 0.766427 0.187114
H13   H     H_    0.323278 0.813705 0.784187 0.144400
H14   H     H_    0.306515 0.060944 0.686145 0.158938
H15   H     H_    0.365348 0.081727 0.862270 0.109181
H16   H     H_    0.380025 0.071074 0.625837 0.171339
H17   H     H_    0.655400 0.415057 0.969645 0.186384
H18   H     H_    0.727678 0.466273 0.934205 0.105303
H19   H     H_    0.750273 0.182668 0.897735 0.168891
H20   H     H_    0.723471 0.263136 0.117340 0.149124
H21   H     H_    0.677045 0.133356 0.935430 0.176886
H22   H     H_    0.437618 0.009889 0.205722 0.325029
H23   H     H_    0.220351 0.735647 0.451125 0.161585
H24   H     H_    0.562099 0.990354 0.795018 0.327808
H25   H     H_    0.423291 0.306942 0.007861 0.317957
H26   H     H_    0.576220 0.695932 0.993777 0.319178
H27   H     H_    0.787315 0.342603 0.675925 0.123556
H28   H     H_    0.319209 0.263946 0.534331 0.116594
H29   H     H_    0.674314 0.637385 0.292777 0.145552
H30   H     H_    0.214692 0.263566 0.539775 0.159430
H31   H     H_    0.778909 0.636601 0.286627 0.142657
H32   H     H_    0.004541 0.941810 0.320608 0.106621
N1    N     N_R   0.850557 0.493301 0.481408 -0.400148
N2    N     N_R   0.147937 0.497562 0.488977 -0.396986
N3    N     N_2   0.484110 0.456420 0.038520 0.111648
N4    N     N_2   0.515890 0.543580 0.961480 0.106526
O1    O     O_R   0.504120 0.286130 0.619770 -0.414523
O2    O     O_2   0.139712 0.258261 0.263565 -0.453472
O3    O     O_2   0.840760 0.238243 0.287766 -0.518610
O4    O     O_2   0.156663 0.738581 0.713557 -0.517740
O5    O     O_3   0.042408 0.097628 0.184014 -0.498367
O6    O     O_3   0.955737 0.894823 0.783108 -0.499429
O7    O     O_3   0.331864 0.779700 0.496027 -0.547654
O8    O     O_3   0.674623 0.321552 0.705017 -0.529233
O9    O     O_3   0.454719 0.940863 0.281029 -0.683729
O10   O     O_3   0.545088 0.059282 0.719442 -0.684130
O11   O     O_3   0.443933 0.359401 0.925566 -0.582413
O12   O     O_R   0.495880 0.713870 0.380230 -0.406545
O13   O     O_3   0.555793 0.641531 0.074937 -0.588351
O14   O     O_R   0.493410 0.256770 0.308360 -0.548345
O15   O     O_R   0.506590 0.743230 0.691640 -0.561762
O16   O     O_R   0.423230 0.514630 0.655730 -0.482304
O17   O     O_R   0.576770 0.485370 0.344270 -0.482895
O18   O     O_R   0.412530 0.485280 0.344320 -0.506921
O19   O     O_R   0.587470 0.514720 0.655680 -0.500762
O20   O     O_2   0.857022 0.746746 0.676330 -0.451842

loop_
_geom_bond_atom_site_label_1
_geom_bond_atom_site_label_2
_ccdc_geom_bond_type
C30   H9    S    
C28   H5    S    
C31   O7    S    
C34   C37   A    
Cu1   Cu2   S    
C32   H16   S    
C7    C8    D    
C29   H7    S    
N3    N4    D    
C28   H4    S    
C40   H28   S    
C11   O20   S    
Cu2   O18   S    
C12   O12   A    
C19   C21   A    
C24   C26   A    
H24   O10   S    
C24   H12   S    
H25   O11   S    
H26   O13   S    
C18   C19   A    
Cu1   O19   S    
C21   C25   A    
C17   C19   A    
C27   H2    S    
Cu1   O15   S    
C31   C32   S    
C22   C25   A    
C16   C22   A    
C27   H32   S    
H22   O9    S    
Cu2   O14   S    
C15   N2    A    
C30   H8    S    
C13   O2    S    
C33   H17   S    
C32   H15   S    
C2    C39   A    
C15   O4    S    
C28   H3    S    
C7    O9    S    
C11   C20   A    
C17   C24   A    
C29   H6    S    
Cu2   O17   S    
C37   O8    S    
C6    N1    S    
C29   O6    S    
C4    C6    A    
Cu1   N4    S    
C6    C34   A    
C10   C39   S    
Cu2   O12   S    
C10   O19   A    
C2    C4    A    
C33   O8    S    
C29   C30   S    
Cu1   O16   S    
C5    C23   A    
C13   N2    A    
C8    C12   S    
N3    O11   S    
C13   C21   A    
C35   H19   S    
C31   H11   S    
C9    O18   A    
C4    H31   S    
C3    C40   A    
C33   H18   S    
N4    O13   S    
C14   C16   A    
C12   O15   A    
C2    H29   S    
C15   C17   A    
C30   H10   S    
C26   O6    S    
C1    C7    S    
C34   H27   S    
C3    C5    A    
Cu1   O1    S    
C36   O7    S    
C1    O14   A    
C31   H13   S    
C14   N1    A    
C23   H23   S    
C5    N2    S    
C36   C38   A    
C3    H30   S    
C37   C39   A    
C11   N1    A    
C38   C40   A    
C20   C26   A    
C10   O17   A    
C1    O1    A    
C27   O5    S    
C9    C38   S    
C33   C35   S    
C35   H20   S    
C18   C20   A    
Cu2   N3    S    
C16   C18   A    
C23   C36   A    
C27   C28   S    
C25   O5    S    
C35   H21   S    
C14   O3    S    
C8    O10   S    
C9    O16   A    
C32   H14   S    
C22   H1    S    
