data_mof_unit_62107.cif
_audit_creation_date              2013-03-05T15:40:10-0500
_audit_creation_method            fapswitch 2.2
_symmetry_space_group_name_H-M    P1
_symmetry_Int_Tables_number       1
_space_group_crystal_system       triclinic
_cell_length_a                    8.412197
_cell_length_b                    15.211135
_cell_length_c                    17.24722
_cell_angle_alpha                 94.538044
_cell_angle_beta                  95.009883
_cell_angle_gamma                 99.241947
_cell_volume                      2160.20894049

loop_
_atom_site_label
_atom_site_type_symbol
_atom_site_description
_atom_site_fract_x
_atom_site_fract_y
_atom_site_fract_z
_atom_type_partial_charge
P1    P     P_3+3 0.017890 0.428700 0.326140 0.532356
O1    O     O_2   0.849470 0.455720 0.314640 -0.364095
O2    O     O_3   0.110000 0.453900 0.408940 -0.325217
O3    O     O_3   0.647080 0.618870 0.362820 -0.361044
O4    O     O_2   0.732170 0.556173 0.226704 -0.357717
O5    O     O_3   0.979797 0.310668 0.317336 -0.625866
O6    O     O_3   0.675331 0.718708 0.232297 -0.496837
H1    H     H_    0.494977 0.768420 0.288463 0.060334
C1    C     C_3   0.600628 0.862874 0.210914 0.568648
P2    P     P_3+3 0.687140 0.705880 0.561850 0.526159
P3    P     P_3+3 0.127025 0.778060 0.397696 0.613144
O7    O     O_2   0.860230 0.719810 0.539220 -0.333243
O8    O     O_3   0.074870 0.664270 0.401430 -0.421178
O9    O     O_2   0.003659 0.821905 0.442392 -0.272382
O10   O     O_3   0.694012 0.739340 0.662420 -0.593508
O11   O     O_3   0.086915 0.799588 0.300081 -0.403695
C2    C     C_3   0.094446 0.722138 0.251180 0.446126
H2    H     H_    0.998929 0.666419 0.261855 0.134082
H3    H     H_    0.214819 0.701692 0.260943 -0.058638
C3    C     C_3   0.064951 0.739821 0.165976 -0.682530
H4    H     H_    0.943000 0.757604 0.154333 0.296829
H5    H     H_    0.157068 0.795082 0.151554 0.284627
C4    C     C_3   0.339896 0.736456 0.675647 0.208152
H6    H     H_    0.432675 0.721550 0.719203 0.162291
H7    H     H_    0.366922 0.718262 0.615361 0.048945
C5    C     C_3   0.334308 0.837950 0.687821 0.509233
Ba1   Ba    Ba6+2 0.849890 0.543710 0.463630 1.716724
C6    C     C_3   0.828788 0.275713 0.275756 0.664567
H8    H     H_    0.735710 0.306239 0.302695 0.125383
C7    C     C_3   0.788729 0.175607 0.282828 -0.798692
H9    H     H_    0.857973 0.137730 0.244325 0.285670
H10   H     H_    0.657746 0.151765 0.265177 0.261712
H11   H     H_    0.817759 0.161423 0.344086 0.216143
C8    C     C_3   0.793945 0.700732 0.714533 0.463400
H12   H     H_    0.874814 0.661371 0.684844 0.073379
C9    C     C_3   0.889686 0.777054 0.772337 0.000749
H13   H     H_    0.980993 0.817929 0.742687 0.153787
H14   H     H_    0.806312 0.821821 0.792036 0.210677
P4    P     P_3+3 0.171830 0.571380 0.673870 0.558194
O12   O     O_2   0.340240 0.544310 0.685400 -0.351563
O13   O     O_3   0.079710 0.546180 0.591070 -0.341581
O14   O     O_3   0.542640 0.381210 0.637190 -0.296081
O15   O     O_3   0.189148 0.688892 0.688637 -0.558281
P5    P     P_3+3 0.064919 0.217105 0.586006 0.577801
O16   O     O_3   0.602990 0.392320 0.460230 -0.304194
O17   O     O_3   0.114850 0.335810 0.598580 -0.292730
O18   O     O_2   0.210742 0.177368 0.558066 -0.367319
O19   O     O_3   0.042502 0.185150 0.680049 -0.547017
Ba2   Ba    Ba6+2 0.339940 0.456360 0.536380 1.763166
P6    P     P_3+3 0.611105 0.611615 0.260417 0.516999
C10   C     C_3   0.544678 0.766116 0.230685 0.036226
H15   H     H_    0.447808 0.733295 0.184749 0.059880
O20   O     O_3   0.586730 0.607760 0.539780 -0.383593
C11   C     C_3   0.315081 0.252621 0.293482 0.673320
H16   H     H_    0.246174 0.298583 0.322586 0.082180
C12   C     C_3   0.243654 0.155005 0.302826 -0.754545
H17   H     H_    0.224255 0.145973 0.364572 0.241982
H18   H     H_    0.124542 0.135509 0.268103 0.253057
H19   H     H_    0.325614 0.109759 0.282090 0.277568
P7    P     P_3+3 0.500863 0.282293 0.428152 0.491250
O21   O     O_2   0.329480 0.280220 0.460820 -0.365551
O22   O     O_3   0.476711 0.273758 0.325449 -0.639324
H20   H     H_    0.071552 0.678819 0.127509 0.170647
C13   C     C_3   0.191702 0.181420 0.721259 0.742858
H21   H     H_    0.294501 0.219902 0.695988 0.106483
C14   C     C_3   0.215174 0.083735 0.719188 -0.691023
H22   H     H_    0.330308 0.078484 0.753134 0.265490
H23   H     H_    0.113248 0.042454 0.743382 0.276645
H24   H     H_    0.220236 0.057020 0.658052 0.283951
P8    P     P_3+3 0.584395 0.388230 0.740570 0.592526
C15   C     C_3   0.672024 0.241549 0.795042 0.383227
H25   H     H_    0.787350 0.287605 0.794062 0.022700
O23   O     O_2   0.454785 0.437490 0.774284 -0.305187
O24   O     O_3   0.534809 0.280505 0.772253 -0.564498
C16   C     C_3   0.665512 0.213046 0.881110 0.401549
H26   H     H_    0.242293 0.546074 0.843035 0.173029
H27   H     H_    0.426312 0.576677 0.101683 0.166017
C17   C     C_R   0.299180 0.524626 0.277171 -0.401730
C18   C     C_R   0.140754 0.482364 0.252778 0.198779
C19   C     C_R   0.082783 0.477221 0.172922 -0.169310
C20   C     C_R   0.185005 0.510598 0.117470 0.056942
C21   C     C_R   0.345739 0.550831 0.143307 -0.192308
C22   C     C_R   0.402035 0.558589 0.223333 0.239450
C23   C     C_R   0.116317 0.518199 0.825568 -0.080205
C24   C     C_R   0.053086 0.516614 0.746821 0.266103
C25   C     C_R   0.789919 0.448291 0.778581 0.213364
C26   C     C_R   0.849290 0.455600 0.858238 -0.225688
C27   C     C_R   0.013535 0.489826 0.882447 0.091805
C28   C     C_1   0.075036 0.497081 0.965249 0.146433
C29   C     C_1   0.125274 0.503230 0.034415 0.091792
C30   C     C_R   0.890294 0.483887 0.725022 -0.334867
H28   H     H_    0.768431 0.434543 0.900803 0.188364
H29   H     H_    0.959093 0.447404 0.153705 0.201751
H30   H     H_    0.344491 0.529187 0.338287 0.152964
H31   H     H_    0.839172 0.489615 0.666351 0.186735
C31   C     C_R   0.767373 0.227023 0.506954 0.076928
C32   C     C_R   0.867802 0.167885 0.529667 0.148682
C33   C     C_R   0.806309 0.075163 0.520961 -0.176886
C34   C     C_R   0.648835 0.041396 0.481700 0.213512
C35   C     C_R   0.566553 0.105647 0.446849 -0.202076
C36   C     C_R   0.617699 0.197628 0.465097 0.076631
C37   C     C_R   0.403438 0.911088 0.448844 0.279798
C38   C     C_R   0.339639 0.819035 0.439246 0.117262
C39   C     C_R   0.588286 0.785219 0.503559 0.308966
C40   C     C_R   0.659348 0.876199 0.505182 -0.172089
C41   C     C_R   0.571041 0.941871 0.476524 0.009195
C42   C     C_R   0.432602 0.757048 0.465939 -0.536813
H32   H     H_    0.881679 0.031978 0.546634 0.176282
H33   H     H_    0.781322 0.894636 0.532708 0.180531
H34   H     H_    0.465026 0.086499 0.403866 0.179890
H35   H     H_    0.378702 0.687142 0.462631 0.179789
Br1   Br    Br    0.306593 0.872077 0.796217 -0.259336
N1    N     N_R   0.483776 0.893347 0.670440 0.222570
O25   O     O_R   0.617757 0.892295 0.713527 -0.333921
O26   O     O_R   0.475451 0.962530 0.631616 -0.332778
Br2   Br    Br    0.150852 0.862970 0.621044 -0.481018
N2    N     N_R   0.826111 0.291838 0.193389 0.224989
O27   O     O_R   0.931222 0.264013 0.150474 -0.298832
O28   O     O_R   0.709810 0.327832 0.161145 -0.297609
Br3   Br    Br    0.653950 0.628693 0.776701 -0.485942
N3    N     N_R   0.700977 0.913989 0.278854 0.223464
O29   O     O_R   0.830199 0.886894 0.308123 -0.274435
O30   O     O_R   0.664599 0.987998 0.309600 -0.432002
N4    N     N_R   0.966257 0.745252 0.841716 0.266780
O31   O     O_R   0.086723 0.702267 0.836538 -0.376499
O32   O     O_R   0.922933 0.766528 0.910396 -0.255894
N5    N     N_R   0.457365 0.904651 0.192528 0.197740
O33   O     O_R   0.433257 0.937672 0.125952 -0.247267
O34   O     O_R   0.357374 0.913700 0.244893 -0.372865
N6    N     N_R   0.309312 0.268635 0.210598 0.254008
O35   O     O_R   0.261492 0.203966 0.155300 -0.235129
O36   O     O_R   0.366510 0.347620 0.191469 -0.349101
N7    N     N_R   0.695126 0.861762 0.142970 0.251507
O37   O     O_R   0.831880 0.915977 0.143538 -0.260876
O38   O     O_R   0.635979 0.811795 0.078910 -0.309491
N8    N     N_R   0.190004 0.220727 0.801145 0.262284
O39   O     O_R   0.182066 0.305344 0.813050 -0.328482
O40   O     O_R   0.177752 0.171222 0.859209 -0.226785
N9    N     N_R   0.678617 0.165322 0.738515 0.255383
O41   O     O_R   0.788518 0.115213 0.749772 -0.290716
O42   O     O_R   0.587675 0.153399 0.672266 -0.340456
N10   N     N_R   0.827957 0.198232 0.911021 0.256063
O43   O     O_R   0.948464 0.264763 0.920547 -0.301018
O44   O     O_R   0.850253 0.122273 0.936320 -0.179000
N11   N     N_R   0.547476 0.130298 0.883652 0.240499
O45   O     O_R   0.566539 0.055799 0.845950 -0.263522
O46   O     O_R   0.447445 0.125566 0.937259 -0.187294
N12   N     N_R   0.619221 0.285275 0.932437 0.223144
O47   O     O_R   0.478815 0.309763 0.919285 -0.261534
O48   O     O_R   0.707329 0.316866 0.997495 -0.283246
N13   N     N_R   0.289646 0.971425 0.443477 0.228046
O49   O     O_R   0.202547 0.974838 0.378009 -0.315626
O50   O     O_R   0.259951 0.015838 0.506456 -0.340491
N14   N     N_R   0.815139 0.318495 0.531814 0.243860
O51   O     O_R   0.813473 0.343536 0.605115 -0.421541
O52   O     O_R   0.905181 0.367921 0.489420 -0.320346

loop_
_geom_bond_atom_site_label_1
_geom_bond_atom_site_label_2
_geom_bond_distance
_ccdc_geom_bond_type
P2    Ba1   3.414348 S    
C14   H23   1.111136 S    
C26   C27   1.410018 A    
C13   N8    1.460082 S    
O16   P7    1.775908 S    
C35   H34   1.067332 S    
O5    C6    1.405094 S    
N9    O42   1.301417 A    
C1    C10   1.545630 S    
H26   C23   1.083181 S    
C32   C33   1.413493 A    
C24   C30   1.387806 A    
C33   H32   1.077179 S    
P4    O13   1.552904 S    
C16   N11   1.478867 S    
O17   Ba2   2.765764 S    
C1    N5    1.472384 S    
C9    H13   1.097075 S    
C9    N4    1.462127 S    
N12   O48   1.301662 A    
C8    H12   1.107518 S    
C6    N2    1.459488 S    
N2    O28   1.300543 A    
C7    H9    1.107724 S    
P3    O9    1.548148 D    
O19   C13   1.398974 S    
C14   H24   1.106494 S    
O12   Ba2   2.801653 S    
O14   P8    1.778308 S    
C2    C3    1.521102 S    
C4    O15   1.400835 S    
C12   H17   1.107223 S    
P7    O22   1.757298 S    
P1    O1    1.538311 D    
P3    O11   1.754728 S    
C4    C5    1.550321 S    
P2    O20   1.592159 S    
C17   C22   1.396565 A    
C31   N14   1.406126 S    
O11   C2    1.406881 S    
P8    O24   1.766240 S    
C1    N3    1.470518 S    
C4    H6    1.098305 S    
O1    Ba1   2.801288 S    
O10   C8    1.403429 S    
N14   O52   1.293987 A    
P5    O18   1.548449 D    
C37   N13   1.430874 S    
P1    Ba1   3.376974 S    
Ba1   O16   2.835712 S    
N13   O50   1.297745 A    
C14   H22   1.104732 S    
C31   C36   1.384101 A    
O13   Ba2   2.943805 S    
C39   C40   1.413705 A    
N11   O46   1.301941 A    
P5    O17   1.778279 S    
P6    C22   1.849071 S    
N11   O45   1.301036 A    
C8    Br3   1.931127 S    
C11   N6    1.466954 S    
C11   C12   1.536226 S    
C15   C16   1.582071 S    
Ba2   O21   2.869912 S    
O7    Ba1   2.869724 S    
Ba1   Ba2   4.631817 S    
C10   H15   1.111291 S    
O2    Ba2   2.791997 S    
N12   O47   1.301214 A    
N8    O40   1.301150 A    
P4    O12   1.538589 D    
C17   C18   1.396590 A    
C19   C20   1.411427 A    
P4    O15   1.766085 S    
C11   O22   1.398802 S    
C20   C21   1.409671 A    
P1    O5    1.764307 S    
O3    P6    1.757329 S    
P7    O21   1.589669 D    
P1    O2    1.552874 S    
C13   C14   1.528150 S    
N6    O36   1.299460 A    
N5    O34   1.300904 A    
C16   N10   1.475966 S    
P5    C32   1.859841 S    
Ba1   O13   2.791345 S    
C34   C35   1.425896 A    
O16   Ba2   2.927117 S    
N13   O49   1.300574 A    
C31   C32   1.385087 A    
C3    H4    1.108006 S    
P8    O23   1.546776 D    
C2    H2    1.108900 S    
N3    O29   1.298979 A    
C23   C24   1.411612 A    
H1    C10   1.113995 S    
N14   O51   1.293120 A    
P2    O7    1.526634 D    
C20   C29   1.465545 S    
P4    Ba2   3.377574 S    
C3    H5    1.107453 S    
C21   C22   1.409012 A    
N7    O37   1.302163 A    
P1    C18   1.859130 S    
N10   O44   1.302172 A    
O4    P6    1.545368 D    
P4    C24   1.841994 S    
P7    C36   1.859464 S    
P8    C25   1.858350 S    
C5    Br1   1.944341 S    
O3    Ba1   2.768355 S    
N4    O32   1.301268 A    
N1    O25   1.297765 A    
C34   C41   1.542154 S    
C40   H33   1.076233 S    
C11   H16   1.096459 S    
C6    H8    1.091214 S    
C7    H11   1.109221 S    
P2    O10   1.761932 S    
C25   C26   1.409766 A    
C42   H35   1.081927 S    
C23   C27   1.411195 A    
O6    P6    1.751808 S    
N8    O39   1.300563 A    
C15   O24   1.419613 S    
C15   N9    1.466023 S    
N9    O41   1.300696 A    
Ba1   O20   2.927964 S    
C16   N12   1.478558 S    
C40   C41   1.430531 A    
C12   H19   1.110629 S    
C25   C30   1.388515 A    
C38   C42   1.398290 A    
C13   H21   1.106362 S    
C3    H20   1.108975 S    
P2    C39   1.878037 S    
N6    O35   1.302511 A    
C28   C29   1.221466 T    
C5    N1    1.465039 S    
O6    C10   1.407548 S    
C6    C7    1.522789 S    
N2    O27   1.301447 A    
C9    H14   1.108814 S    
C7    H10   1.110794 S    
P3    O8    1.723716 S    
H27   C21   1.083238 S    
C17   H30   1.082109 S    
Ba2   O20   2.835261 S    
O2    Ba1   2.942866 S    
C35   C36   1.398223 A    
C2    H3    1.109102 S    
C12   H18   1.105540 S    
C37   C41   1.438762 A    
C8    C9    1.538393 S    
C4    H7    1.106963 S    
C37   C38   1.408005 A    
C5    Br2   1.949494 S    
N3    O30   1.298740 A    
O14   Ba2   2.767692 S    
C30   H31   1.080038 S    
C18   C19   1.412195 A    
P5    O19   1.746824 S    
C15   H25   1.103945 S    
C27   C28   1.465276 S    
C33   C34   1.430710 A    
N7    O38   1.302143 A    
N10   O43   1.301485 A    
O8    Ba1   2.765288 S    
P3    C38   1.856967 S    
C19   H29   1.078243 S    
C26   H28   1.076408 S    
C39   C42   1.395395 A    
N5    O33   1.301997 A    
N4    O31   1.296857 A    
N1    O26   1.299120 A    
C1    N7    1.472854 S    
