data_mof_unit_42581.cif
_audit_creation_date              2012-12-10T18:11:02-0500
_audit_creation_method            fapswitch 2.2
_symmetry_space_group_name_H-M    P1
_symmetry_Int_Tables_number       1
_space_group_crystal_system       triclinic
_cell_length_a                    10.758951
_cell_length_b                    9.620656
_cell_length_c                    10.596135
_cell_angle_alpha                 88.981688
_cell_angle_beta                  90.046969
_cell_angle_gamma                 90.4537
_cell_volume                      1096.5786526

loop_
_atom_site_label
_atom_site_type_symbol
_atom_type_description
_atom_site_fract_x
_atom_site_fract_y
_atom_site_fract_z
_atom_type_partial_charge
C1    C     C_R   0.259961 0.499579 0.503438 0.816597
C2    C     C_3   0.500510 0.502369 0.122670 0.034861
C3    C     C_3   0.070795 0.609954 0.596970 -0.446535
C4    C     C_3   0.067996 0.358138 0.555037 -0.458814
C5    C     C_3   0.928149 0.619971 0.587235 -0.403538
C6    C     C_3   0.925849 0.361670 0.563552 -0.397138
C7    C     C_3   0.069361 0.529248 0.366216 0.368230
C8    C     C_3   0.120646 0.499539 0.503878 0.173257
C9    C     C_3   0.876522 0.500084 0.506035 0.158178
C10   C     C_3   0.924300 0.517221 0.368640 -0.465775
C11   C     C_3   0.623968 0.086041 0.462931 0.174137
C12   C     C_3   0.619014 0.920317 0.447655 0.032502
C13   C     C_3   0.482818 0.079669 0.632301 -0.371446
C14   C     C_3   0.499397 0.914674 0.633785 -0.316218
C15   C     C_3   0.399452 0.082001 0.416664 0.415260
C16   C     C_3   0.386472 0.914572 0.436642 0.444774
C17   C     C_R   0.500115 0.501000 0.259950 0.807070
C18   C     C_R   0.738975 0.500186 0.504575 0.753970
C19   C     C_R   0.499979 0.498918 0.740117 0.749241
C20   C     C_3   0.503700 0.632538 0.037138 -0.139902
C21   C     C_3   0.396812 0.436773 0.043776 -0.150489
C22   C     C_3   0.399890 0.566978 0.956107 -0.176516
C23   C     C_3   0.500197 0.497114 0.877351 0.036446
C24   C     C_3   0.603979 0.562476 0.956171 -0.182165
C25   C     C_3   0.497133 0.366777 0.962719 -0.146953
C26   C     C_3   0.600861 0.432343 0.043941 -0.177034
Cu1   Cu    Cu3+1 0.499860 0.642410 0.500060 0.935744
Cu2   Cu    Cu3+1 0.499860 0.357590 0.500060 0.955347
H1    H     H_    0.317539 0.621752 0.917046 0.113315
H2    H     H_    0.881261 0.610234 0.322964 0.132996
H3    H     H_    0.891622 0.426847 0.313032 0.147280
H4    H     H_    0.551855 0.124406 0.698748 0.166279
H5    H     H_    0.587552 0.888615 0.683815 0.141372
H6    H     H_    0.688810 0.613601 0.917061 0.112531
H7    H     H_    0.494380 0.257912 0.929685 0.121216
H8    H     H_    0.683118 0.377595 0.083260 0.118786
H9    H     H_    0.111080 0.713787 0.579187 0.198266
H10   H     H_    0.091524 0.272909 0.492321 0.187540
H11   H     H_    0.097427 0.580890 0.695468 0.154784
H12   H     H_    0.107885 0.332554 0.649532 0.158193
H13   H     H_    0.902599 0.722213 0.544239 0.161924
H14   H     H_    0.887494 0.270698 0.513132 0.169786
N1    N     N_3   0.500250 0.143650 0.502780 -0.123896
N2    N     N_3   0.500250 0.856350 0.502780 -0.131378
O1    O     O_R   0.317570 0.620260 0.500070 -0.518955
O2    O     O_R   0.317570 0.379740 0.500070 -0.554511
O3    O     O_R   0.499850 0.620240 0.316900 -0.579704
O4    O     O_R   0.499850 0.379760 0.316900 -0.514590
O5    O     O_R   0.682190 0.620260 0.500030 -0.617161
O6    O     O_R   0.682190 0.379740 0.500030 -0.565891
O7    O     O_R   0.499910 0.620280 0.683200 -0.594037
O8    O     O_R   0.499910 0.379720 0.683200 -0.602202
H15   H     H_    0.690561 0.103446 0.542420 0.082602
H16   H     H_    0.698812 0.879963 0.504521 0.112445
N3    N     N_3   0.681171 0.165083 0.356938 -0.513697
H17   H     H_    0.655447 0.133999 0.267469 0.223068
H18   H     H_    0.777422 0.151179 0.360345 0.150440
N4    N     N_3   0.644383 0.877647 0.317951 -0.633660
H19   H     H_    0.665388 0.772515 0.318730 0.266341
H20   H     H_    0.729243 0.921100 0.289164 0.168120
N5    N     N_3   0.278542 0.143903 0.442836 -0.546395
H21   H     H_    0.251178 0.136348 0.536780 0.189750
H22   H     H_    0.208472 0.104710 0.384573 0.152336
N6    N     N_3   0.275320 0.878934 0.513923 -0.553312
H23   H     H_    0.266454 0.930633 0.598790 0.158992
H24   H     H_    0.193288 0.895232 0.463346 0.183410
N7    N     N_3   0.426375 0.121680 0.283660 -0.529944
H25   H     H_    0.345511 0.127335 0.228942 0.186403
H26   H     H_    0.482573 0.052350 0.237450 0.181196
N8    N     N_3   0.363916 0.844045 0.316154 -0.500461
H27   H     H_    0.287825 0.888311 0.269435 0.161507
H28   H     H_    0.437551 0.846524 0.253481 0.227896
H29   H     H_    0.392496 0.108152 0.673907 0.150926
H30   H     H_    0.428240 0.863533 0.694698 0.186961
H31   H     H_    0.507473 0.741897 0.068248 0.126260
H32   H     H_    0.312163 0.385195 0.082689 0.137421
H33   H     H_    0.886968 0.614840 0.683568 0.152413
H34   H     H_    0.896484 0.350908 0.664006 0.160930
N9    N     N_3   0.107134 0.670119 0.323729 -0.560633
H35   H     H_    0.086536 0.683642 0.227837 0.194755
H36   H     H_    0.054576 0.744714 0.369624 0.189016
N10   N     N_3   0.121613 0.428801 0.277265 -0.595822
H37   H     H_    0.085122 0.329329 0.293890 0.193910
H38   H     H_    0.094110 0.455469 0.185334 0.191787

loop_
_geom_bond_atom_site_label_1
_geom_bond_atom_site_label_2
_ccdc_geom_bond_type
C7    C10   S    
N3    H17   S    
C22   H1    S    
C1    C8    S    
C13   H4    S    
C17   O4    A    
C4    C8    S    
C14   H5    S    
C7    C8    S    
C21   H32   S    
Cu2   O2    S    
C14   H30   S    
C14   N2    S    
C24   C26   S    
C1    O2    A    
C6    H34   S    
N4    H20   S    
C15   C16   S    
N5    H22   S    
C21   C25   S    
C21   C22   S    
Cu2   O6    S    
C19   O8    A    
C20   C24   S    
C23   C24   S    
C11   N1    S    
N8    H27   S    
C9    C10   S    
C16   N2    S    
C11   H15   S    
C12   N4    S    
Cu1   O1    S    
C3    H11   S    
C13   C14   S    
C2    C17   S    
C6    C9    S    
Cu1   N2    S    
Cu1   O7    S    
C10   H3    S    
C2    C20   S    
N7    H25   S    
C4    H12   S    
C16   N8    S    
C4    C6    S    
C3    C8    S    
N9    H36   S    
C25   C26   S    
C24   H6    S    
C20   H31   S    
N7    H26   S    
N6    H24   S    
C19   C23   S    
C5    C9    S    
C10   H2    S    
C15   N7    S    
C2    C21   S    
C15   N5    S    
C2    C26   S    
C25   H7    S    
C26   H8    S    
C20   C22   S    
N10   H38   S    
N3    H18   S    
C5    H33   S    
C13   N1    S    
C11   N3    S    
C18   O6    A    
C7    N9    S    
Cu1   O3    S    
C5    H13   S    
Cu2   O4    S    
C17   O3    A    
C13   H29   S    
C3    C5    S    
C11   C12   S    
Cu2   N1    S    
N6    H23   S    
N4    H19   S    
C15   N1    S    
C12   N2    S    
Cu2   O8    S    
C1    O1    A    
C23   C25   S    
N5    H21   S    
N9    H35   S    
C19   O7    A    
C9    C18   S    
C7    N10   S    
C3    H9    S    
N10   H37   S    
C6    H14   S    
Cu1   Cu2   S    
C22   C23   S    
N8    H28   S    
C16   N6    S    
C4    H10   S    
C12   H16   S    
Cu1   O5    S    
C18   O5    A    
