data_mof_unit_28216.cif
_audit_creation_date              2012-10-26T21:08:09-0400
_audit_creation_method            fapswitch 2.2
_symmetry_space_group_name_H-M    P1
_symmetry_Int_Tables_number       1
_space_group_crystal_system       triclinic
_cell_length_a                    15.845429
_cell_length_b                    10.858519
_cell_length_c                    9.610271
_cell_angle_alpha                 90.847179
_cell_angle_beta                  90.067886
_cell_angle_gamma                 94.459767
_cell_volume                      1648.33167905

loop_
_atom_site_label
_atom_site_type_symbol
_atom_type_description
_atom_site_fract_x
_atom_site_fract_y
_atom_site_fract_z
_atom_type_partial_charge
Br1   Br    Br    0.367689 0.303338 0.156368 -0.461770
Br2   Br    Br    0.301108 0.235884 0.600744 -0.518839
C1    C     C_R   0.492845 0.262015 0.499184 0.597935
C2    C     C_R   0.322872 0.041575 0.776015 -0.071247
C3    C     C_R   0.336469 0.918720 0.794391 -0.148078
C4    C     C_R   0.340542 0.507503 0.499812 0.601258
C5    C     C_R   0.388745 0.860297 0.703088 -0.117062
C6    C     C_R   0.437241 0.927813 0.601297 0.005444
C7    C     C_R   0.428851 0.056686 0.590646 0.044145
C8    C     C_R   0.482335 0.126664 0.496464 0.026533
C9    C     C_R   0.532942 0.066533 0.402551 -0.143335
C10   C     C_R   0.535448 0.939839 0.404834 -0.149490
C11   C     C_R   0.490111 0.870108 0.504779 0.006290
C12   C     C_3   0.083552 0.514395 0.499486 0.051642
C13   C     C_R   0.613907 0.667047 0.146794 -0.083805
C14   C     C_R   0.668933 0.749645 0.075760 -0.168587
C15   C     C_R   0.668414 0.750112 0.932183 -0.161753
C16   C     C_R   0.497229 0.737124 0.501391 0.511268
C17   C     C_R   0.612959 0.667834 0.858630 -0.074684
C18   C     C_R   0.555562 0.582569 0.926667 0.140158
C19   C     C_R   0.555784 0.582336 0.076203 0.131941
C20   C     C_R   0.446778 0.421041 0.070938 0.253919
C21   C     C_R   0.447159 0.421535 0.923611 0.027807
C22   C     C_R   0.660128 0.500949 0.500108 0.528219
C23   C     C_3   0.976859 0.612189 0.568572 -0.104183
C24   C     C_3   0.968658 0.409399 0.563043 -0.095013
C25   C     C_3   0.024597 0.412049 0.431012 -0.087536
C26   C     C_1   0.250945 0.512862 0.499314 0.031930
C27   C     C_1   0.750137 0.503713 0.500276 -0.033198
C28   C     C_3   0.029100 0.511760 0.631547 -0.095647
C29   C     C_3   0.917943 0.509799 0.500057 0.046756
C30   C     C_3   0.032902 0.614843 0.436476 -0.105336
C31   C     C_3   0.972406 0.512433 0.367995 -0.103101
C32   C     C_1   0.175392 0.514915 0.499250 -0.022937
C33   C     C_1   0.825953 0.506529 0.500257 -0.060498
C34   C     C_R   0.363601 0.107599 0.668875 0.160890
Cu1   Cu    Cu3+1 0.499990 0.499990 0.640660 0.947254
Cu2   Cu    Cu3+1 0.500010 0.500010 0.359340 1.005666
H1    H     H_    0.045568 0.329928 0.374519 0.131473
H2    H     H_    0.940991 0.325016 0.614976 0.113614
H3    H     H_    0.947780 0.512602 0.259807 0.112195
H4    H     H_    0.060644 0.699193 0.384572 0.115900
H5    H     H_    0.955875 0.694278 0.625100 0.108722
H6    H     H_    0.053747 0.511577 0.739721 0.117856
H7    H     H_    0.572858 0.118417 0.328952 0.137588
H8    H     H_    0.274128 0.081868 0.836618 0.160257
H9    H     H_    0.300994 0.865884 0.872532 0.128278
H10   H     H_    0.387483 0.761822 0.713607 0.164610
H11   H     H_    0.575779 0.896380 0.330867 0.121643
H12   H     H_    0.619784 0.673494 0.256842 0.173895
H13   H     H_    0.712486 0.813606 0.132845 0.114102
H14   H     H_    0.711564 0.814410 0.877095 0.118135
H15   H     H_    0.617854 0.674596 0.748697 0.181104
H16   H     H_    0.404027 0.357351 0.866276 0.171022
N1    N     N_R   0.500800 0.501210 0.147910 -0.238882
N2    N     N_R   0.500830 0.501290 0.852040 -0.272865
O1    O     O_R   0.499990 0.319640 0.618810 -0.486089
O2    O     O_R   0.500000 0.319660 0.381240 -0.451247
O3    O     O_R   0.379070 0.499980 0.618770 -0.484393
O4    O     O_R   0.379080 0.500000 0.381190 -0.441518
O5    O     O_R   0.500000 0.680340 0.618760 -0.547174
O6    O     O_R   0.500010 0.680360 0.381190 -0.524963
O7    O     O_R   0.620920 0.500000 0.618810 -0.514302
O8    O     O_R   0.620930 0.500020 0.381230 -0.521918

loop_
_geom_bond_atom_site_label_1
_geom_bond_atom_site_label_2
_ccdc_geom_bond_type
C23   C29   S    
C7    C34   A    
Cu1   O5    S    
C9    C10   A    
C29   C31   S    
C16   O5    A    
C12   C32   S    
C6    C11   A    
C12   C25   S    
C7    C8    A    
C27   C33   T    
Cu2   O8    S    
C17   C18   A    
C14   H13   S    
C18   N2    A    
C31   H3    S    
C5    H10   S    
C23   H5    S    
C23   C30   S    
C2    C34   A    
C10   H11   S    
C6    C7    A    
C26   C32   T    
Br1   C20   S    
C22   O8    A    
C1    C8    S    
C2    H8    S    
C30   C31   S    
C3    H9    S    
C17   H15   S    
C24   C25   S    
C20   N1    A    
C25   H1    S    
C11   C16   S    
C12   C28   S    
Cu2   O4    S    
C1    O1    A    
C24   H2    S    
C15   C17   A    
Cu1   Cu2   S    
C24   C28   S    
C22   O7    A    
C28   H6    S    
Cu1   O1    S    
C29   C33   S    
C9    H7    S    
C5    C6    A    
C8    C9    A    
Cu2   N1    S    
Cu2   O2    S    
C13   C14   A    
C1    O2    A    
C4    O4    A    
C13   C19   A    
C10   C11   A    
C15   H14   S    
C21   H16   S    
C3    C5    A    
C21   N2    A    
C13   H12   S    
Br2   C34   S    
C25   C31   S    
C19   N1    A    
C30   H4    S    
C22   C27   S    
C23   C28   S    
C16   O6    A    
Cu1   O7    S    
C18   C19   A    
C20   C21   A    
Cu1   N2    S    
C24   C29   S    
C4    O3    A    
C4    C26   S    
Cu1   O3    S    
C14   C15   A    
C12   C30   S    
C2    C3    A    
Cu2   O6    S    
