data_mof_unit_13766.cif
_audit_creation_date              2013-03-05T16:05:05-0500
_audit_creation_method            fapswitch 2.2
_symmetry_space_group_name_H-M    P1
_symmetry_Int_Tables_number       1
_space_group_crystal_system       triclinic
_cell_length_a                    6.954842
_cell_length_b                    23.219118
_cell_length_c                    25.837304
_cell_angle_alpha                 104.794847
_cell_angle_beta                  90.36962
_cell_angle_gamma                 90.33701
_cell_volume                      4033.8100279

loop_
_atom_site_label
_atom_site_type_symbol
_atom_site_description
_atom_site_fract_x
_atom_site_fract_y
_atom_site_fract_z
_atom_type_partial_charge
O1    O     O_R   0.505750 0.453350 0.547660 -0.597887
O2    O     O_R   0.170990 0.432220 0.437590 -0.594177
O3    O     O_R   0.005600 0.546650 0.452340 -0.567367
C1    C     C_R   0.339743 0.415208 0.417715 0.985415
O4    O     O_R   0.175720 0.446240 0.546340 -0.597949
O5    O     O_R   0.010370 0.560770 0.561860 -0.596421
C2    C     C_R   0.344946 0.434310 0.562926 0.934197
O6    O     O_R   0.500990 0.439230 0.438140 -0.591534
O7    O     O_3   0.340820 0.537560 0.504970 -0.257364
V1    V     V_3+5 0.064050 0.493030 0.499080 1.174794
O8    O     O_R   0.680940 0.567780 0.562410 -0.600455
C3    C     C_R   0.850720 0.584509 0.582418 0.954619
O9    O     O_R   0.676210 0.553760 0.453660 -0.586585
C4    C     C_R   0.844947 0.564375 0.435995 0.992681
V2    V     V_3+5 0.564640 0.506970 0.500920 1.177229
O10   O     O_3   0.837740 0.462440 0.495030 -0.281773
C5    C     C_R   0.831604 0.912824 0.145149 -0.148801
H1    H     H_    0.746655 0.952997 0.151919 0.116823
C6    C     C_R   0.822119 0.878012 0.181950 -0.134536
H2    H     H_    0.732205 0.893381 0.216648 0.115207
C7    C     C_R   0.929336 0.825149 0.174399 0.108800
C8    C     C_R   0.049627 0.809240 0.129225 -0.141517
H3    H     H_    0.131124 0.768440 0.120640 0.107312
C9    C     C_R   0.064087 0.845342 0.093503 -0.154923
H4    H     H_    0.157941 0.832082 0.059276 0.119358
C10   C     C_R   0.953617 0.897022 0.100907 -0.117136
C11   C     C_R   0.069295 0.750406 0.220282 -0.164887
H5    H     H_    0.202102 0.749467 0.198573 0.111941
C12   C     C_R   0.055375 0.714447 0.256050 -0.123614
H6    H     H_    0.174335 0.685462 0.258762 0.133036
C13   C     C_R   0.891552 0.715979 0.288050 0.150006
C14   C     C_R   0.738748 0.753023 0.281538 -0.139240
H7    H     H_    0.610315 0.756142 0.305403 0.150055
C15   C     C_R   0.749269 0.787150 0.244165 -0.167071
H8    H     H_    0.624929 0.813131 0.239442 0.118963
C16   C     C_R   0.915829 0.787139 0.213331 0.105326
C17   C     C_R   0.702076 0.656636 0.340026 -0.128149
H9    H     H_    0.571778 0.665321 0.320714 0.153618
C18   C     C_R   0.691261 0.625772 0.379939 -0.104376
H10   H     H_    0.553336 0.618288 0.395587 0.193997
C19   C     C_R   0.857289 0.602309 0.397429 -0.251890
C20   C     C_R   0.034558 0.615179 0.376643 0.178540
C21   C     C_R   0.045305 0.661506 0.350974 0.145687
C22   C     C_R   0.879606 0.677801 0.326763 0.015834
C23   C     C_R   0.713578 0.645031 0.668766 -0.245162
C24   C     C_R   0.864251 0.634245 0.631502 -0.142601
C25   C     C_R   0.030625 0.670355 0.641907 -0.236019
C26   C     C_R   0.046723 0.716935 0.688658 0.144407
C27   C     C_R   0.896401 0.726843 0.726240 0.029859
C28   C     C_R   0.729685 0.690558 0.716364 0.150607
C29   C     C_R   0.210678 0.753775 0.698552 -0.206100
C30   C     C_R   0.226832 0.799628 0.745593 -0.201500
C31   C     C_R   0.079708 0.809333 0.783699 0.149349
C32   C     C_R   0.912988 0.773049 0.773822 0.031059
C33   C     C_R   0.762654 0.782965 0.811400 0.149834
C34   C     C_R   0.598712 0.746118 0.801510 -0.218513
C35   C     C_R   0.582571 0.700258 0.754473 -0.200658
C36   C     C_R   0.095798 0.854869 0.831291 -0.253427
C37   C     C_R   0.945089 0.865676 0.868544 -0.144092
C38   C     C_R   0.778720 0.829563 0.858141 -0.249862
H11   H     H_    0.585590 0.617153 0.661269 0.136346
H12   H     H_    0.147071 0.662556 0.613306 0.145216
H13   H     H_    0.327226 0.746890 0.670040 0.147958
H14   H     H_    0.355256 0.827273 0.752331 0.146080
H15   H     H_    0.223792 0.882744 0.838789 0.136478
H16   H     H_    0.662252 0.837375 0.886734 0.141115
H17   H     H_    0.482159 0.753005 0.830020 0.142983
H18   H     H_    0.454153 0.672610 0.747736 0.145228
C39   C     C_R   0.290732 0.171604 0.138953 -0.222795
C40   C     C_R   0.456070 0.135652 0.130765 -0.150391
C41   C     C_R   0.601605 0.146883 0.170175 -0.257837
C42   C     C_R   0.579886 0.192113 0.217831 0.163080
C43   C     C_R   0.413367 0.227987 0.225560 0.021983
C44   C     C_R   0.269699 0.217977 0.185645 0.117665
C45   C     C_R   0.720857 0.201643 0.258216 -0.205306
C46   C     C_R   0.697898 0.246193 0.305659 -0.224243
C47   C     C_R   0.534679 0.282672 0.313405 0.165293
C48   C     C_R   0.390686 0.273713 0.273258 -0.001811
C49   C     C_R   0.225701 0.310613 0.280627 0.077325
C50   C     C_R   0.084907 0.301555 0.239040 0.198926
C51   C     C_R   0.107330 0.254542 0.192733 -0.294310
C52   C     C_R   0.515348 0.328498 0.360358 -0.246647
C53   C     C_R   0.352377 0.365143 0.368701 -0.139569
C54   C     C_R   0.207803 0.355541 0.329127 -0.234234
H19   H     H_    0.178220 0.163665 0.108651 0.138754
H20   H     H_    0.728751 0.119242 0.164512 0.134423
H21   H     H_    0.849335 0.174658 0.253099 0.143601
H22   H     H_    0.809806 0.252805 0.336033 0.144913
H23   H     H_    0.627732 0.335613 0.390669 0.139676
H24   H     H_    0.084728 0.384594 0.336281 0.143226
H25   H     H_    0.998696 0.247140 0.161379 0.147185
C55   C     C_R   0.291397 0.100450 0.864916 -0.151713
H26   H     H_    0.174268 0.069962 0.866360 0.129447
C56   C     C_R   0.280123 0.135550 0.828199 -0.147259
H27   H     H_    0.154668 0.131690 0.802436 0.124601
C57   C     C_R   0.428076 0.175925 0.825237 0.127303
C58   C     C_R   0.588880 0.180043 0.859254 -0.140612
H28   H     H_    0.705126 0.210713 0.857477 0.121874
C59   C     C_R   0.602511 0.143851 0.895138 -0.165139
H29   H     H_    0.728797 0.147677 0.920569 0.130709
C60   C     C_R   0.453188 0.103870 0.898678 -0.126865
C61   C     C_R   0.414403 0.275634 0.804279 -0.155671
H30   H     H_    0.422467 0.297130 0.846699 0.126704
C62   C     C_R   0.400293 0.310727 0.767616 -0.104336
H31   H     H_    0.397171 0.358750 0.782521 0.151941
C63   C     C_R   0.392447 0.284388 0.712176 0.043257
C64   C     C_R   0.393548 0.221550 0.694158 0.222742
C65   C     C_R   0.402344 0.186656 0.731231 -0.200860
H32   H     H_    0.403975 0.138567 0.716876 0.153683
C66   C     C_R   0.414844 0.213284 0.786427 0.051503
C67   C     C_R   0.219794 0.320712 0.641192 -0.076054
H33   H     H_    0.102094 0.290673 0.643297 0.164843
C68   C     C_R   0.205682 0.357148 0.605622 -0.126442
H34   H     H_    0.077414 0.354293 0.581079 0.144154
C69   C     C_R   0.356745 0.396022 0.601193 -0.168547
C70   C     C_R   0.520782 0.398147 0.633843 -0.193555
H35   H     H_    0.638824 0.427992 0.631515 0.154823
C71   C     C_R   0.533907 0.362745 0.670378 0.221512
C72   C     C_R   0.383115 0.322997 0.674053 0.053790
O11   O     O_R   0.308350 0.060850 0.061810 -0.593243
O12   O     O_R   0.633860 0.053770 0.953650 -0.594875
O13   O     O_R   0.798960 0.939210 0.938150 -0.593557
C73   C     C_R   0.464710 0.065732 0.937052 0.917204
O14   O     O_R   0.638360 0.067800 0.062400 -0.597788
O15   O     O_R   0.803500 0.953330 0.047670 -0.591390
C74   C     C_R   0.469533 0.084968 0.082198 0.946256
O16   O     O_R   0.303810 0.046730 0.952290 -0.595169
O17   O     O_3   0.468430 0.962490 0.995010 -0.271570
V3    V     V_3+5 0.745300 0.006960 0.000930 1.147350
O18   O     O_R   0.132880 0.946160 0.046390 -0.591967
C75   C     C_R   0.964224 0.934502 0.062749 0.920037
O19   O     O_R   0.128380 0.932130 0.937650 -0.600445
C76   C     C_R   0.958606 0.915432 0.917617 0.948299
V4    V     V_3+5 0.244670 0.992930 0.999140 1.149623
O20   O     O_3   0.971670 0.037510 0.005000 -0.276476
I1    I     I_    0.240481 0.546381 0.353235 -0.473369
I2    I     I_    0.260210 0.727290 0.379063 -0.442816
C77   C     C_3   0.911351 0.341592 0.241758 -0.420715
C78   C     C_3   0.964619 0.402014 0.231500 -0.246445
C79   C     C_3   0.022962 0.396185 0.173478 -0.847787
H36   H     H_    0.155488 0.369190 0.163812 0.261327
H37   H     H_    0.905263 0.374937 0.145699 0.249068
H38   H     H_    0.052273 0.441129 0.167573 0.246304
H39   H     H_    0.837656 0.431682 0.240499 0.202171
H40   H     H_    0.083657 0.423675 0.258501 0.219382
H41   H     H_    0.799194 0.319718 0.212233 0.193927
H42   H     H_    0.841752 0.348913 0.281338 0.163589
I3    I     I_    0.394630 0.176266 0.611681 -0.367787
I4    I     I_    0.787953 0.370943 0.717743 -0.478241

loop_
_geom_bond_atom_site_label_1
_geom_bond_atom_site_label_2
_geom_bond_distance
_ccdc_geom_bond_type
C33   C34   1.403714 A    
C31   C36   1.405456 A    
C63   C72   1.492951 S    
C11   C12   1.398138 A    
C19   C20   1.408514 A    
C67   H33   1.082930 S    
O16   V4    1.991874 S    
C1    O6    1.296888 A    
O17   V3    2.165548 S    
C25   H12   1.084366 S    
C62   C63   1.407145 A    
C58   H28   1.083181 S    
C18   C19   1.400261 A    
C7    C16   1.501077 S    
C47   C48   1.412824 A    
C34   C35   1.399771 A    
C12   H6    1.082711 S    
C52   H23   1.084456 S    
C5    C10   1.401192 A    
C47   C52   1.402331 A    
C67   C72   1.406307 A    
C6    C7    1.411032 A    
C79   H37   1.111511 S    
C39   C40   1.410009 A    
O5    C3    1.297723 A    
C49   C54   1.417733 A    
C61   C62   1.401708 A    
O11   C74   1.296955 A    
C63   C64   1.413815 A    
C69   C70   1.407587 A    
C65   H32   1.083124 S    
C20   I1    2.124455 S    
C15   H8    1.081199 S    
C43   C44   1.406246 A    
C2    C69   1.491085 S    
C71   C72   1.412542 A    
C61   H30   1.083062 S    
C7    C8    1.412332 A    
V3    O20   1.714494 S    
O8    V2    1.999067 S    
C26   C29   1.403702 A    
C53   C54   1.404938 A    
C65   C66   1.403971 A    
O19   C76   1.302553 A    
C43   C48   1.416726 A    
C79   H38   1.110439 S    
C40   C41   1.406164 A    
O1    V2    1.986062 S    
O7    V1    2.165609 S    
C46   H22   1.083697 S    
O13   V3    1.989104 S    
C15   C16   1.410103 A    
C40   C74   1.488934 S    
C38   H16   1.084355 S    
C37   C38   1.408418 A    
O9    C4    1.306608 A    
O18   V4    1.988356 S    
C54   H24   1.080314 S    
C42   C45   1.401897 A    
C62   H31   1.083149 S    
C58   C59   1.404463 A    
C79   H36   1.111118 S    
C17   C18   1.400181 A    
C13   C22   1.498753 S    
C29   C30   1.399760 A    
C29   H13   1.083681 S    
C9    H4    1.083345 S    
C3    C24   1.483252 S    
C30   H14   1.083637 S    
O12   V3    1.987482 S    
C18   H10   1.073649 S    
O4    C2    1.305195 A    
C48   C49   1.420578 A    
C42   C43   1.415727 A    
C36   C37   1.407400 A    
C23   C24   1.407398 A    
C57   C66   1.486735 S    
C37   C76   1.483317 S    
V2    O10   2.155522 S    
C14   C15   1.398816 A    
C71   I4    2.122460 S    
O2    C1    1.306451 A    
C45   C46   1.398197 A    
O13   C76   1.297800 A    
C17   H9    1.076363 S    
O17   V4    1.705669 S    
C41   H20   1.084275 S    
C78   H39   1.111891 S    
O15   C75   1.295964 A    
C36   H15   1.084358 S    
C73   O16   1.300200 A    
C25   C26   1.403920 A    
C77   H42   1.107968 S    
C64   C65   1.404938 A    
C57   C58   1.405522 A    
C55   C56   1.401771 A    
C5    H1    1.083604 S    
C39   C44   1.406017 A    
C67   C68   1.402474 A    
C60   C73   1.490569 S    
C46   C47   1.404905 A    
C56   C57   1.403519 A    
O3    C4    1.297775 A    
C55   C60   1.408659 A    
C4    C19   1.491465 S    
C45   H21   1.083642 S    
C26   C27   1.410893 A    
C59   C60   1.407795 A    
C52   C53   1.405683 A    
O6    V2    1.995121 S    
O9    V2    1.988277 S    
C21   C22   1.406846 A    
C8    C9    1.399998 A    
C61   C66   1.402721 A    
C20   C21   1.402322 A    
C35   H18   1.083637 S    
O2    V1    1.988164 S    
C39   H19   1.084400 S    
C30   C31   1.403391 A    
O14   C74   1.307037 A    
C68   H34   1.082990 S    
C32   C33   1.410892 A    
C78   H40   1.110626 S    
O1    C2    1.300267 A    
C28   C35   1.403389 A    
C13   C14   1.407073 A    
C9    C10   1.400831 A    
C50   C51   1.408819 A    
O5    V1    1.988999 S    
C78   C79   1.528147 S    
C31   C32   1.412167 A    
V4    O20   2.155485 S    
C11   C16   1.409023 A    
C34   H17   1.083677 S    
C59   H29   1.082989 S    
C77   H41   1.112703 S    
C14   H7    1.080921 S    
C6    H2    1.081007 S    
O18   C75   1.299576 A    
O7    V2    1.707538 S    
O4    V1    1.987389 S    
C12   C13   1.407352 A    
O3    V1    1.985239 S    
V1    O10   1.714503 S    
C64   I3    2.121958 S    
C1    C53   1.487819 S    
C23   C28   1.405457 A    
C17   C22   1.402752 A    
C50   C77   1.518896 S    
C70   H35   1.083083 S    
C23   H11   1.084360 S    
C55   H26   1.083145 S    
C5    C6    1.398041 A    
C70   C71   1.403973 A    
O14   V3    1.988202 S    
C21   I2    2.118203 S    
O11   V4    1.995861 S    
C56   H27   1.083293 S    
O12   C73   1.305057 A    
C24   C25   1.408407 A    
C77   C78   1.536495 S    
C49   C50   1.423441 A    
C51   H25   1.084476 S    
O15   V3    1.985066 S    
C41   C42   1.409158 A    
O19   V4    1.998922 S    
C27   C28   1.412174 A    
C11   H5    1.081148 S    
C8    H3    1.080973 S    
C44   C51   1.401467 A    
C33   C38   1.403953 A    
C10   C75   1.474166 S    
C27   C32   1.413801 A    
O8    C3    1.302522 A    
C68   C69   1.405259 A    
