data_mof_unit_18036.cif
_audit_creation_date              2012-12-11T14:45:26-0500
_audit_creation_method            fapswitch 2.2
_symmetry_space_group_name_H-M    P1
_symmetry_Int_Tables_number       1
_space_group_crystal_system       triclinic
_cell_length_a                    24.902776
_cell_length_b                    7.180636
_cell_length_c                    14.396608
_cell_angle_alpha                 90.000131
_cell_angle_beta                  102.720432
_cell_angle_gamma                 89.999622
_cell_volume                      2511.18422986

loop_
_atom_site_label
_atom_site_type_symbol
_atom_type_description
_atom_site_fract_x
_atom_site_fract_y
_atom_site_fract_z
_atom_type_partial_charge
O1    O     O_R   0.319150 0.364170 0.330530 -0.551042
O2    O     O_R   0.680850 0.635830 0.669470 -0.552010
O3    O     O_R   0.180850 0.864170 0.169470 -0.551041
O4    O     O_R   0.819150 0.135830 0.830530 -0.552011
O5    O     O_R   0.210330 0.696850 0.354180 -0.536931
O6    O     O_R   0.789670 0.303150 0.645820 -0.538122
O7    O     O_R   0.289670 0.196850 0.145820 -0.536931
O8    O     O_R   0.710330 0.803150 0.854180 -0.538124
C1    C     C_R   0.197511 0.525501 0.378584 0.703674
C2    C     C_R   0.802618 0.474789 0.621638 0.703623
C3    C     C_R   0.302489 0.025500 0.121416 0.703673
C4    C     C_R   0.697382 0.974790 0.878362 0.703626
O9    O     O_R   0.320550 0.694110 0.341970 -0.524656
O10   O     O_R   0.679450 0.305890 0.658030 -0.523010
O11   O     O_R   0.179450 0.194110 0.158030 -0.524655
O12   O     O_R   0.820550 0.805890 0.841970 -0.523009
O13   O     O_R   0.291860 0.861000 0.157170 -0.527822
O14   O     O_R   0.708140 0.139000 0.842830 -0.524846
O15   O     O_R   0.208140 0.361000 0.342830 -0.527825
O16   O     O_R   0.791860 0.639000 0.657170 -0.524847
C5    C     C_R   0.341677 0.525602 0.361644 0.764179
C6    C     C_R   0.658197 0.474096 0.638704 0.761479
C7    C     C_R   0.158323 0.025603 0.138356 0.764177
C8    C     C_R   0.841803 0.974095 0.861296 0.761482
O17   O     O_3   0.240460 0.529330 0.189380 -0.380005
O18   O     O_3   0.759540 0.470670 0.810620 -0.380572
O19   O     O_3   0.259540 0.029330 0.310620 -0.380007
O20   O     O_3   0.740460 0.970670 0.689380 -0.380570
V1    V     V_3+5 0.251770 0.805510 0.261240 1.518555
V2    V     V_3+5 0.748230 0.194490 0.738760 1.515960
V3    V     V_3+5 0.248230 0.305510 0.238760 1.518553
V4    V     V_3+5 0.751770 0.694490 0.761240 1.515957
C9    C     C_R   0.103078 0.017053 0.074733 -0.128685
C10   C     C_R   0.897164 0.981022 0.924692 -0.132537
C11   C     C_R   0.396922 0.517050 0.425267 -0.128687
C12   C     C_R   0.602836 0.481026 0.575308 -0.132530
C13   C     C_R   0.953951 0.986443 0.084958 -0.095409
C14   C     C_R   0.046414 0.007556 0.914448 -0.105338
C15   C     C_R   0.546049 0.486486 0.415042 -0.095409
C16   C     C_R   0.453585 0.507517 0.585552 -0.105339
C17   C     C_R   0.901872 0.976820 0.023635 0.182015
C18   C     C_R   0.098518 0.016782 0.975757 0.176042
C19   C     C_R   0.598129 0.476858 0.476365 0.181999
C20   C     C_R   0.401482 0.516749 0.524242 0.176045
C21   C     C_R   0.944943 0.992739 0.886753 -0.086988
C22   C     C_R   0.055330 0.002136 0.112538 -0.087622
C23   C     C_R   0.555057 0.492718 0.613247 -0.086989
C24   C     C_R   0.444671 0.502155 0.387462 -0.087621
C25   C     C_R   0.997866 0.000086 0.949557 0.033909
C26   C     C_R   0.002432 0.995464 0.049744 0.023163
C27   C     C_R   0.502134 0.500071 0.550443 0.033902
C28   C     C_R   0.497568 0.495480 0.450256 0.023177
H1    H     H_    0.955863 0.988627 0.160673 0.169599
H2    H     H_    0.044602 0.003444 0.838832 0.168287
H3    H     H_    0.544138 0.488696 0.339327 0.169578
H4    H     H_    0.455396 0.503381 0.661167 0.168290
C29   C     C_R   0.664931 0.983857 0.951293 -0.086855
C30   C     C_R   0.334494 0.019420 0.047693 -0.059882
C31   C     C_R   0.835069 0.483851 0.548708 -0.086863
C32   C     C_R   0.165507 0.519425 0.452308 -0.059886
C33   C     C_R   0.659789 0.020250 0.115985 0.219654
C34   C     C_R   0.341051 0.070071 0.884436 0.218194
C35   C     C_R   0.840209 0.520155 0.384011 0.219636
C36   C     C_R   0.158948 0.570112 0.615562 0.218194
C37   C     C_R   0.690420 0.014461 0.045829 -0.125308
C38   C     C_R   0.310061 0.065836 0.954398 -0.224278
C39   C     C_R   0.809578 0.514386 0.454167 -0.125311
C40   C     C_R   0.189939 0.565864 0.545600 -0.224275
C41   C     C_R   0.607929 0.972072 0.924445 -0.163806
C42   C     C_R   0.390825 0.986379 0.073498 -0.169172
C43   C     C_R   0.892072 0.472107 0.575558 -0.163804
C44   C     C_R   0.109177 0.486371 0.426505 -0.169186
C45   C     C_R   0.574575 0.984993 0.992147 0.049869
C46   C     C_R   0.424598 0.997803 0.006303 0.025288
C47   C     C_R   0.925426 0.484995 0.507855 0.049867
C48   C     C_R   0.075403 0.497810 0.493699 0.025287
C49   C     C_R   0.601356 0.991995 0.090819 0.006091
C50   C     C_R   0.398364 0.025819 0.908457 0.066390
C51   C     C_R   0.898644 0.491945 0.409181 0.006085
C52   C     C_R   0.101637 0.525850 0.591544 0.066395
C53   C     C_R   0.515618 0.991712 0.964045 0.053711
C54   C     C_R   0.483513 0.986686 0.034235 0.045800
C55   C     C_R   0.984383 0.491728 0.535957 0.053712
C56   C     C_R   0.016488 0.486683 0.465768 0.045801
C57   C     C_R   0.511335 0.974625 0.130667 -0.200886
C58   C     C_R   0.487958 0.006868 0.867606 -0.228165
C59   C     C_R   0.988667 0.474591 0.369337 -0.200878
C60   C     C_R   0.012043 0.506906 0.632395 -0.228169
C61   C     C_R   0.568563 0.974703 0.159273 -0.011456
C62   C     C_R   0.430765 0.016456 0.839066 -0.034179
C63   C     C_R   0.931439 0.474643 0.340730 -0.011434
C64   C     C_R   0.069235 0.516500 0.660934 -0.034178
H5    H     H_    0.406649 0.955942 0.147558 0.153014
H6    H     H_    0.591342 0.950514 0.849697 0.141818
H7    H     H_    0.093353 0.455915 0.352446 0.153017
H8    H     H_    0.908658 0.450602 0.650309 0.141824
H9    H     H_    0.266709 0.101578 0.935851 0.146547
H10   H     H_    0.734585 0.034951 0.065399 0.139225
H11   H     H_    0.233290 0.601615 0.564146 0.146554
H12   H     H_    0.765411 0.534837 0.434593 0.139250
H13   H     H_    0.489679 0.963930 0.187305 0.166810
H14   H     H_    0.509876 0.011851 0.811138 0.180885
H15   H     H_    0.010323 0.463888 0.312700 0.166801
H16   H     H_    0.990125 0.511894 0.688864 0.180885
C65   C     C_2   0.061484 0.988880 0.217486 0.718496
O21   O     O_2   0.086733 0.109191 0.269472 -0.571524
O22   O     O_R   0.039354 0.836586 0.256662 -0.659180
H17   H     H_    0.046413 0.842909 0.328691 0.299172
C66   C     C_2   0.938922 0.995681 0.781605 0.728936
O23   O     O_2   0.913473 0.871625 0.732613 -0.558903
O24   O     O_R   0.961898 0.141100 0.738796 -0.678580
H18   H     H_    0.955722 0.125732 0.667215 0.295129
C67   C     C_2   0.438517 0.488920 0.282513 0.718486
O25   O     O_2   0.413265 0.609234 0.230533 -0.571526
O26   O     O_R   0.460652 0.336643 0.243330 -0.659174
H19   H     H_    0.453592 0.342978 0.171301 0.299172
C68   C     C_2   0.561077 0.495633 0.718395 0.728927
O27   O     O_2   0.586527 0.371571 0.767380 -0.558901
O28   O     O_R   0.538098 0.641036 0.761213 -0.678581
H20   H     H_    0.544275 0.625652 0.832793 0.295130
N1    N     N_3   0.147360 0.023269 0.937862 -0.652707
H21   H     H_    0.168615 0.898212 0.955899 0.215189
H22   H     H_    0.137152 0.028223 0.863471 0.266827
N2    N     N_3   0.853165 0.962506 0.061416 -0.664926
H23   H     H_    0.832655 0.090256 0.049724 0.233011
H24   H     H_    0.863456 0.941515 0.135074 0.271813
N3    N     N_3   0.352639 0.523215 0.562137 -0.652712
H25   H     H_    0.331386 0.398157 0.544092 0.215195
H26   H     H_    0.362846 0.528151 0.636529 0.266827
N4    N     N_3   0.646836 0.462572 0.438583 -0.664945
H27   H     H_    0.667345 0.590323 0.450286 0.233031
H28   H     H_    0.636545 0.441605 0.364923 0.271801
C69   C     C_2   0.591123 0.935729 0.261211 0.727023
O29   O     O_2   0.618030 0.794395 0.284663 -0.581151
O30   O     O_R   0.578423 0.054213 0.330368 -0.650146
H29   H     H_    0.595221 0.011082 0.397543 0.305184
C70   C     C_2   0.407284 0.001205 0.735200 0.835788
O31   O     O_2   0.370335 0.889957 0.705348 -0.550949
O32   O     O_R   0.429730 0.106209 0.671274 -0.671625
H30   H     H_    0.410998 0.081334 0.602433 0.297954
C71   C     C_2   0.908882 0.435632 0.238796 0.727012
O33   O     O_2   0.881993 0.294259 0.215354 -0.581159
O34   O     O_R   0.921565 0.554131 0.169630 -0.650151
H31   H     H_    0.904772 0.510971 0.102459 0.305180
C72   C     C_2   0.092717 0.501265 0.764802 0.835782
O35   O     O_2   0.129669 0.390026 0.794658 -0.550950
O36   O     O_R   0.070269 0.606272 0.828724 -0.671624
H32   H     H_    0.089001 0.581405 0.897566 0.297954
N5    N     N_3   0.689039 0.075024 0.209227 -0.656951
H33   H     H_    0.696670 0.959163 0.253831 0.275399
H34   H     H_    0.667009 0.177521 0.236564 0.242787
N6    N     N_3   0.314684 0.135503 0.791499 -0.650504
H35   H     H_    0.280688 0.050175 0.765241 0.249714
H36   H     H_    0.300127 0.270379 0.798146 0.230549
N7    N     N_3   0.810954 0.574854 0.290760 -0.656940
H37   H     H_    0.803338 0.458963 0.246174 0.275401
H38   H     H_    0.832974 0.677361 0.263408 0.242792
N8    N     N_3   0.185315 0.635566 0.708496 -0.650506
H39   H     H_    0.219312 0.550247 0.734759 0.249721
H40   H     H_    0.199869 0.770443 0.701842 0.230544

loop_
_geom_bond_atom_site_label_1
_geom_bond_atom_site_label_2
_ccdc_geom_bond_type
O17   V3    S    
C23   C68   S    
C20   N3    S    
O1    C5    A    
C59   C63   A    
O19   V1    S    
O13   V1    S    
O3    C7    A    
O24   H18   S    
C56   C59   A    
C44   C48   A    
O15   V3    S    
C48   C56   A    
C53   C54   A    
N5    H33   S    
O30   H29   S    
C14   C25   A    
C35   C51   A    
C50   C62   A    
O7    C3    A    
C65   O22   S    
C49   C61   A    
C34   N6    S    
C9    C18   A    
C36   C40   A    
C38   H9    S    
O9    V1    S    
O10   V2    S    
C37   H10   S    
C14   C18   A    
N5    H34   S    
O4    C8    A    
C21   C66   S    
N7    H38   S    
C32   C44   A    
O26   H19   S    
C22   C65   S    
O1    V3    S    
C12   C23   A    
O2    V4    S    
O3    V1    S    
C42   C46   A    
O36   H32   S    
C31   C39   A    
C44   H7    S    
C71   O33   D    
C1    O15   A    
C15   H3    S    
C60   C64   A    
C2    O16   A    
C16   H4    S    
O2    C6    A    
O22   H17   S    
C41   C45   A    
O14   V2    S    
C3    C30   S    
C16   C20   A    
C51   C63   A    
C53   C58   A    
C13   H1    S    
O11   C7    A    
C55   C60   A    
C70   O31   D    
O12   C8    A    
N8    H40   S    
C9    C22   A    
C36   C52   A    
C10   C17   A    
C46   C54   A    
C11   C24   A    
C45   C53   A    
C60   H16   S    
C30   C38   A    
C72   O35   D    
O5    V1    S    
O32   H30   S    
C35   C39   A    
O7    V3    S    
C34   C38   A    
C27   C28   A    
O8    V4    S    
C42   H5    S    
C61   C69   S    
C41   H6    S    
C58   C62   A    
C33   C49   A    
C57   C61   A    
O18   V4    S    
C30   C42   A    
C15   C19   A    
C43   H8    S    
C7    C9    S    
C8    C10   S    
C15   C28   A    
C71   O34   S    
C52   C64   A    
N4    H28   S    
N3    H26   S    
O5    C1    A    
C70   O32   S    
C55   C56   A    
C14   H2    S    
C21   C25   A    
O8    C4    A    
O9    C5    A    
C10   C21   A    
C11   C20   A    
N1    H21   S    
C39   H12   S    
C59   H15   S    
C4    C29   S    
O6    V2    S    
N6    H36   S    
N8    H39   S    
C36   N8    S    
N3    H25   S    
C54   C57   A    
C62   C70   S    
C57   H13   S    
C17   N2    S    
N2    H24   S    
C67   O25   D    
O16   V4    S    
C3    O13   A    
C64   C72   S    
C34   C50   A    
C19   N4    S    
C48   C52   A    
C29   C37   A    
O6    C2    A    
C23   C27   A    
O28   H20   S    
O11   V3    S    
C5    C11   S    
C63   C71   S    
O12   V4    S    
C16   C27   A    
C6    C12   S    
C65   O21   D    
C22   C26   A    
C1    C32   S    
O10   C6    A    
C68   O28   S    
C2    C31   S    
C40   H11   S    
C35   N7    S    
C66   O23   D    
C43   C47   A    
C13   C26   A    
C47   C55   A    
C69   O29   D    
C33   N5    S    
C72   O36   S    
C66   O24   S    
O20   V2    S    
N4    H27   S    
C13   C17   A    
N1    H22   S    
C33   C37   A    
C24   C28   A    
N6    H35   S    
C32   C40   A    
C25   C26   A    
C46   C50   A    
C4    O14   A    
N7    H37   S    
C69   O30   S    
C45   C49   A    
C24   C67   S    
C12   C19   A    
C29   C41   A    
C68   O27   D    
C47   C51   A    
O4    V2    S    
O34   H31   S    
C18   N1    S    
C31   C43   A    
N2    H23   S    
C67   O26   S    
C58   H14   S    
