data_mof_unit_15166.cif
_audit_creation_date              2012-12-10T16:37:35-0500
_audit_creation_method            fapswitch 2.2
_symmetry_space_group_name_H-M    P1
_symmetry_Int_Tables_number       1
_space_group_crystal_system       triclinic
_cell_length_a                    10.824531
_cell_length_b                    10.927214
_cell_length_c                    15.476178
_cell_angle_alpha                 97.321306
_cell_angle_beta                  74.102538
_cell_angle_gamma                 98.921578
_cell_volume                      1732.27414611

loop_
_atom_site_label
_atom_site_type_symbol
_atom_type_description
_atom_site_fract_x
_atom_site_fract_y
_atom_site_fract_z
_atom_type_partial_charge
C1    C     C_R   0.157657 0.477568 0.521146 0.855063
C2    C     C_R   0.487950 0.464332 0.120896 -0.013223
C3    C     C_R   0.681557 0.362974 0.105250 0.023696
C4    C     C_R   0.842642 0.523289 0.480166 0.842916
C5    C     C_R   0.400660 0.562384 0.844299 -0.191218
C6    C     C_2   0.981588 0.538723 0.473408 -0.076673
C7    C     C_2   0.022912 0.472241 0.524947 -0.339419
C8    C     C_2   0.542432 0.968883 0.477034 -0.088899
C9    C     C_2   0.447998 0.037315 0.527529 -0.009863
C10   C     C_R   0.467204 0.168728 0.520226 0.896830
C11   C     C_R   0.529295 0.834121 0.480924 0.850371
C12   C     C_R   0.350159 0.707852 0.979814 0.204295
C13   C     C_R   0.555819 0.444571 0.258055 0.805824
C14   C     C_R   0.438634 0.549204 0.743089 0.791353
C15   C     C_R   0.687067 0.328140 0.012306 0.090496
C16   C     C_R   0.576548 0.424306 0.159768 -0.086238
C17   C     C_R   0.331567 0.661703 0.893621 0.131544
C18   C     C_3   0.779332 0.325676 0.148252 -0.422717
C19   C     C_3   0.739880 0.192152 0.175859 -0.348104
C20   C     C_3   0.847628 0.146619 0.204391 -0.921650
C21   C     C_3   0.666575 0.027623 0.414449 -0.414938
C22   C     C_3   0.777976 0.049677 0.459629 -0.834191
C23   C     C_R   0.422009 0.645436 0.018320 -0.281663
C24   C     C_3   0.318323 0.983303 0.587556 -0.400821
C25   C     C_3   0.218664 0.074971 0.626095 -0.932921
C26   C     C_3   0.791339 0.252524 0.951920 -0.428634
C27   C     C_3   0.893042 0.334383 0.886194 -0.335938
C28   C     C_3   0.999789 0.260922 0.827460 -0.906301
C29   C     C_3   0.349300 0.475544 0.177696 -0.410510
C30   C     C_3   0.270591 0.345708 0.183868 -0.292997
C31   C     C_3   0.137128 0.349503 0.249272 -0.898682
C32   C     C_3   0.228742 0.707131 0.859794 -0.369817
C33   C     C_3   0.275237 0.830987 0.818138 -0.819742
C34   C     C_R   0.459141 0.528968 0.980476 0.031402
C35   C     C_3   0.296455 0.822666 0.034087 -0.411562
C36   C     C_3   0.402498 0.933577 0.028949 -0.874789
C37   C     C_3   0.413099 0.276651 0.799680 -0.345307
C38   C     C_3   0.335087 0.168425 0.852134 -0.960623
C39   C     C_3   0.072347 0.628879 0.409750 -0.395496
C40   C     C_3   0.061497 0.763831 0.449588 -0.323553
C41   C     C_3   0.156609 0.854853 0.388544 -0.892631
C42   C     C_R   0.448082 0.485833 0.892701 0.005963
C43   C     C_R   0.515991 0.458030 0.026190 0.043659
C44   C     C_R   0.596991 0.370808 0.974964 0.034495
C45   C     C_R   0.575794 0.321570 0.890958 -0.250062
C46   C     C_R   0.484993 0.366573 0.857839 0.204911
H1    H     H_    0.956801 0.406501 0.568377 0.148350
H2    H     H_    0.788865 0.389045 0.208650 0.204721
H3    H     H_    0.754482 0.114160 0.521699 0.269430
H4    H     H_    0.797176 0.960433 0.477496 0.253971
H5    H     H_    0.867066 0.091711 0.412644 0.244439
H6    H     H_    0.693354 0.965249 0.351617 0.223854
H7    H     H_    0.654865 0.116634 0.392020 0.198695
H8    H     H_    0.258709 0.156045 0.665393 0.255025
H9    H     H_    0.188346 0.107728 0.570904 0.276992
H10   H     H_    0.131547 0.027580 0.671746 0.251564
H11   H     H_    0.271752 0.907238 0.547936 0.241782
H12   H     H_    0.616401 0.239323 0.855675 0.151883
H13   H     H_    0.337031 0.946066 0.645550 0.237006
H14   H     H_    0.050085 0.223630 0.870150 0.268037
H15   H     H_    0.958303 0.182641 0.786500 0.264987
H16   H     H_    0.071894 0.322824 0.781149 0.243863
H17   H     H_    0.846841 0.372994 0.841569 0.230324
H18   H     H_    0.937553 0.413409 0.925050 0.217915
H19   H     H_    0.842294 0.209035 0.990427 0.214308
H20   H     H_    0.747138 0.171689 0.914857 0.187800
H21   H     H_    0.146218 0.389371 0.317063 0.286081
H22   H     H_    0.078741 0.405820 0.224730 0.252687
H23   H     H_    0.443058 0.685418 0.081332 0.158819
H24   H     H_    0.086813 0.253360 0.255215 0.251546
H25   H     H_    0.258771 0.308026 0.115957 0.210245
H26   H     H_    0.322014 0.280457 0.206419 0.244604
H27   H     H_    0.348698 0.522114 0.245868 0.192019
H28   H     H_    0.296770 0.532480 0.149421 0.197946
H29   H     H_    0.283331 0.907652 0.870910 0.250286
H30   H     H_    0.371056 0.829601 0.768609 0.274263
H31   H     H_    0.203885 0.850504 0.783665 0.238809
H32   H     H_    0.194487 0.636435 0.810574 0.219333
H33   H     H_    0.139750 0.715497 0.915502 0.170053
H34   H     H_    0.821542 0.046873 0.216374 0.252752
H35   H     H_    0.477516 0.915509 0.060726 0.254362
H36   H     H_    0.449107 0.951878 0.957625 0.258821
H37   H     H_    0.359804 0.017761 0.065298 0.247803
H38   H     H_    0.215688 0.849265 0.012721 0.209926
H39   H     H_    0.255230 0.803184 0.105851 0.192800
H40   H     H_    0.400681 0.112505 0.869507 0.264169
H41   H     H_    0.267524 0.203647 0.915145 0.266822
H42   H     H_    0.277657 0.107383 0.810403 0.266215
H43   H     H_    0.342670 0.321597 0.778181 0.187885
H44   H     H_    0.483205 0.239913 0.738785 0.239121
H45   H     H_    0.939718 0.156408 0.150535 0.268567
H46   H     H_    0.257742 0.837328 0.380476 0.252358
H47   H     H_    0.136593 0.845195 0.321161 0.261561
H48   H     H_    0.146257 0.951578 0.419076 0.260865
H49   H     H_    0.961632 0.785641 0.458345 0.227714
H50   H     H_    0.082101 0.776472 0.516901 0.226494
H51   H     H_    0.174774 0.611503 0.395034 0.191955
H52   H     H_    0.047377 0.614664 0.343816 0.207203
H53   H     H_    0.861200 0.200747 0.267582 0.265298
H54   H     H_    0.651250 0.188891 0.232983 0.219384
H55   H     H_    0.716984 0.127565 0.119284 0.222331
H56   H     H_    0.878008 0.337441 0.101936 0.203055
O1    O     O_3   0.500000 0.500000 0.500000 -0.470482
O2    O     O_R   0.463530 0.379110 0.309170 -0.645325
O3    O     O_R   0.388210 0.611730 0.699360 -0.640906
O4    O     O_R   0.624720 0.532760 0.292120 -0.649497
O5    O     O_R   0.523540 0.476390 0.699360 -0.644282
O6    O     O_R   0.537910 0.240570 0.564270 -0.666557
O7    O     O_R   0.438950 0.782540 0.540270 -0.671176
O8    O     O_R   0.222350 0.398740 0.468260 -0.646350
O9    O     O_R   0.800790 0.578160 0.427210 -0.653181
O10   O     O_R   0.212140 0.566330 0.564260 -0.638309
O11   O     O_R   0.764730 0.456770 0.540270 -0.643892
O12   O     O_R   0.412790 0.208310 0.468260 -0.654362
O13   O     O_R   0.610350 0.768590 0.427210 -0.638004
Zn1   Zn    Zn3+2 0.580150 0.419820 0.574680 0.933507
Zn2   Zn    Zn3+2 0.401380 0.373730 0.437510 0.936633
Zn3   Zn    Zn3+2 0.631680 0.593260 0.413140 0.947485
Zn4   Zn    Zn3+2 0.386790 0.613180 0.574670 0.931966

loop_
_geom_bond_atom_site_label_1
_geom_bond_atom_site_label_2
_ccdc_geom_bond_type
C5    C42   A    
C11   O7    A    
C35   H39   S    
C23   H23   S    
C10   O6    A    
C19   C20   S    
C34   C42   A    
C25   H10   S    
C30   H25   S    
C3    C15   A    
C45   C46   A    
C31   H21   S    
C12   C23   A    
C26   C27   S    
C29   C30   S    
C37   H44   S    
C38   H40   S    
O9    Zn3   S    
C15   C44   A    
C8    C11   S    
C1    O10   A    
C42   C46   A    
C30   C31   S    
C39   H51   S    
C5    C17   A    
C36   H37   S    
C3    C18   S    
C18   C19   S    
C18   H56   S    
C14   O3    A    
C33   H29   S    
C31   H24   S    
C41   H47   S    
C35   C36   S    
C36   H36   S    
C24   H11   S    
C12   C17   A    
C2    C16   A    
C9    C10   S    
C36   H35   S    
C10   O12   A    
C22   H4    S    
O11   Zn1   S    
C28   H15   S    
C23   C34   A    
C21   C22   S    
O4    Zn3   S    
O1    Zn2   S    
C40   H50   S    
O8    Zn2   S    
C28   H14   S    
C31   H22   S    
C20   H45   S    
C45   H12   S    
C20   H34   S    
C26   H20   S    
C4    O11   A    
C24   C25   S    
C4    C6    S    
C39   C40   S    
C8    C9    D    
C15   C26   S    
C29   H28   S    
C38   H42   S    
C12   C35   S    
C7    H1    S    
C43   C44   A    
C37   C38   S    
C1    O8    A    
C33   H30   S    
C41   H48   S    
C2    C43   A    
C35   H38   S    
O13   Zn3   S    
C8    C21   S    
C25   H8    S    
C13   O2    A    
C5    C14   S    
C27   H17   S    
C22   H3    S    
C40   C41   S    
C4    O9    A    
C2    C29   S    
O1    Zn3   S    
C40   H49   S    
C11   O13   A    
C44   C45   A    
O7    Zn4   S    
O2    Zn2   S    
C14   O5    A    
C1    C7    S    
C26   H19   S    
O1    Zn4   S    
C34   C43   A    
C25   H9    S    
C13   O4    A    
C39   H52   S    
C18   H2    S    
O10   Zn4   S    
C30   H26   S    
C19   H54   S    
C9    C24   S    
C6    C7    D    
C37   H43   S    
C38   H41   S    
C32   C33   S    
O6    Zn1   S    
O1    Zn1   S    
C32   H33   S    
C21   H7    S    
C19   H55   S    
C33   H31   S    
C20   H53   S    
C24   H13   S    
O5    Zn1   S    
O12   Zn2   S    
C27   H18   S    
C32   H32   S    
C41   H46   S    
C29   H27   S    
C13   C16   S    
C27   C28   S    
C17   C32   S    
C6    C39   S    
O3    Zn4   S    
C37   C46   S    
C21   H6    S    
C3    C16   A    
C22   H5    S    
C28   H16   S    
