data_mof_unit_39086.cif
_audit_creation_date              2012-12-11T17:12:53-0500
_audit_creation_method            fapswitch 2.2
_symmetry_space_group_name_H-M    P1
_symmetry_Int_Tables_number       1
_space_group_crystal_system       triclinic
_cell_length_a                    17.256678
_cell_length_b                    6.891019
_cell_length_c                    14.400621
_cell_angle_alpha                 90.290483
_cell_angle_beta                  110.226599
_cell_angle_gamma                 89.697614
_cell_volume                      1606.8303725

loop_
_atom_site_label
_atom_site_type_symbol
_atom_type_description
_atom_site_fract_x
_atom_site_fract_y
_atom_site_fract_z
_atom_type_partial_charge
O1    O     O_R   0.314130 0.635770 0.168990 -0.534234
O2    O     O_R   0.685870 0.364230 0.831010 -0.534266
O3    O     O_R   0.185870 0.135770 0.331010 -0.535022
O4    O     O_R   0.814130 0.864230 0.668990 -0.535021
O5    O     O_R   0.146800 0.302460 0.139760 -0.538659
O6    O     O_R   0.853200 0.697540 0.860240 -0.538642
O7    O     O_R   0.353200 0.802460 0.360240 -0.539521
O8    O     O_R   0.646800 0.197540 0.639760 -0.539522
C1    C     C_R   0.114035 0.475902 0.112777 0.719778
C2    C     C_R   0.885965 0.524098 0.887223 0.719783
C3    C     C_R   0.385965 0.975766 0.387214 0.724008
C4    C     C_R   0.614035 0.024234 0.612786 0.723999
O9    O     O_R   0.311100 0.305780 0.157130 -0.535663
O10   O     O_R   0.688900 0.694220 0.842870 -0.535623
O11   O     O_R   0.188900 0.805780 0.342870 -0.535315
O12   O     O_R   0.811100 0.194220 0.657130 -0.535313
O13   O     O_R   0.351340 0.139640 0.348510 -0.537900
O14   O     O_R   0.648660 0.860360 0.651490 -0.537904
O15   O     O_R   0.148660 0.639640 0.151490 -0.540335
O16   O     O_R   0.851340 0.360360 0.848510 -0.540342
C5    C     C_R   0.333782 0.473916 0.137307 0.697182
C6    C     C_R   0.666213 0.526084 0.862686 0.697205
C7    C     C_R   0.166101 0.975463 0.362460 0.695234
C8    C     C_R   0.833899 0.024537 0.637540 0.695233
C9    C     C_1   0.533580 0.008993 0.533041 -0.150369
C10   C     C_1   0.466420 0.991007 0.466959 -0.150374
C11   C     C_1   0.966413 0.508831 0.966953 -0.154090
C12   C     C_1   0.033587 0.491168 0.033047 -0.154085
O17   O     O_3   0.263010 0.470920 0.312770 -0.364785
O18   O     O_3   0.736990 0.529080 0.687230 -0.364788
O19   O     O_3   0.236990 0.970920 0.187230 -0.366166
O20   O     O_3   0.763010 0.029080 0.812770 -0.366166
V1    V     V_3+5 0.247590 0.194450 0.238360 1.488146
V2    V     V_3+5 0.752410 0.805550 0.761640 1.488184
V3    V     V_3+5 0.252410 0.694450 0.261640 1.484573
V4    V     V_3+5 0.747590 0.305550 0.738360 1.484547
C13   C     C_R   0.116100 0.989071 0.427288 -0.304082
C14   C     C_R   0.883900 0.010927 0.572711 -0.304074
C15   C     C_R   0.383998 0.479579 0.072515 -0.304886
C16   C     C_R   0.615987 0.520415 0.927466 -0.304977
C17   C     C_R   0.897877 0.902364 0.418099 0.450375
C18   C     C_R   0.102124 0.097615 0.581904 0.450371
C19   C     C_R   0.601867 0.589174 0.086898 0.449206
C20   C     C_R   0.398122 0.410744 0.913088 0.449147
C21   C     C_R   0.850099 0.922692 0.478513 0.308082
C22   C     C_R   0.149902 0.077292 0.521490 0.308079
C23   C     C_R   0.649699 0.588607 0.026014 0.304386
C24   C     C_R   0.350296 0.411286 0.973981 0.304344
C25   C     C_R   0.966588 0.079191 0.605723 0.329561
C26   C     C_R   0.033411 0.920812 0.394275 0.329576
C27   C     C_R   0.533344 0.452163 0.890563 0.329072
C28   C     C_R   0.466629 0.547909 0.109396 0.328967
C29   C     C_R   0.017227 0.044588 0.547411 -0.174486
C30   C     C_R   0.982772 0.955404 0.452589 -0.174471
C31   C     C_R   0.482821 0.465329 0.950400 -0.176566
C32   C     C_R   0.517157 0.534675 0.049569 -0.176711
O21   O     O_3   0.000872 0.816664 0.306849 -0.618473
H1    H     H_    0.034917 0.831075 0.264567 0.289123
O22   O     O_3   0.999125 0.183357 0.693143 -0.618475
H2    H     H_    0.965082 0.168944 0.735428 0.289121
O23   O     O_3   0.498993 0.632263 0.202337 -0.617602
H3    H     H_    0.467870 0.591940 0.245042 0.287796
O24   O     O_3   0.500959 0.367983 0.797583 -0.617614
H4    H     H_    0.532125 0.408236 0.754916 0.287799
O25   O     O_3   0.231110 0.139063 0.560382 -0.586266
H5    H     H_    0.263441 0.088717 0.520604 0.285521
O26   O     O_3   0.768893 0.860909 0.439625 -0.586257
H6    H     H_    0.736559 0.911277 0.479395 0.285516
O27   O     O_3   0.269100 0.351218 0.931576 -0.587809
H7    H     H_    0.236491 0.390996 0.973014 0.285420
O28   O     O_3   0.730911 0.648554 0.068436 -0.587779
H8    H     H_    0.763524 0.608577 0.027034 0.285380
O29   O     O_3   0.858017 0.834660 0.323503 -0.547325
H9    H     H_    0.865354 0.934933 0.278087 0.335878
O30   O     O_3   0.141986 0.165291 0.676505 -0.547341
H10   H     H_    0.134632 0.065023 0.721913 0.335871
O31   O     O_3   0.641550 0.638500 0.184594 -0.547676
H11   H     H_    0.635184 0.526333 0.224232 0.334053
O32   O     O_3   0.358454 0.361251 0.815414 -0.547666
H12   H     H_    0.364704 0.473468 0.775736 0.334127

loop_
_geom_bond_atom_site_label_1
_geom_bond_atom_site_label_2
_ccdc_geom_bond_type
C2    C11   S    
C16   C23   A    
C31   C32   A    
O1    C5    A    
O29   H9    S    
O3    C7    A    
C24   O27   S    
C14   C25   A    
O31   H11   S    
O9    V1    S    
C18   O30   S    
C26   C30   A    
O20   V4    S    
C28   O23   S    
C18   C29   A    
O8    V4    S    
O4    C8    A    
O3    V1    S    
O17   V1    S    
C18   C22   A    
C14   C21   A    
C1    O15   A    
C2    O16   A    
O5    V1    S    
C21   O26   S    
C8    C14   S    
O19   V1    S    
O11   C7    A    
C15   C28   A    
O22   H2    S    
O12   C8    A    
O23   H3    S    
O13   V1    S    
O11   V3    S    
O4    V2    S    
O18   V2    S    
O26   H6    S    
C27   O24   S    
C22   O25   S    
C3    C10   S    
C9    C10   T    
C7    C13   S    
O6    V2    S    
O20   V2    S    
O7    C3    A    
O30   H10   S    
O2    C6    A    
C5    C15   S    
O8    C4    A    
C6    C16   S    
O9    C5    A    
O14   V2    S    
C23   O28   S    
O19   V3    S    
O1    V3    S    
O2    V4    S    
C3    O13   A    
C26   O21   S    
O7    V3    S    
C20   O32   S    
O5    C1    A    
O24   H4    S    
O10   V2    S    
C29   C30   A    
C19   O31   S    
C16   C27   A    
O17   V3    S    
C25   O22   S    
O18   V4    S    
C4    C9    S    
O10   C6    A    
O28   H8    S    
O15   V3    S    
O12   V4    S    
C13   C26   A    
C20   C31   A    
O21   H1    S    
C25   C29   A    
C27   C31   A    
O27   H7    S    
C17   C30   A    
O6    C2    A    
C17   O29   S    
O32   H12   S    
O16   V4    S    
C28   C32   A    
C19   C32   A    
O25   H5    S    
C4    O14   A    
C11   C12   T    
C17   C21   A    
C13   C22   A    
C19   C23   A    
C20   C24   A    
C1    C12   S    
C15   C24   A    
