data_mof_unit_45829.cif
_audit_creation_date              2012-12-10T20:49:26-0500
_audit_creation_method            fapswitch 2.2
_symmetry_space_group_name_H-M    P1
_symmetry_Int_Tables_number       1
_space_group_crystal_system       triclinic
_cell_length_a                    15.793622
_cell_length_b                    8.998304
_cell_length_c                    8.138875
_cell_angle_alpha                 89.203132
_cell_angle_beta                  91.562881
_cell_angle_gamma                 91.735999
_cell_volume                      1155.60281029

loop_
_atom_site_label
_atom_site_type_symbol
_atom_type_description
_atom_site_fract_x
_atom_site_fract_y
_atom_site_fract_z
_atom_type_partial_charge
C1    C     C_1   0.501230 0.065128 0.501185 -0.201396
C2    C     C_3   0.981472 0.623983 0.601813 0.318062
C3    C     C_1   0.248978 0.489437 0.491608 -0.202413
C4    C     C_1   0.750427 0.519360 0.508759 -0.225949
C5    C     C_3   0.033419 0.486784 0.649217 0.363623
C6    C     C_3   0.965811 0.541862 0.353285 0.284956
C7    C     C_3   0.083889 0.503293 0.489491 -0.273653
C8    C     C_3   0.915571 0.521645 0.513681 -0.267693
C9    C     C_1   0.173976 0.490363 0.487632 0.041758
C10   C     C_1   0.825326 0.526401 0.514166 0.009469
C11   C     C_3   0.962918 0.238315 0.201574 0.143806
C12   C     C_1   0.501447 0.935010 0.499182 -0.198179
C13   C     C_3   0.934889 0.081679 0.255561 -0.377180
C14   C     C_3   0.840304 0.050077 0.216562 -1.043892
C15   C     C_3   0.021042 0.853463 0.711736 0.157831
C16   C     C_3   0.023390 0.933550 0.874986 -0.395479
C17   C     C_3   0.096786 0.048140 0.884243 -0.927487
C18   C     C_3   0.863554 0.198537 0.622137 0.077266
C19   C     C_3   0.816849 0.234948 0.777981 -0.345436
C20   C     C_3   0.727730 0.164451 0.776731 -0.919012
C21   C     C_3   0.131695 0.793409 0.300951 0.100414
C22   C     C_3   0.197726 0.867753 0.416586 -0.375675
C23   C     C_R   0.500330 0.217997 0.500756 0.928987
C24   C     C_3   0.281443 0.897891 0.331572 -0.924547
C25   C     C_3   0.881573 0.692740 0.186207 0.179766
C26   C     C_3   0.794196 0.649075 0.112654 -0.409997
C27   C     C_3   0.793734 0.654469 0.925457 -0.772042
C28   C     C_3   0.128206 0.537722 0.869434 0.141052
C29   C     C_3   0.197518 0.439670 0.941927 -0.361528
C30   C     C_3   0.275425 0.531178 0.998468 -0.887721
C31   C     C_R   0.500785 0.782050 0.499342 0.933418
C32   C     C_R   0.337603 0.495216 0.497719 0.901806
C33   C     C_R   0.662213 0.505649 0.502303 0.891200
C34   C     C_3   0.967722 0.383883 0.559834 0.353331
C35   C     C_3   0.032129 0.642548 0.441108 0.255431
C36   C     C_3   0.017300 0.402816 0.400242 0.365216
H1    H     H_    0.978100 0.237901 0.069341 0.193285
H2    H     H_    0.962429 0.989261 0.890992 0.234195
H3    H     H_    0.032047 0.850190 0.974758 0.217306
H4    H     H_    0.158130 0.993372 0.868899 0.240403
H5    H     H_    0.098886 0.102013 0.006016 0.276276
H6    H     H_    0.089089 0.134713 0.786974 0.325058
H7    H     H_    0.861651 0.075570 0.611257 0.165953
H8    H     H_    0.831031 0.241287 0.509356 0.142278
H9    H     H_    0.853082 0.193364 0.886689 0.229195
H10   H     H_    0.812485 0.356428 0.789706 0.235783
H11   H     H_    0.690710 0.202659 0.666974 0.265038
H12   H     H_    0.908055 0.311296 0.210443 0.170758
H13   H     H_    0.694754 0.197126 0.888868 0.274615
H14   H     H_    0.730827 0.041283 0.775442 0.255439
H15   H     H_    0.125184 0.866008 0.190761 0.165411
H16   H     H_    0.152305 0.685187 0.255387 0.144480
H17   H     H_    0.173341 0.975237 0.458189 0.246235
H18   H     H_    0.209020 0.796380 0.526747 0.202464
H19   H     H_    0.310179 0.791812 0.298234 0.269845
H20   H     H_    0.325743 0.958846 0.416498 0.262917
H21   H     H_    0.271644 0.967266 0.219068 0.266586
H22   H     H_    0.911625 0.779335 0.107966 0.178486
H23   H     H_    0.974031 0.999589 0.195403 0.230843
H24   H     H_    0.873134 0.744312 0.307788 0.128467
H25   H     H_    0.775239 0.535141 0.154796 0.242822
H26   H     H_    0.746432 0.726980 0.155653 0.195717
H27   H     H_    0.802556 0.771019 0.880780 0.253119
H28   H     H_    0.732208 0.609191 0.876154 0.253257
H29   H     H_    0.845697 0.587359 0.880068 0.308434
H30   H     H_    0.103728 0.607418 0.968056 0.166291
H31   H     H_    0.156476 0.613581 0.775641 0.098954
H32   H     H_    0.172444 0.374570 0.048053 0.253764
H33   H     H_    0.216612 0.360337 0.847176 0.235803
H34   H     H_    0.947345 0.067545 0.388608 0.264562
H35   H     H_    0.300516 0.600223 0.895676 0.270631
H36   H     H_    0.325209 0.454931 0.042844 0.281693
H37   H     H_    0.259677 0.604880 0.100183 0.248719
H38   H     H_    0.801523 0.149600 0.231430 0.268598
H39   H     H_    0.814751 0.964807 0.302724 0.260564
H40   H     H_    0.831143 0.009901 0.088942 0.273059
H41   H     H_    0.003142 0.933859 0.613269 0.198907
H42   H     H_    0.086076 0.815407 0.691199 0.125759
N1    N     N_1   0.500010 0.500000 0.073640 -0.044192
N2    N     N_1   0.499990 0.500000 0.926360 -0.040602
O1    O     O_R   0.500000 0.285340 0.636850 -0.612692
O2    O     O_3   0.960582 0.734428 0.714819 -0.639594
O3    O     O_3   0.949560 0.244653 0.636979 -0.625295
O4    O     O_3   0.052448 0.785574 0.376055 -0.674488
O5    O     O_3   0.934060 0.568515 0.191684 -0.618001
O6    O     O_3   0.061277 0.444571 0.809164 -0.594107
O7    O     O_R   0.500000 0.714660 0.363150 -0.614595
O8    O     O_R   0.500000 0.285340 0.363150 -0.612116
O9    O     O_R   0.500000 0.714660 0.636850 -0.613800
O10   O     O_R   0.376770 0.500000 0.636850 -0.620260
O11   O     O_R   0.623230 0.500000 0.363150 -0.623724
O12   O     O_R   0.376780 0.500000 0.363100 -0.623978
O13   O     O_R   0.623220 0.500000 0.636900 -0.619220
O14   O     O_3   0.036448 0.286952 0.292534 -0.623484
Zn1   Zn    Zn3+2 0.499990 0.500000 0.682780 0.971652
Zn2   Zn    Zn3+2 0.500010 0.500000 0.317220 0.968413

loop_
_geom_bond_atom_site_label_1
_geom_bond_atom_site_label_2
_ccdc_geom_bond_type
C2    C35   S    
O8    Zn2   S    
C7    C36   S    
C19   C20   S    
C30   H35   S    
C19   H10   S    
O10   Zn1   S    
C22   H18   S    
C15   H41   S    
C24   H19   S    
C26   C27   S    
C29   C30   S    
C6    O5    S    
C3    C9    T    
C14   H38   S    
C28   C29   S    
C26   H25   S    
C33   O11   A    
O1    Zn1   S    
C15   H42   S    
C13   H34   S    
C15   C16   S    
O12   Zn2   S    
C6    C35   S    
C18   C19   S    
C11   H1    S    
C17   H6    S    
C20   H14   S    
O11   Zn2   S    
C32   O10   A    
C16   C17   S    
C31   O9    A    
C25   H24   S    
C22   H17   S    
O13   Zn1   S    
C13   C14   S    
O7    Zn2   S    
C11   H12   S    
C1    C12   T    
C15   O2    S    
C29   H33   S    
C31   O7    A    
C28   H31   S    
C5    C7    S    
C30   H37   S    
C24   H21   S    
C6    C8    S    
C25   C26   S    
C17   H4    S    
C14   H40   S    
O9    Zn1   S    
C28   H30   S    
C20   H13   S    
C27   H29   S    
C18   H8    S    
C29   H32   S    
C21   O4    S    
C5    C34   S    
C25   O5    S    
C18   O3    S    
C8    C34   S    
N2    Zn1   S    
C27   H27   S    
C5    O6    S    
C11   O14   S    
C1    C23   S    
C23   O8    A    
C12   C31   S    
C28   O6    S    
C22   C24   S    
C2    O2    S    
C2    C5    S    
C34   O3    S    
C4    C10   T    
C21   H15   S    
C7    C9    S    
C4    C33   S    
C23   O1    A    
C7    C35   S    
C2    C8    S    
C33   O13   A    
C30   H36   S    
C35   O4    S    
C19   H9    S    
C13   H23   S    
C24   H20   S    
C14   H39   S    
C26   H26   S    
N1    Zn2   S    
C18   H7    S    
C11   C13   S    
C32   O12   A    
C6    C36   S    
C34   C36   S    
C3    C32   S    
C17   H5    S    
C20   H11   S    
C27   H28   S    
C16   H3    S    
N1    N2    T    
C36   O14   S    
C8    C10   S    
C25   H22   S    
C21   C22   S    
C21   H16   S    
C16   H2    S    
