data_mof_unit_13585.cif
_audit_creation_date              2013-03-05T16:47:41-0500
_audit_creation_method            fapswitch 2.2
_symmetry_space_group_name_H-M    P1
_symmetry_Int_Tables_number       1
_space_group_crystal_system       triclinic
_cell_length_a                    8.91775
_cell_length_b                    8.12073
_cell_length_c                    10.573523
_cell_angle_alpha                 89.228415
_cell_angle_beta                  90.126101
_cell_angle_gamma                 89.973723
_cell_volume                      765.648778204

loop_
_atom_site_label
_atom_site_type_symbol
_atom_site_description
_atom_site_fract_x
_atom_site_fract_y
_atom_site_fract_z
_atom_type_partial_charge
O1    O     O_R   0.285350 0.636850 0.500000 -0.615836
O2    O     O_R   0.714650 0.363150 0.500000 -0.615840
O3    O     O_R   0.714650 0.636850 0.500000 -0.602342
O4    O     O_R   0.285350 0.363150 0.500000 -0.602342
C1    C     C_R   0.218078 0.500021 0.500193 0.932815
C2    C     C_R   0.781922 0.499979 0.499806 0.932816
O5    O     O_R   0.499970 0.636850 0.313950 -0.596948
O6    O     O_R   0.500030 0.363150 0.686050 -0.596950
O7    O     O_R   0.500030 0.636850 0.686050 -0.602723
O8    O     O_R   0.499970 0.363150 0.313950 -0.602728
C3    C     C_R   0.490059 0.501438 0.257439 0.953974
C4    C     C_R   0.509942 0.498562 0.742561 0.953975
Zn1   Zn    Zn3+2 0.500000 0.682780 0.500000 1.066050
Zn2   Zn    Zn3+2 0.500000 0.317220 0.500000 1.066047
C5    C     C_3   0.454336 0.650962 0.033999 -0.052610
C6    C     C_3   0.545664 0.349037 0.966001 -0.052610
C7    C     C_3   0.599257 0.613761 0.960759 -0.102360
C8    C     C_3   0.400743 0.386239 0.039240 -0.102357
C9    C     C_3   0.366234 0.532161 0.949139 0.058814
C10   C     C_3   0.633766 0.467839 0.050861 0.058812
C11   C     C_3   0.511081 0.495301 0.876629 -0.058295
C12   C     C_3   0.488919 0.504699 0.123371 -0.058296
C13   C     C_1   0.065238 0.500033 0.500072 -0.144422
C14   C     C_1   0.934762 0.499966 0.499928 -0.144420
N1    N     N_1   0.500000 0.073640 0.500000 0.014007
N2    N     N_1   0.500000 0.926360 0.500000 0.014007
C15   C     C_3   0.213381 0.567417 0.889524 -0.879183
H1    H     H_    0.220189 0.679125 0.828191 0.252818
H2    H     H_    0.178054 0.461179 0.831628 0.232251
H3    H     H_    0.129329 0.587863 0.964967 0.257212
C16   C     C_3   0.786619 0.432583 0.110476 -0.879175
H4    H     H_    0.779800 0.320902 0.171840 0.252816
H5    H     H_    0.870662 0.412086 0.035030 0.257213
H6    H     H_    0.821968 0.538845 0.168340 0.232252
C17   C     C_2   0.397331 0.820857 0.060665 0.395936
H7    H     H_    0.384269 0.908057 0.982906 0.048982
O9    O     O_2   0.362936 0.861360 0.167334 -0.528730
C18   C     C_2   0.602670 0.179143 0.939335 0.395931
H8    H     H_    0.615733 0.091944 0.017095 0.048987
O10   O     O_2   0.637063 0.138639 0.832665 -0.528732
C19   C     C_2   0.715385 0.738573 0.922960 0.439011
H9    H     H_    0.763548 0.817543 0.994244 0.062393
O11   O     O_2   0.757665 0.750867 0.813624 -0.530809
C20   C     C_2   0.284615 0.261427 0.077040 0.439004
H10   H     H_    0.236452 0.182457 0.005755 0.062397
O12   O     O_2   0.242335 0.249132 0.186376 -0.530809

loop_
_geom_bond_atom_site_label_1
_geom_bond_atom_site_label_2
_geom_bond_distance
_ccdc_geom_bond_type
C18   O10   1.218926 D    
C13   C14   1.163551 T    
C16   H5    1.109900 S    
C6    C11   1.538515 S    
C8    C20   1.500464 S    
C15   H2    1.109920 S    
C9    C15   1.525890 S    
C19   H9    1.084294 S    
C3    C12   1.417480 S    
C16   H4    1.109768 S    
C1    C13   1.362990 S    
C6    C10   1.540789 S    
O6    C4    1.261587 A    
O3    C2    1.262841 A    
C2    C14   1.362990 S    
C16   H6    1.109943 S    
C8    C12   1.534830 S    
C15   H3    1.109878 S    
O5    C3    1.261587 A    
C19   O11   1.219613 D    
O2    C2    1.262976 A    
O1    C1    1.262976 A    
C5    C17   1.500624 S    
C17   O9    1.218927 D    
C10   C12   1.534959 S    
Zn2   N1    1.978047 S    
O4    Zn2   1.950027 S    
C18   H8    1.083895 S    
O2    Zn2   1.950363 S    
O7    C4    1.267904 A    
C7    C19   1.500464 S    
Zn1   N2    1.978047 S    
O1    Zn1   1.950363 S    
O8    C3    1.267904 A    
O5    Zn1   2.007179 S    
C7    C10   1.540940 S    
C20   H10   1.084294 S    
C6    C8    1.539979 S    
C8    C9    1.540940 S    
O8    Zn2   1.997310 S    
C6    C18   1.500623 S    
C15   H1    1.109746 S    
C5    C7    1.539980 S    
O7    Zn1   1.997310 S    
O6    Zn2   2.007179 S    
C9    C11   1.534959 S    
N1    N2    1.196020 T    
C5    C9    1.540790 S    
C4    C11   1.417480 S    
C5    C12   1.538514 S    
C7    C11   1.534828 S    
C17   H7    1.083893 S    
C20   O12   1.219615 D    
O4    C1    1.262841 A    
C10   C16   1.525889 S    
O3    Zn1   1.950027 S    
