data_mof_unit_52360.cif
_audit_creation_date              2012-10-26T21:01:02-0400
_audit_creation_method            fapswitch 2.2
_symmetry_space_group_name_H-M    P1
_symmetry_Int_Tables_number       1
_space_group_crystal_system       triclinic
_cell_length_a                    10.910615
_cell_length_b                    10.84647
_cell_length_c                    9.58446
_cell_angle_alpha                 89.741528
_cell_angle_beta                  89.245388
_cell_angle_gamma                 91.378454
_cell_volume                      1133.80108067

loop_
_atom_site_label
_atom_site_type_symbol
_atom_type_description
_atom_site_fract_x
_atom_site_fract_y
_atom_site_fract_z
_atom_type_partial_charge
C1    C     C_R   0.500046 0.262569 0.500287 0.541082
C2    C     C_R   0.400045 0.461084 0.076997 0.024484
C3    C     C_R   0.400473 0.457385 0.929254 0.305365
C4    C     C_R   0.265320 0.497039 0.500833 0.542921
C5    C     C_R   0.605908 0.522488 0.924557 0.085563
C6    C     C_3   0.693837 0.629227 0.910631 0.174421
C7    C     C_3   0.687361 0.638428 0.069642 0.461434
C8    C     C_R   0.498205 0.737467 0.499858 0.549457
C9    C     C_R   0.734583 0.500702 0.499463 0.552005
C10   C     C_2   0.933524 0.473997 0.388989 -0.155166
C11   C     C_2   0.866823 0.506604 0.500369 -0.126343
C12   C     C_R   0.506201 0.129587 0.500052 -0.003365
C13   C     C_2   0.067654 0.482008 0.387342 -0.156739
C14   C     C_2   0.132951 0.487693 0.504715 -0.122715
C15   C     C_R   0.514483 0.063485 0.624741 0.014520
C16   C     C_3   0.512445 0.125948 0.883285 -0.254745
C17   C     C_3   0.650079 0.097711 0.885722 -0.287080
C18   C     C_3   0.711017 0.152571 0.014462 -0.435755
C19   C     C_3   0.300016 0.879381 0.735071 -0.266720
C20   C     C_3   0.223664 0.887664 0.870002 -0.307059
C21   C     C_3   0.095014 0.832295 0.851010 -0.437273
C22   C     C_R   0.507437 0.065168 0.373192 -0.167856
C23   C     C_R   0.505570 0.936855 0.372979 -0.154000
C24   C     C_R   0.501193 0.870961 0.499538 -0.001258
C25   C     C_R   0.508429 0.936397 0.624624 0.028047
C26   C     C_3   0.431552 0.930461 0.756281 -0.109683
C27   C     C_3   0.441395 0.071657 0.757924 -0.120910
C28   C     C_R   0.605659 0.524283 0.071439 0.133768
Cu1   Cu    Cu3+1 0.499990 0.499980 0.640670 0.981695
Cu2   Cu    Cu3+1 0.500010 0.500020 0.359330 0.956099
H1    H     H_    0.888989 0.442980 0.294296 0.181164
H2    H     H_    0.352512 0.117712 0.742133 0.127653
H3    H     H_    0.697342 0.253658 0.018892 0.152713
H4    H     H_    0.672308 0.108460 0.110477 0.164983
H5    H     H_    0.810957 0.135666 0.009980 0.150202
H6    H     H_    0.663289 0.996695 0.886270 0.179368
H7    H     H_    0.696656 0.137849 0.791602 0.173650
H8    H     H_    0.503337 0.227454 0.881316 0.164228
H9    H     H_    0.467474 0.091596 0.981221 0.135478
H10   H     H_    0.332082 0.349582 0.793249 0.346782
H11   H     H_    0.712739 0.788501 0.823652 0.311320
H12   H     H_    0.319362 0.428594 0.133942 0.146367
H13   H     H_    0.800405 0.657078 0.223571 0.366488
H14   H     H_    0.546455 0.747644 0.082431 0.322644
H15   H     H_    0.046297 0.882903 0.768263 0.147708
H16   H     H_    0.099913 0.733422 0.822100 0.168677
H17   H     H_    0.041947 0.839355 0.950203 0.164025
H18   H     H_    0.269430 0.836837 0.955005 0.167194
H19   H     H_    0.216103 0.985677 0.901639 0.164053
H20   H     H_    0.254705 0.930414 0.649766 0.144701
H21   H     H_    0.303959 0.781033 0.704253 0.187485
H22   H     H_    0.784263 0.601449 0.867025 0.110666
H23   H     H_    0.908129 0.540234 0.595448 0.096955
H24   H     H_    0.113222 0.480984 0.285908 0.157826
H25   H     H_    0.090380 0.481108 0.607276 0.120615
H26   H     H_    0.504406 0.113348 0.274206 0.132976
H27   H     H_    0.502126 0.890036 0.273858 0.169303
H28   H     H_    0.478788 0.885059 0.843715 0.194263
N1    N     N_R   0.500780 0.500930 0.147930 -0.286276
N2    N     N_R   0.500780 0.500890 0.852020 -0.224563
O1    O     O_R   0.500000 0.319640 0.618810 -0.531956
O2    O     O_3   0.643444 0.729561 0.841934 -0.703483
O3    O     O_3   0.801982 0.619212 0.129601 -0.727629
O4    O     O_3   0.631027 0.745785 0.119421 -0.680456
O5    O     O_R   0.500010 0.319680 0.381230 -0.509629
O6    O     O_R   0.321940 0.499980 0.618760 -0.483418
O7    O     O_R   0.321950 0.500020 0.381180 -0.518802
O8    O     O_R   0.499990 0.680320 0.618770 -0.450409
O9    O     O_R   0.500000 0.680360 0.381190 -0.481543
O10   O     O_R   0.678050 0.499980 0.618820 -0.496350
O11   O     O_R   0.678060 0.500020 0.381240 -0.483752
O12   O     O_3   0.300204 0.403322 0.867644 -0.715416

loop_
_geom_bond_atom_site_label_1
_geom_bond_atom_site_label_2
_ccdc_geom_bond_type
C4    O7    A    
C1    O5    A    
C23   C24   A    
Cu1   N2    S    
C24   C25   A    
Cu2   O11   S    
Cu1   Cu2   S    
C17   H6    S    
C19   H21   S    
C5    C28   A    
C9    C11   S    
C18   H5    S    
C15   C27   S    
Cu2   O7    S    
C11   H23   S    
C12   C15   A    
C22   H26   S    
C25   C26   S    
C3    N2    A    
C6    O2    S    
C16   C27   S    
C14   H25   S    
C26   C27   S    
H13   O3    S    
C21   H16   S    
C20   H18   S    
C13   C14   D    
Cu2   N1    S    
C4    O6    A    
C26   H28   S    
C19   H20   S    
C7    O3    S    
C8    O9    A    
C20   H19   S    
C1    C12   S    
H11   O2    S    
C2    H12   S    
C21   H15   S    
C8    C24   S    
C9    O11   A    
C8    O8    A    
C6    C7    S    
C2    C3    A    
C18   H4    S    
C4    C14   S    
C5    C6    S    
C18   H3    S    
Cu1   O1    S    
C7    O4    S    
C15   C25   A    
Cu2   O5    S    
C10   C11   D    
C27   H2    S    
C16   H9    S    
Cu1   O6    S    
Cu1   O8    S    
C12   C22   A    
Cu2   O9    S    
Cu1   O10   S    
C9    O10   A    
C17   C18   S    
C13   H24   S    
C28   N1    A    
C23   H27   S    
C19   C26   S    
C22   C23   A    
C17   H7    S    
H10   O12   S    
C5    N2    A    
C6    H22   S    
C20   C21   S    
C2    N1    A    
C10   H1    S    
C10   C13   S    
H14   O4    S    
C7    C28   S    
C19   C20   S    
C16   H8    S    
C16   C17   S    
C21   H17   S    
C3    O12   S    
C1    O1    A    
