data_mof_unit_17643.cif
_audit_creation_date              2012-12-10T18:58:11-0500
_audit_creation_method            fapswitch 2.2
_symmetry_space_group_name_H-M    P1
_symmetry_Int_Tables_number       1
_space_group_crystal_system       triclinic
_cell_length_a                    11.019139
_cell_length_b                    10.930735
_cell_length_c                    9.573188
_cell_angle_alpha                 92.534062
_cell_angle_beta                  102.260727
_cell_angle_gamma                 89.627181
_cell_volume                      1125.65795324

loop_
_atom_site_label
_atom_site_type_symbol
_atom_type_description
_atom_site_fract_x
_atom_site_fract_y
_atom_site_fract_z
_atom_type_partial_charge
C1    C     C_R   0.501962 0.262811 0.497594 0.785939
C2    C     C_R   0.511976 0.130472 0.494502 -0.051214
C3    C     C_R   0.478608 0.059348 0.366929 -0.186819
C4    C     C_R   0.470743 0.932038 0.371442 -0.168736
C5    C     C_R   0.499219 0.873101 0.502903 -0.027160
C6    C     C_R   0.543264 0.945614 0.628052 0.082787
C7    C     C_3   0.495084 0.962317 0.763390 0.268124
C8    C     C_3   0.506542 0.098528 0.757189 -0.537750
C9    C     C_R   0.591260 0.560799 0.099637 0.203369
C10   C     C_R   0.418905 0.429615 0.050918 -0.086307
C11   C     C_R   0.419309 0.429160 0.902364 -0.062613
C12   C     C_R   0.262869 0.497467 0.442285 0.853846
C13   C     C_R   0.587506 0.563991 0.950615 0.159299
C14   C     C_3   0.592911 0.699261 0.959753 0.062665
C15   C     C_3   0.614244 0.695402 0.120510 0.159996
C16   C     C_R   0.498107 0.738349 0.501833 0.828479
C17   C     C_R   0.737148 0.496040 0.557151 0.912126
C18   C     C_2   0.128144 0.486201 0.410156 -0.304885
C19   C     C_2   0.068357 0.463470 0.514383 -0.273808
C20   C     C_2   0.872524 0.490302 0.586539 -0.329477
C21   C     C_2   0.932853 0.450465 0.485048 0.492623
C22   C     C_R   0.549270 0.072027 0.622414 0.056799
Cu1   Cu    Cu3+1 0.499990 0.499980 0.640670 0.993715
Cu2   Cu    Cu3+1 0.500010 0.500020 0.359330 1.001731
H1    H     H_    0.581457 0.139409 0.842684 0.187969
H2    H     H_    0.351534 0.374434 0.087244 0.141134
H3    H     H_    0.352361 0.373427 0.827682 0.130816
H4    H     H_    0.669443 0.737778 0.915908 0.179087
H5    H     H_    0.544264 0.747824 0.164628 0.115332
H6    H     H_    0.118655 0.459985 0.624954 0.162553
H7    H     H_    0.923797 0.523082 0.691228 0.106540
H8    H     H_    0.078193 0.494402 0.300236 0.189991
H9    H     H_    0.450819 0.102026 0.265091 0.156993
H10   H     H_    0.436566 0.880684 0.272035 0.147145
H11   H     H_    0.559217 0.929391 0.859469 0.166448
H12   H     H_    0.415895 0.147083 0.741783 0.220057
N1    N     N_R   0.500780 0.500930 0.148120 -0.216545
N2    N     N_R   0.500790 0.500890 0.852210 -0.165546
O1    O     O_R   0.500000 0.319640 0.618810 -0.591955
O2    O     O_R   0.500010 0.319680 0.381230 -0.587681
O3    O     O_R   0.320680 0.500000 0.575130 -0.570271
O4    O     O_R   0.320690 0.500040 0.337550 -0.595207
O5    O     O_R   0.499990 0.680320 0.618770 -0.517612
O6    O     O_R   0.500000 0.680360 0.381190 -0.605253
O7    O     O_R   0.679310 0.499960 0.662450 -0.606118
O8    O     O_R   0.679320 0.500000 0.424870 -0.478668
O9    O     O_3   0.867828 0.399139 0.356045 -0.673339
H13   H     H_    0.927025 0.356130 0.306354 0.323911
O10   O     O_3   0.475069 0.746383 0.899763 -0.707467
H14   H     H_    0.410768 0.712695 0.946436 0.325410
S1    S     S_3+6 0.770595 0.732537 0.208826 0.002779
O11   O     O_2   0.781539 0.733977 0.368003 -0.282682
O12   O     O_2   0.859080 0.639961 0.166186 -0.299777
O13   O     O_3   0.805830 0.872223 0.161873 -0.549708
H15   H     H_    0.892030 0.887983 0.215241 0.377140
O14   O     O_3   0.370571 0.925279 0.743330 -0.656184
H16   H     H_    0.344412 0.948363 0.833941 0.337983

loop_
_geom_bond_atom_site_label_1
_geom_bond_atom_site_label_2
_ccdc_geom_bond_type
C2    C22   A    
C11   N2    A    
C8    C22   S    
Cu1   Cu2   S    
C14   H4    S    
C12   O3    A    
Cu1   O7    S    
C15   S1    S    
Cu1   N2    S    
Cu2   O4    S    
C16   O6    A    
O9    H13   S    
Cu1   O3    S    
C11   H3    S    
S1    O13   S    
Cu2   O8    S    
C10   H2    S    
C9    N1    A    
C2    C3    A    
C9    C15   S    
C7    C8    S    
C13   C14   S    
O14   H16   S    
C8    H1    S    
C16   O5    A    
C13   N2    A    
C6    C7    S    
C7    O14   S    
C10   N1    A    
Cu1   O1    S    
C19   C21   S    
C17   O7    A    
C15   H5    S    
C5    C6    A    
Cu2   O6    S    
C4    H10   S    
C14   O10   S    
C18   H8    S    
C10   C11   A    
C1    O1    A    
C12   O4    A    
S1    O11   D    
C6    C22   A    
C17   C20   S    
Cu1   O5    S    
C17   O8    A    
Cu2   N1    S    
C1    C2    S    
C8    H12   S    
C12   C18   S    
O10   H14   S    
C21   O9    S    
C3    H9    S    
C14   C15   S    
C18   C19   D    
C5    C16   S    
C9    C13   A    
C1    O2    A    
Cu2   O2    S    
C20   C21   D    
O13   H15   S    
C19   H6    S    
C7    H11   S    
C3    C4    A    
C4    C5    A    
S1    O12   D    
C20   H7    S    
