data_mof_unit_39232.cif
_audit_creation_date              2012-12-11T18:37:24-0500
_audit_creation_method            fapswitch 2.2
_symmetry_space_group_name_H-M    P1
_symmetry_Int_Tables_number       1
_space_group_crystal_system       triclinic
_cell_length_a                    8.209971
_cell_length_b                    14.314807
_cell_length_c                    26.929701
_cell_angle_alpha                 92.866074
_cell_angle_beta                  92.83031
_cell_angle_gamma                 88.188428
_cell_volume                      3155.72787998

loop_
_atom_site_label
_atom_site_type_symbol
_atom_type_description
_atom_site_fract_x
_atom_site_fract_y
_atom_site_fract_z
_atom_type_partial_charge
Ba1   Ba    Ba6+2 0.849670 0.455410 0.524690 1.660408
Ba2   Ba    Ba6+2 0.340150 0.544510 0.475310 1.670390
C1    C     C_3   0.623656 0.131053 0.674272 -0.368477
C2    C     C_3   0.634463 0.223004 0.648909 0.340337
C3    C     C_3   0.661844 0.752913 0.638022 0.704590
C4    C     C_3   0.670530 0.859781 0.643438 -0.329420
C5    C     C_3   0.078586 0.747865 0.336144 0.331848
C6    C     C_3   0.087869 0.776117 0.282752 -0.317950
C7    C     C_3   0.550996 0.795776 0.353637 0.339236
C8    C     C_3   0.507263 0.891861 0.334349 -0.360400
C9    C     C_R   0.016368 0.435095 0.180321 0.597048
C10   C     C_R   0.922230 0.594580 0.174946 0.574201
C11   C     C_2   0.764059 0.560482 0.269727 -0.085113
C12   C     C_3   0.148676 0.251719 0.668261 0.289902
C13   C     C_3   0.748993 0.591615 0.323631 -0.045544
C14   C     C_1   0.979532 0.485070 0.343239 0.032218
C15   C     C_2   0.021229 0.481399 0.295724 -0.103107
C16   C     C_2   0.905695 0.518511 0.255281 0.193801
C17   C     C_R   0.032180 0.512707 0.101598 -0.079847
C18   C     C_R   0.061044 0.433171 0.129911 -0.035793
C19   C     C_R   0.132842 0.352996 0.107077 -0.060421
C20   C     C_R   0.961453 0.593555 0.124424 -0.024393
C21   C     C_2   0.849343 0.532472 0.358897 -0.291324
C22   C     C_2   0.360839 0.491135 0.641753 -0.234179
C23   C     C_3   0.118422 0.236098 0.722371 -0.345622
C24   C     C_R   0.198612 0.431376 0.977729 0.019823
C25   C     C_R   0.073625 0.589319 0.970605 0.020515
C26   C     C_R   0.156861 0.510056 0.948901 0.049758
C27   C     C_R   0.287725 0.356110 0.954788 -0.100201
C28   C     C_R   0.330551 0.357198 0.905310 -0.061836
C29   C     C_R   0.286245 0.433108 0.876089 -0.031824
C30   C     C_R   0.198804 0.509600 0.897799 -0.077795
C31   C     C_R   0.153626 0.585848 0.868443 -0.030207
C32   C     C_R   0.195560 0.584658 0.818069 0.586309
C33   C     C_R   0.327569 0.433970 0.825581 0.576951
C34   C     C_3   0.163684 0.258408 0.424836 0.308819
C35   C     C_2   0.474248 0.496224 0.729759 -0.067288
C36   C     C_3   0.513712 0.498948 0.675084 0.032500
C37   C     C_1   0.220998 0.525465 0.657504 -0.031253
C38   C     C_2   0.185210 0.523822 0.704935 -0.146857
C39   C     C_2   0.318342 0.508346 0.744280 0.226805
C40   C     C_R   0.151191 0.430750 0.028255 0.019728
C41   C     C_R   0.074036 0.511621 0.050457 0.049920
C42   C     C_R   0.038393 0.591636 0.022112 0.020206
C43   C     C_R   0.177321 0.351744 0.057639 -0.099676
C44   C     C_R   0.932517 0.672872 0.096498 -0.059914
C45   C     C_3   0.163627 0.152661 0.415575 -0.379275
C46   C     C_R   0.027309 0.663703 0.939641 -0.100322
C47   C     C_R   0.066621 0.661906 0.889918 -0.065991
C48   C     C_R   0.969746 0.672082 0.046676 -0.102821
C49   C     C_R   0.691645 0.064426 0.478108 -0.037565
C50   C     C_R   0.511160 0.199496 0.503507 0.045930
C51   C     C_R   0.373368 0.231732 0.528316 -0.281277
C52   C     C_R   0.280326 0.170539 0.552875 0.009078
C53   C     C_R   0.334086 0.078533 0.557972 -0.156054
C54   C     C_R   0.470680 0.043377 0.533042 0.009063
C55   C     C_R   0.559078 0.103122 0.504399 -0.019694
C56   C     C_3   0.186435 0.747638 0.634537 0.676620
C57   C     C_R   0.649007 0.910368 0.509805 -0.012319
C58   C     C_R   0.739304 0.969721 0.481499 0.017189
C59   C     C_R   0.694731 0.814323 0.511316 -0.050291
C60   C     C_R   0.828845 0.779928 0.485100 -0.268288
C61   C     C_R   0.922584 0.839065 0.459310 -0.003858
C62   C     C_R   0.876979 0.933671 0.456991 -0.149911
C63   C     C_R   0.516075 0.948560 0.535404 -0.080987
C64   C     C_3   0.134468 0.788922 0.684633 -0.348806
C65   C     C_3   0.658431 0.338994 0.379374 0.300823
C66   C     C_3   0.656550 0.315783 0.323627 -0.363002
H1    H     H_    0.753140 0.223024 0.630963 0.112534
H2    H     H_    0.248424 0.131017 0.385950 0.128940
H3    H     H_    0.203091 0.117297 0.450031 0.061722
H4    H     H_    0.038719 0.130330 0.403772 0.118271
H5    H     H_    0.293162 0.701176 0.642990 0.052759
H6    H     H_    0.027819 0.837422 0.679564 0.081364
H7    H     H_    0.236300 0.828204 0.703586 0.126934
H8    H     H_    0.103640 0.731901 0.708485 0.097108
H9    H     H_    0.783690 0.356299 0.392692 0.011132
H10   H     H_    0.574890 0.400252 0.386189 0.078412
H11   H     H_    0.725058 0.124116 0.702825 0.134614
H12   H     H_    0.744687 0.257218 0.315469 0.132794
H13   H     H_    0.690765 0.377598 0.303717 0.069130
H14   H     H_    0.532315 0.295323 0.309884 0.134142
H15   H     H_    0.533987 0.227212 0.620065 -0.024664
H16   H     H_    0.632881 0.071892 0.646178 0.076693
H17   H     H_    0.777655 0.721845 0.624755 -0.014398
H18   H     H_    0.546679 0.891700 0.647910 0.138301
H19   H     H_    0.748326 0.882014 0.676427 0.076854
H20   H     H_    0.724214 0.887289 0.610493 0.005250
H21   H     H_    0.505384 0.128086 0.692349 0.123224
H22   H     H_    0.188907 0.286411 0.746793 0.130312
H23   H     H_    0.953065 0.726191 0.341856 -0.050255
H24   H     H_    0.203310 0.812059 0.277806 0.141050
H25   H     H_    0.085464 0.712595 0.257547 0.122384
H26   H     H_    0.983169 0.823710 0.272785 0.124756
H27   H     H_    0.684877 0.784220 0.351024 -0.051349
H28   H     H_    0.519278 0.796139 0.393323 0.074288
H29   H     H_    0.579998 0.945626 0.355840 0.070518
H30   H     H_    0.375942 0.909057 0.338743 0.152300
H31   H     H_    0.114254 0.325665 0.661097 0.069879
H32   H     H_    0.534470 0.893344 0.294412 0.124316
H33   H     H_    0.140519 0.453381 0.286122 0.133752
H34   H     H_    0.155687 0.290255 0.127536 0.121746
H35   H     H_    0.573899 0.488731 0.757440 0.086708
H36   H     H_    0.398948 0.297535 0.889906 0.121117
H37   H     H_    0.329207 0.295348 0.974332 0.068908
H38   H     H_    0.229718 0.286596 0.043298 0.069046
H39   H     H_    0.672872 0.585255 0.242537 0.119345
H40   H     H_    0.880185 0.736729 0.113148 0.122823
H41   H     H_    0.957279 0.724307 0.952334 0.068681
H42   H     H_    0.280457 0.239150 0.662204 -0.010202
H43   H     H_    0.027874 0.721031 0.868177 0.117046
H44   H     H_    0.059770 0.532367 0.715481 0.109585
H45   H     H_    0.945880 0.737011 0.028788 0.068925
H46   H     H_    0.833037 0.546118 0.398366 0.083422
H47   H     H_    0.365954 0.455512 0.605244 0.064937
H48   H     H_    0.333570 0.304284 0.526392 0.066294
H49   H     H_    0.267823 0.035063 0.581064 0.081379
H50   H     H_    0.949107 0.978880 0.436304 0.075846
H51   H     H_    0.864157 0.706519 0.485850 0.080461
H52   H     H_    0.759431 0.106867 0.454811 0.092068
H53   H     H_    0.986652 0.247114 0.729148 0.138877
H54   H     H_    0.447849 0.904910 0.557728 0.113274
H55   H     H_    0.157201 0.163717 0.731584 0.119645
H56   H     H_    0.289533 0.280179 0.434066 0.002152
H57   H     H_    0.085054 0.277434 0.456362 0.067855
N1    N     N_R   0.948219 0.515586 0.202754 -0.421642
N2    N     N_R   0.280703 0.508952 0.796845 -0.423419
O1    O     O_2   0.918080 0.549800 0.616640 -0.465668
O2    O     O_3   0.608298 0.260897 0.403202 -0.640339
O3    O     O_3   0.054208 0.189687 0.637776 -0.604226
O4    O     O_2   0.271610 0.450170 0.383330 -0.460984
O5    O     O_3   0.039630 0.450200 0.443530 -0.497363
O6    O     O_3   0.531440 0.620360 0.408460 -0.473602
O7    O     O_3   0.105688 0.300477 0.381466 -0.624301
O8    O     O_3   0.643350 0.612530 0.521650 -0.455758
O9    O     O_3   0.127390 0.668260 0.431510 -0.487638
O10   O     O_2   0.261833 0.833236 0.456022 -0.484130
O11   O     O_3   0.118470 0.824195 0.368603 -0.605829
O12   O     O_3   0.150070 0.549720 0.556460 -0.453080
O13   O     O_3   0.546340 0.387390 0.478340 -0.484940
O14   O     O_2   0.398940 0.728800 0.517420 -0.413118
O15   O     O_3   0.533003 0.727986 0.604410 -0.614015
O16   O     O_2   0.413374 0.545963 0.321635 -0.498636
O17   O     O_3   0.463971 0.726841 0.325168 -0.597254
O18   O     O_2   0.036329 0.364546 0.203876 -0.597263
O19   O     O_2   0.404076 0.367470 0.807142 -0.597017
O20   O     O_2   0.865965 0.666816 0.194242 -0.620056
O21   O     O_2   0.157926 0.651882 0.793273 -0.623779
O22   O     O_3   0.658250 0.379560 0.591530 -0.488990
O23   O     O_2   0.837628 0.421994 0.673851 -0.501975
O24   O     O_3   0.056466 0.698638 0.609816 -0.683215
O25   O     O_3   0.619743 0.298061 0.684212 -0.599530
O26   O     O_2   0.790750 0.271170 0.482550 -0.472335
O27   O     O_3   0.062300 0.331660 0.568480 -0.484015
O28   O     O_2   0.940584 0.165236 0.545535 -0.491705
P1    P     P_3+3 0.090020 0.577590 0.608380 0.987862
P2    P     P_3+3 0.614340 0.285150 0.467650 0.972558
P3    P     P_3+3 0.083648 0.212073 0.575708 0.934015
P4    P     P_3+3 0.099670 0.422330 0.391610 0.990688
P5    P     P_3+3 0.107356 0.790725 0.429924 0.945667
P6    P     P_3+3 0.659280 0.402428 0.656086 0.969122
P7    P     P_3+3 0.578149 0.725955 0.541554 0.965722
P8    P     P_3+3 0.537835 0.617464 0.343810 0.942558
O29   O     O_3   0.239443 0.821251 0.606138 -0.656167
C67   C     C_3   0.117935 0.851182 0.571005 0.279849
H58   H     H_    0.162377 0.908267 0.549881 0.022329
H59   H     H_    0.092942 0.793914 0.542897 0.069264
H60   H     H_    0.005428 0.876498 0.589266 -0.008265
O30   O     O_3   0.621932 0.718924 0.684380 -0.653546
C68   C     C_3   0.761800 0.697806 0.714632 0.122941
H61   H     H_    0.824432 0.762499 0.727930 0.046909
H62   H     H_    0.845954 0.647578 0.695434 0.045297
H63   H     H_    0.722741 0.663786 0.748022 0.078886
H64   H     H_    0.165688 0.687956 0.341842 0.102012

loop_
_geom_bond_atom_site_label_1
_geom_bond_atom_site_label_2
_ccdc_geom_bond_type
C25   C46   A    
C66   H12   S    
C53   C54   A    
C38   C39   S    
C67   H58   S    
C8    H29   S    
O30   C68   S    
C39   N2    S    
C17   C18   A    
C65   H9    S    
Ba1   O1    S    
C11   H39   S    
Ba1   O5    S    
C56   O29   S    
O2    P2    S    
O3    P3    S    
C4    H20   S    
C12   H31   S    
C38   H44   S    
C51   C52   A    
C56   O24   S    
C23   H22   S    
C60   C61   A    
C11   C16   D    
Ba2   O12   S    
C10   O20   D    
C13   P8    S    
O29   C67   S    
C34   H56   S    
C35   C36   S    
O27   P3    S    
C12   O3    S    
C28   C29   A    
C10   N1    Am   
C68   H61   S    
C31   C47   A    
C54   C63   A    
C64   H6    S    
C5    H64   S    
C10   C20   A    
C22   C37   D    
C62   H50   S    
C54   C55   A    
C34   C45   S    
Ba1   Ba2   S    
C8    H30   S    
C15   H33   S    
C32   O21   D    
C25   C42   A    
C56   C64   S    
C36   P6    S    
C34   H57   S    
Ba2   P4    S    
C44   H40   S    
Ba2   O5    S    
Ba1   O22   S    
C6    H24   S    
C7    C8    S    
C7    H27   S    
O25   P6    S    
Ba1   O12   S    
C51   H48   S    
C47   H43   S    
C3    H17   S    
C13   C21   S    
O7    P4    S    
C1    H11   S    
C57   C58   A    
C67   H59   S    
O28   P3    D    
O26   P2    D    
C27   H37   S    
C65   O2    S    
C65   H10   S    
C61   P5    S    
O6    P8    S    
O16   P8    D    
C2    H1    S    
C7    O17   S    
C17   C41   A    
C49   H52   S    
C19   C43   A    
C2    O25   S    
C9    C18   A    
C57   C59   A    
O5    P4    S    
Ba2   O4    S    
C65   C66   S    
Ba2   O6    S    
C26   C30   A    
C17   C20   A    
C6    H26   S    
C37   C38   D    
C35   H35   S    
C32   N2    Am   
C1    H16   S    
O24   P1    S    
Ba2   O9    S    
C4    H19   S    
C59   P7    S    
C33   O19   D    
Ba1   P1    S    
Ba1   O26   S    
C41   C42   A    
C45   H2    S    
C27   C28   A    
O13   P2    S    
C52   P3    S    
C22   C36   S    
C29   C30   A    
C64   H8    S    
C9    N1    Am   
C15   C16   S    
C63   H54   S    
C8    H32   S    
C23   H55   S    
C7    H28   S    
C45   H3    S    
C60   H51   S    
Ba1   O13   S    
C24   C27   A    
C49   C55   A    
C19   H34   S    
C46   C47   A    
C20   C44   A    
C67   H60   S    
C11   C13   S    
O17   P8    S    
O8    P7    S    
C29   C33   A    
O22   P6    S    
C40   C41   A    
C66   H13   S    
C1    C2    S    
C5    H23   S    
C33   N2    Am   
C43   H38   S    
C24   C40   A    
C53   H49   S    
C42   C48   A    
C50   P2    S    
C12   H42   S    
O23   P6    D    
C52   C53   A    
O4    P4    D    
O10   P5    D    
C9    O18   D    
C6    H25   S    
C34   O7    S    
O15   P7    S    
C5    O11   S    
Ba1   O27   S    
C14   C21   D    
C44   C48   A    
C24   C26   A    
Ba2   O8    S    
C4    H18   S    
C58   C62   A    
C37   P1    S    
C1    H21   S    
C48   H45   S    
C66   H14   S    
C30   C31   A    
Ba1   P2    S    
Ba2   O13   S    
C57   C63   A    
C21   H46   S    
C3    O15   S    
C3    C4    S    
C2    H15   S    
C68   H62   S    
O12   P1    S    
C64   H7    S    
C31   C32   A    
C46   H41   S    
C12   C23   S    
C35   C39   D    
C59   C60   A    
C45   H4    S    
C5    C6    S    
C50   C55   A    
O1    P1    D    
C61   C62   A    
O9    P5    S    
O11   P5    S    
O14   P7    D    
C18   C19   A    
C56   H5    S    
C22   H47   S    
C28   H36   S    
C25   C26   A    
Ba2   O14   S    
C3    O30   S    
C49   C58   A    
Ba1   O8    S    
C23   H53   S    
C40   C43   A    
C16   N1    S    
C14   C15   D    
C50   C51   A    
C14   P4    S    
C68   H63   S    
