data_mof_unit_25310.cif
_audit_creation_date              2012-12-10T17:07:05-0500
_audit_creation_method            fapswitch 2.2
_symmetry_space_group_name_H-M    P1
_symmetry_Int_Tables_number       1
_space_group_crystal_system       triclinic
_cell_length_a                    18.288611
_cell_length_b                    18.411063
_cell_length_c                    18.496564
_cell_angle_alpha                 120.56877
_cell_angle_beta                  120.496606
_cell_angle_gamma                 59.439582
_cell_volume                      4349.58603429

loop_
_atom_site_label
_atom_site_type_symbol
_atom_type_description
_atom_site_fract_x
_atom_site_fract_y
_atom_site_fract_z
_atom_type_partial_charge
C1    C     C_R   0.140353 0.859712 0.639578 0.802527
C2    C     C_R   0.915682 0.348070 0.959189 0.381877
C3    C     C_R   0.960979 0.304111 0.898613 0.335527
C4    C     C_R   0.856871 0.140331 0.360039 0.889539
C5    C     C_R   0.923361 0.253555 0.811921 -0.335491
C6    C     C_R   0.679295 0.286160 0.385135 0.318595
C7    C     C_R   0.607181 0.364540 0.405106 0.424016
C8    C     C_R   0.562284 0.421672 0.356722 -0.245880
C9    C     C_R   0.586049 0.400565 0.286441 -0.181246
C10   C     C_R   0.662253 0.325876 0.268225 0.058101
C11   C     C_R   0.712819 0.269067 0.320859 -0.051627
C12   C     C_R   0.572777 0.243860 0.687404 -0.264409
C13   C     C_R   0.791873 0.196194 0.303669 -0.055936
C14   C     C_R   0.812366 0.175975 0.230803 -0.143011
C15   C     C_R   0.760022 0.228614 0.177265 -0.131940
C16   C     C_R   0.140114 0.139921 0.639735 0.746121
C17   C     C_R   0.687031 0.304548 0.196447 -0.050811
C18   C     C_R   0.943612 0.661211 0.334755 -0.151001
C19   C     C_R   0.975025 0.571323 0.328465 0.320200
C20   C     C_R   0.915427 0.523590 0.280651 0.431201
C21   C     C_R   0.825286 0.563925 0.237567 -0.239138
C22   C     C_R   0.790895 0.654102 0.243106 0.037733
C23   C     C_R   0.660534 0.245247 0.717234 0.023222
C24   C     C_R   0.849605 0.705139 0.294612 -0.002015
C25   C     C_R   0.811084 0.797382 0.302809 -0.071244
C26   C     C_R   0.720530 0.834683 0.256921 -0.097774
C27   C     C_R   0.663722 0.783999 0.203395 -0.084610
C28   C     C_R   0.861211 0.859119 0.359893 0.864483
C29   C     C_R   0.698890 0.693606 0.196938 -0.084086
C30   C     C_R   0.134604 0.929968 0.820920 -0.043142
C31   C     C_R   0.109227 0.950300 0.890405 -0.253312
C32   C     C_R   0.145862 0.888489 0.931617 0.493260
C33   C     C_R   0.212151 0.807107 0.907061 -0.218065
C34   C     C_R   0.711682 0.190476 0.659081 -0.054022
C35   C     C_R   0.234303 0.780793 0.831988 -0.023385
C36   C     C_R   0.189623 0.840505 0.783818 0.103586
C37   C     C_R   0.197313 0.806794 0.698664 -0.094877
C38   C     C_R   0.251481 0.717557 0.664799 -0.145632
C39   C     C_R   0.311493 0.667194 0.722208 -0.063460
C40   C     C_R   0.141483 0.856826 0.360984 0.939217
C41   C     C_R   0.300649 0.697352 0.804578 -0.095773
C42   C     C_R   0.274952 0.673078 0.365764 0.421548
C43   C     C_R   0.301683 0.580977 0.343285 -0.278500
C44   C     C_R   0.316720 0.521959 0.262704 -0.142098
C45   C     C_R   0.696918 0.300613 0.804937 -0.054666
C46   C     C_R   0.313405 0.556338 0.207353 0.391766
C47   C     C_R   0.289188 0.651074 0.232386 -0.098202
C48   C     C_R   0.254383 0.709064 0.303301 -0.057473
C49   C     C_R   0.202522 0.800273 0.308975 -0.198267
C50   C     C_R   0.207822 0.837521 0.262544 0.339128
C51   C     C_R   0.263283 0.784259 0.210321 0.333508
C52   C     C_R   0.857330 0.140023 0.637098 0.890385
C53   C     C_R   0.300903 0.691202 0.192429 -0.188794
C54   C     C_R   0.153353 0.231888 0.563519 -0.182196
C55   C     C_R   0.157925 0.273988 0.522475 0.329148
C56   C     C_R   0.786786 0.299091 0.839595 -0.067766
C57   C     C_R   0.213544 0.326221 0.570363 -0.176340
C58   C     C_R   0.263872 0.337449 0.662147 0.263868
C59   C     C_R   0.257523 0.295586 0.706057 -0.004793
C60   C     C_R   0.201859 0.241627 0.654412 0.011406
C61   C     C_R   0.196096 0.196482 0.693478 -0.091731
C62   C     C_R   0.243565 0.204301 0.783585 -0.103612
C63   C     C_R   0.296265 0.259911 0.837191 -0.116439
C64   C     C_R   0.671288 0.134222 0.571303 0.316776
C65   C     C_R   0.304031 0.304111 0.798528 -0.124794
C66   C     C_R   0.639867 0.639871 0.140055 0.765224
C67   C     C_R   0.835927 0.250172 0.780176 -0.028714
C68   C     C_R   0.359838 0.360206 0.858132 0.871414
C69   C     C_R   0.637940 0.360022 0.140039 0.829885
C70   C     C_R   0.359103 0.641698 0.861509 0.879347
C71   C     C_R   0.359341 0.639303 0.139204 0.951988
C72   C     C_R   0.639370 0.359563 0.859687 0.911212
C73   C     C_R   0.585919 0.130984 0.546722 0.417262
C74   C     C_R   0.536550 0.186290 0.605126 -0.123874
C75   C     C_2   0.012288 0.704332 0.380240 0.490052
C76   C     C_2   0.567024 0.827303 0.156909 0.529755
C77   C     C_2   0.236852 0.674576 0.566773 0.468133
C78   C     C_R   0.799256 0.195923 0.691475 -0.038700
C79   C     C_2   0.109082 0.007341 0.797440 0.450934
C80   C     C_2   0.384977 0.583719 0.694508 0.600585
C81   C     C_2   0.341537 0.425011 0.243708 0.598959
C82   C     C_2   0.235837 0.154640 0.820917 0.632431
C83   C     C_2   0.216891 0.368602 0.522172 0.673538
C84   C     C_2   0.340009 0.276243 0.935294 0.585235
C85   C     C_2   0.447507 0.184921 0.584906 0.598347
C86   C     C_R   0.830901 0.342805 0.931945 0.236338
Cl1   Cl    Cl    0.068300 0.307215 0.930804 -0.464894
Cl2   Cl    Cl    0.542556 0.053954 0.442768 -0.379529
Cl3   Cl    Cl    0.326041 0.482148 0.102222 -0.575360
Cl4   Cl    Cl    0.288842 0.834702 0.170126 -0.466145
Cl5   Cl    Cl    0.095163 0.255147 0.407887 -0.461108
Cl6   Cl    Cl    0.333149 0.403966 0.716888 -0.571343
Cl7   Cl    Cl    0.791551 0.380699 0.019544 -0.566247
Cl8   Cl    Cl    0.967449 0.407779 0.070766 -0.381520
Cl9   Cl    Cl    0.711990 0.206015 0.430315 -0.492162
Cl10  Cl    Cl    0.567057 0.390813 0.487360 -0.489016
Cl11  Cl    Cl    0.090643 0.516524 0.377871 -0.480386
Cl12  Cl    Cl    0.952357 0.411147 0.271193 -0.395889
Cl13  Cl    Cl    0.719677 0.065499 0.485737 -0.492068
Cl14  Cl    Cl    0.110033 0.915452 0.016716 -0.438323
Cl15  Cl    Cl    0.151128 0.952872 0.275736 -0.431185
Cl16  Cl    Cl    0.305738 0.732487 0.480827 -0.581779
H1    H     H_    0.505447 0.480918 0.370847 0.188838
H2    H     H_    0.530279 0.287432 0.728320 0.189537
H3    H     H_    0.965068 0.216743 0.770639 0.185169
H4    H     H_    0.871191 0.119888 0.216426 0.194988
H5    H     H_    0.044073 0.722531 0.451971 0.036433
H6    H     H_    0.520127 0.790740 0.118423 0.041321
H7    H     H_    0.196403 0.714537 0.523742 0.090481
H8    H     H_    0.044935 0.060950 0.798769 0.038465
H9    H     H_    0.418204 0.581759 0.658488 0.106702
H10   H     H_    0.330268 0.405192 0.282397 0.112240
H11   H     H_    0.170122 0.154370 0.804607 0.088875
H12   H     H_    0.542268 0.443476 0.246491 0.198699
H13   H     H_    0.156827 0.391647 0.470418 0.139246
H14   H     H_    0.406086 0.283222 0.970453 0.061900
H15   H     H_    0.425801 0.206048 0.639410 0.036603
H16   H     H_    0.778793 0.211778 0.122243 0.189222
H17   H     H_    0.693822 0.905023 0.264387 0.212680
H18   H     H_    0.782535 0.523254 0.199673 0.209161
H19   H     H_    0.063510 0.016225 0.915472 0.185576
H20   H     H_    0.243201 0.764932 0.946358 0.196950
H21   H     H_    0.315808 0.554795 0.391612 0.227958
H22   H     H_    0.111106 0.190449 0.522168 0.176059
O1    O     O_3   1.000000 0.000000 0.500000 -0.523949
O2    O     O_R   0.323460 0.615830 0.884170 -0.621784
O3    O     O_R   0.444880 0.615840 0.176480 -0.639084
O4    O     O_R   0.055060 0.884200 0.615800 -0.673220
O5    O     O_R   0.615800 0.444940 0.884180 -0.586443
O6    O     O_R   0.323440 0.615840 0.055040 -0.597670
O7    O     O_R   0.615780 0.323500 0.884180 -0.632552
O8    O     O_R   0.615760 0.323500 0.055050 -0.626922
O9    O     O_R   0.444910 0.615830 0.884180 -0.628676
O10   O     O_R   0.615780 0.615830 0.176490 -0.628097
O11   O     O_R   0.323430 0.444950 0.884170 -0.564875
O12   O     O_R   0.055100 0.176520 0.615800 -0.639468
O13   O     O_R   0.884210 0.176520 0.444920 -0.602781
O14   O     O_R   0.176540 0.055080 0.615800 -0.604406
O15   O     O_R   0.884190 0.884200 0.323480 -0.597880
O16   O     O_R   0.176540 0.884190 0.444930 -0.589915
O17   O     O_R   0.884180 0.055090 0.615790 -0.620597
O18   O     O_R   0.055100 0.884190 0.323490 -0.601160
O19   O     O_R   0.884190 0.176530 0.615790 -0.602769
O20   O     O_2   0.035588 0.716735 0.337329 -0.563105
O21   O     O_2   0.538159 0.905030 0.161229 -0.480123
O22   O     O_2   0.264753 0.593422 0.531340 -0.505827
O23   O     O_R   0.884180 0.884200 0.444920 -0.618376
O24   O     O_2   0.162226 0.014845 0.782622 -0.574617
O25   O     O_2   0.406613 0.516014 0.708020 -0.493004
O26   O     O_2   0.377099 0.366245 0.187921 -0.464864
O27   O     O_2   0.302485 0.112269 0.867660 -0.474737
O28   O     O_2   0.286749 0.374723 0.536356 -0.432264
O29   O     O_2   0.301031 0.285399 0.978422 -0.413017
O30   O     O_2   0.396654 0.162826 0.508671 -0.447362
O31   O     O_R   0.176510 0.884190 0.615800 -0.570623
O32   O     O_R   0.884210 0.055080 0.323480 -0.626159
O33   O     O_3   0.499970 0.500030 0.999970 -0.510137
O34   O     O_R   0.615800 0.615830 0.055050 -0.621238
O35   O     O_R   0.444880 0.323510 0.884180 -0.661447
O36   O     O_R   0.615760 0.444950 0.176490 -0.641415
Zn1   Zn    Zn3+2 0.956630 0.130130 0.543370 1.064388
Zn2   Zn    Zn3+2 0.130140 0.956620 0.543380 1.086852
Zn3   Zn    Zn3+2 0.956630 0.956620 0.369870 1.098121
Zn4   Zn    Zn3+2 0.956610 0.956630 0.543370 1.034223
Zn5   Zn    Zn3+2 0.543340 0.369890 0.956600 1.051769
Zn6   Zn    Zn3+2 0.543340 0.543410 0.130100 1.033192
Zn7   Zn    Zn3+2 0.369830 0.543410 0.956590 1.097394
Zn8   Zn    Zn3+2 0.543370 0.543400 0.956600 1.075943

loop_
_geom_bond_atom_site_label_1
_geom_bond_atom_site_label_2
_ccdc_geom_bond_type
C63   C65   A    
C17   C69   S    
C18   C75   S    
C23   C45   A    
C22   C29   A    
C40   O18   A    
C27   C29   A    
C73   C74   A    
C54   C55   A    
C35   C36   A    
C1    O4    A    
C5    C67   A    
O33   Zn7   S    
C19   Cl11  S    
O34   Zn8   S    
C7    C8    A    
C39   C41   A    
C46   Cl3   S    
C5    H3    S    
C25   C28   S    
C75   H5    S    
C7    Cl10  S    
C67   C78   A    
C12   C23   A    
C26   C27   A    
C62   C63   A    
C18   C24   A    
C9    H12   S    
C36   C37   A    
C12   H2    S    
C21   H18   S    
C12   C74   A    
O23   Zn4   S    
C69   O8    A    
C51   Cl4   S    
C30   C31   A    
C10   C17   A    
O16   Zn2   S    
C81   O26   D    
O4    Zn4   S    
C69   O36   A    
C18   C19   A    
C4    C13   S    
C1    O31   A    
C55   Cl5   S    
C4    O13   A    
C66   O10   A    
O6    Zn7   S    
C64   Cl13  S    
O1    Zn2   S    
C45   C56   A    
C8    C9    A    
C70   O9    A    
C64   C73   A    
O10   Zn6   S    
O36   Zn6   S    
C68   O35   A    
C9    C10   A    
C82   O27   D    
C79   H8    S    
C1    C37   S    
C47   C53   A    
C70   O2    A    
C62   C82   S    
C59   C60   A    
C76   H6    S    
C13   C14   A    
C45   C72   S    
C71   O3    A    
O1    Zn3   S    
C28   O15   A    
C52   C78   S    
C42   Cl16  S    
O33   Zn8   S    
C44   C46   A    
O12   Zn1   S    
C68   O11   A    
O31   Zn2   S    
C80   O25   D    
O1    Zn1   S    
C52   O19   A    
C3    Cl1   S    
C83   H13   S    
C2    Cl8   S    
C65   C68   S    
C24   C25   A    
O32   Zn3   S    
O2    Zn7   S    
C75   O20   D    
O9    Zn8   S    
O33   Zn5   S    
C6    C11   A    
C54   C60   A    
C25   C26   A    
C32   Cl14  S    
C60   C61   A    
C51   C53   A    
C85   H15   S    
C43   C44   A    
C73   Cl2   S    
C37   C38   A    
C86   Cl7   S    
C84   O29   D    
C56   C86   A    
C47   C48   A    
C81   H10   S    
C23   C34   A    
C34   C64   A    
C50   C51   A    
O14   Zn2   S    
C42   C48   A    
C26   H17   S    
C77   H7    S    
C31   H19   S    
C79   O24   D    
C50   Cl15  S    
C30   C79   S    
C48   C49   A    
C4    O32   A    
C76   O21   D    
C44   C81   S    
C55   C57   A    
C33   H20   S    
C49   C50   A    
C22   C24   A    
O1    Zn4   S    
C16   C61   S    
C27   C76   S    
C53   C71   S    
C43   H21   S    
C66   O34   A    
C72   O7    A    
C83   O28   D    
C72   O5    A    
C15   C17   A    
C54   H22   S    
C46   C47   A    
C28   O23   A    
O5    Zn8   S    
C59   C65   A    
C31   C32   A    
C16   O14   A    
C82   H11   S    
C3    C5    A    
O33   Zn6   S    
C6    C7    A    
C38   C77   S    
C56   C67   A    
C52   O17   A    
C15   H16   S    
C30   C36   A    
C63   C84   S    
O8    Zn5   S    
C39   C80   S    
C19   C20   A    
O15   Zn3   S    
C2    C3    A    
C58   C59   A    
C32   C33   A    
C71   O6    A    
O13   Zn1   S    
C11   C13   A    
C57   C58   A    
C38   C39   A    
O3    Zn6   S    
C40   O16   A    
C80   H9    S    
C33   C35   A    
C2    C86   A    
C85   O30   D    
O18   Zn3   S    
C74   C85   S    
C61   C62   A    
C35   C41   A    
C8    H1    S    
C10   C11   A    
C29   C66   S    
O35   Zn5   S    
C14   H4    S    
C20   Cl12  S    
C20   C21   A    
O7    Zn5   S    
O17   Zn4   S    
C84   H14   S    
C6    Cl9   S    
C42   C43   A    
O11   Zn7   S    
C14   C15   A    
C21   C22   A    
C58   Cl6   S    
C77   O22   D    
O19   Zn1   S    
C34   C78   A    
C40   C49   S    
C41   C70   S    
C57   C83   S    
C16   O12   A    
