data_mof_unit_24619.cif
_audit_creation_date              2012-10-26T20:37:55-0400
_audit_creation_method            fapswitch 2.2
_symmetry_space_group_name_H-M    P1
_symmetry_Int_Tables_number       1
_space_group_crystal_system       triclinic
_cell_length_a                    9.796488
_cell_length_b                    10.813198
_cell_length_c                    12.998349
_cell_angle_alpha                 90.346272
_cell_angle_beta                  75.20521
_cell_angle_gamma                 109.151043
_cell_volume                      1253.04317449

loop_
_atom_site_label
_atom_site_type_symbol
_atom_type_description
_atom_site_fract_x
_atom_site_fract_y
_atom_site_fract_z
_atom_type_partial_charge
C1    C     C_R   0.443571 0.253786 0.500754 0.530394
C2    C     C_R   0.694410 0.517353 0.001834 -0.125561
C3    C     C_R   0.319206 0.482533 0.889271 -0.126489
C4    C     C_R   0.680632 0.516970 0.110863 -0.121981
C5    C     C_R   0.582688 0.506183 0.855049 -0.125530
C6    C     C_R   0.417303 0.493892 0.145055 -0.116051
C7    C     C_R   0.569801 0.505898 0.963977 0.050010
C8    C     C_R   0.430138 0.494002 0.036143 0.053069
C9    C     C_2   0.421911 0.114487 0.488306 -0.133703
C10   C     C_2   0.584381 0.887166 0.469554 -0.129961
C11   C     C_2   0.523492 0.073773 0.418309 0.016101
C12   C     C_R   0.558219 0.746679 0.486769 0.532262
C13   C     C_2   0.501747 0.932702 0.420702 0.021096
C14   C     C_2   0.398910 0.849269 0.361406 0.253617
C15   C     C_2   0.650830 0.163037 0.333701 0.265819
C16   C     C_2   0.081962 0.510547 0.490783 -0.008029
C17   C     C_2   0.917573 0.487924 0.508276 -0.013195
C18   C     C_R   0.473147 0.496054 0.702826 0.554785
C19   C     C_R   0.526841 0.503917 0.297193 0.533003
C20   C     C_R   0.542097 0.505191 0.182794 0.001523
C21   C     C_R   0.457847 0.494676 0.817292 -0.000060
C22   C     C_R   0.305466 0.482303 0.998301 -0.122286
Cu1   Cu    Cu3+1 0.647370 0.522180 0.481340 0.953360
Cu2   Cu    Cu3+1 0.352630 0.477820 0.518660 0.949677
H1    H     H_    0.310084 0.485053 0.200187 0.130070
H2    H     H_    0.162156 0.584432 0.429018 0.150190
H3    H     H_    0.947813 0.626937 0.396543 0.227217
H4    H     H_    0.052427 0.374160 0.604412 0.205679
H5    H     H_    0.403306 0.753282 0.340286 0.117082
H6    H     H_    0.655660 0.261744 0.313536 0.136307
H7    H     H_    0.689979 0.515266 0.799916 0.122836
H8    H     H_    0.778243 0.525468 0.138741 0.139832
H9    H     H_    0.221488 0.473690 0.861428 0.136378
H10   H     H_    0.197794 0.473090 0.052828 0.119167
H11   H     H_    0.802039 0.526416 0.947321 0.109433
H12   H     H_    0.670847 0.955590 0.500246 0.118708
H13   H     H_    0.322100 0.042602 0.539820 0.118974
H14   H     H_    0.836904 0.412779 0.569112 0.146531
N1    N     N_2   0.131210 0.444490 0.546730 -0.350632
N2    N     N_2   0.868790 0.555510 0.453270 -0.348863
O1    O     O_R   0.578710 0.332530 0.490040 -0.512186
O2    O     O_2   0.750757 0.125072 0.283083 -0.499819
O3    O     O_R   0.421290 0.667470 0.509960 -0.506625
O4    O     O_R   0.329810 0.295070 0.521560 -0.467867
O5    O     O_R   0.670190 0.704930 0.478440 -0.464564
O6    O     O_R   0.604230 0.515670 0.637800 -0.500491
O7    O     O_R   0.395770 0.484330 0.362200 -0.509543
O8    O     O_R   0.355330 0.478200 0.669330 -0.493919
O9    O     O_R   0.644670 0.521800 0.330670 -0.505927
O10   O     O_2   0.310340 0.889213 0.332748 -0.509838

loop_
_geom_bond_atom_site_label_1
_geom_bond_atom_site_label_2
_ccdc_geom_bond_type
C2    H11   S    
C8    C22   A    
Cu1   Cu2   S    
Cu1   O5    S    
C4    C20   A    
C18   C21   S    
C9    C11   D    
C19   O9    A    
C1    O4    A    
C2    C4    A    
C19   C20   S    
Cu1   O1    S    
H3    N2    S    
C9    H13   S    
C1    C9    S    
C7    C8    A    
Cu1   O6    S    
C14   O10   D    
C13   C14   S    
C11   C13   S    
C4    H8    S    
C10   C12   S    
C6    C20   A    
C22   H10   S    
C18   O6    A    
C1    O1    A    
C10   H12   S    
C12   O3    A    
C17   H14   S    
C16   H2    S    
Cu2   O4    S    
C19   O7    A    
Cu1   O9    S    
C6    H1    S    
C3    C21   A    
C3    H9    S    
C14   H5    S    
Cu1   N2    S    
Cu2   O8    S    
Cu2   N1    S    
C5    C21   A    
C15   H6    S    
C5    C7    A    
Cu2   O3    S    
C12   O5    A    
C3    C22   A    
C6    C8    A    
C16   N1    D    
H4    N1    S    
Cu2   O7    S    
C11   C15   S    
C17   N2    D    
C2    C7    A    
C15   O2    D    
C16   C17   S    
C5    H7    S    
C10   C13   D    
C18   O8    A    
