data_mof_unit_9947.cif
_audit_creation_date              2012-12-10T17:46:27-0500
_audit_creation_method            fapswitch 2.2
_symmetry_space_group_name_H-M    P1
_symmetry_Int_Tables_number       1
_space_group_crystal_system       triclinic
_cell_length_a                    20.92268
_cell_length_b                    21.898572
_cell_length_c                    14.784412
_cell_angle_alpha                 90.710458
_cell_angle_beta                  128.611212
_cell_angle_gamma                 88.569299
_cell_volume                      5291.40076343

loop_
_atom_site_label
_atom_site_type_symbol
_atom_type_description
_atom_site_fract_x
_atom_site_fract_y
_atom_site_fract_z
_atom_type_partial_charge
C1    C     C_R   0.602347 0.913347 0.630664 0.831153
C2    C     C_R   0.702538 0.209462 0.110607 0.148845
C3    C     C_R   0.708435 0.760502 0.942284 0.046975
C4    C     C_R   0.223353 0.725905 0.965852 0.035092
C5    C     C_R   0.771346 0.277542 0.028503 0.034344
C6    C     C_R   0.771580 0.719131 0.024850 0.053321
C7    C     C_R   0.208425 0.260491 0.942267 0.046971
C8    C     C_R   0.305597 0.809717 0.986243 -0.198350
C9    C     C_R   0.687070 0.194784 0.006057 -0.199251
C10   C     C_R   0.640707 0.770358 0.940578 -0.235546
C11   C     C_R   0.332570 0.202195 0.014634 -0.236204
C12   C     C_R   0.805613 0.309707 0.986257 -0.198359
C13   C     C_R   0.636531 0.743993 0.022280 0.164956
C14   C     C_R   0.187074 0.694782 0.006062 -0.199252
C15   C     C_R   0.140693 0.270343 0.940554 -0.235549
C16   C     C_R   0.832579 0.702203 0.014649 -0.236203
C17   C     C_3   0.324146 0.832638 0.834995 -0.424930
C18   C     C_3   0.370243 0.889551 0.902288 -0.803710
C19   C     C_3   0.665203 0.173485 0.154470 -0.426308
C20   C     C_3   0.609138 0.122058 0.078080 -0.814877
C21   C     C_3   0.558868 0.754139 0.008743 -0.415570
C22   C     C_3   0.569951 0.802343 0.092788 -0.804196
C23   C     C_3   0.403668 0.206509 0.927645 -0.417659
C24   C     C_R   0.333463 0.225687 0.927928 0.159266
C25   C     C_3   0.464548 0.258039 0.971110 -0.805659
C26   C     C_3   0.824142 0.332641 0.834995 -0.424965
C27   C     C_3   0.870207 0.389567 0.902268 -0.803737
C28   C     C_3   0.165216 0.673478 0.154483 -0.426305
C29   C     C_3   0.109148 0.622052 0.078091 -0.814877
C30   C     C_3   0.058845 0.254111 0.008699 -0.415578
C31   C     C_3   0.069901 0.302327 0.092706 -0.804202
C32   C     C_3   0.903676 0.706515 0.927659 -0.417662
C33   C     C_3   0.964558 0.758043 0.971125 -0.805657
C34   C     C_3   0.717015 0.994440 0.524653 -0.301813
C35   C     C_R   0.789912 0.294970 0.881597 0.155182
C36   C     C_3   0.772256 0.048327 0.554879 -0.847292
C37   C     C_3   0.286503 0.987464 0.478052 -0.277025
C38   C     C_3   0.196967 0.001202 0.423934 -0.857309
C39   C     C_3   0.217015 0.494439 0.524651 -0.301814
C40   C     C_3   0.272254 0.548326 0.554872 -0.847304
C41   C     C_3   0.786503 0.487465 0.478058 -0.277030
C42   C     C_3   0.696968 0.501181 0.423955 -0.857378
C43   C     C_R   0.202546 0.709457 0.110615 0.148842
C44   C     C_R   0.136516 0.243975 0.022253 0.164963
C45   C     C_R   0.833471 0.725694 0.927943 0.159264
C46   C     C_R   0.326386 0.025684 0.669134 -0.264166
C47   C     C_R   0.673351 0.975953 0.329064 -0.288936
C48   C     C_R   0.826390 0.525699 0.669134 -0.264144
C49   C     C_R   0.396400 0.085670 0.367688 0.830337
C50   C     C_R   0.173348 0.475944 0.329062 -0.288936
C51   C     C_R   0.350801 0.006328 0.603833 0.264964
C52   C     C_R   0.648800 0.990770 0.395309 0.288372
C53   C     C_R   0.850802 0.506334 0.603835 0.264970
C54   C     C_R   0.148799 0.490767 0.395308 0.288375
C55   C     C_R   0.489543 0.000487 0.776021 0.682721
C56   C     C_R   0.510754 0.002977 0.223692 0.679997
C57   C     C_R   0.989543 0.500485 0.776021 0.682724
C58   C     C_R   0.010754 0.502979 0.223692 0.679995
C59   C     C_R   0.464118 0.007148 0.845728 -0.135483
C60   C     C_R   0.398934 0.913594 0.369823 0.829242
C61   C     C_R   0.536165 0.997402 0.153484 -0.144152
C62   C     C_R   0.964118 0.507150 0.845728 -0.135473
C63   C     C_R   0.036164 0.497399 0.153483 -0.144158
C64   C     C_R   0.382630 0.026808 0.789119 0.032424
C65   C     C_R   0.617853 0.978284 0.209493 0.057015
C66   C     C_R   0.882634 0.526819 0.789120 0.032387
C67   C     C_R   0.117848 0.478276 0.209490 0.057015
C68   C     C_R   0.514881 0.995282 0.967666 0.093893
C69   C     C_R   0.485134 0.009351 0.031290 0.092512
C70   C     C_R   0.014878 0.495279 0.967664 0.093896
C71   C     C_R   0.600998 0.086477 0.630120 0.826923
C72   C     C_R   0.985134 0.509352 0.031289 0.092502
C73   C     C_R   0.407655 0.038078 0.971676 -0.203597
C74   C     C_R   0.592792 0.967427 0.027229 -0.208783
C75   C     C_R   0.907659 0.538086 0.971678 -0.203565
C76   C     C_R   0.092785 0.467417 0.027224 -0.208779
C77   C     C_R   0.356434 0.044726 0.852362 -0.204953
C78   C     C_R   0.644528 0.961790 0.146442 -0.196403
C79   C     C_R   0.856440 0.544740 0.852365 -0.204952
C80   C     C_R   0.144520 0.461776 0.146436 -0.196378
C81   C     C_R   0.652221 0.139095 0.696488 -0.165850
C82   C     C_R   0.102346 0.413346 0.630663 0.831150
C83   C     C_R   0.346878 0.861536 0.302483 -0.167146
C84   C     C_R   0.332599 0.131244 0.286800 -0.165647
C85   C     C_R   0.659299 0.862157 0.701895 -0.165536
C86   C     C_R   0.152219 0.639096 0.696486 -0.165849
C87   C     C_R   0.846876 0.361537 0.302481 -0.167147
C88   C     C_R   0.832602 0.631246 0.286805 -0.165651
C89   C     C_R   0.159295 0.362154 0.701889 -0.165535
C90   C     C_R   0.725696 0.227214 0.713918 -0.282450
C91   C     C_R   0.271641 0.774146 0.282786 -0.274543
C92   C     C_R   0.202477 0.182489 0.198977 -0.268954
C93   C     C_R   0.896400 0.585670 0.367689 0.830343
C94   C     C_R   0.768512 0.791212 0.756106 -0.267200
C95   C     C_R   0.225687 0.727219 0.713909 -0.282449
C96   C     C_R   0.771627 0.274153 0.282774 -0.274541
C97   C     C_R   0.702485 0.682496 0.198990 -0.268955
C98   C     C_R   0.268505 0.291207 0.756095 -0.267201
C99   C     C_R   0.679486 0.176866 0.651948 0.608446
C100  C     C_R   0.318995 0.823784 0.346199 0.600450
C101  C     C_R   0.266357 0.145115 0.285352 0.594130
C102  C     C_R   0.712107 0.836685 0.682924 0.591542
C103  C     C_R   0.179479 0.676870 0.651942 0.608445
C104  C     C_R   0.898934 0.413594 0.369822 0.829241
C105  C     C_R   0.818982 0.323790 0.346189 0.600447
C106  C     C_R   0.766362 0.645119 0.285360 0.594128
C107  C     C_R   0.212102 0.336682 0.682917 0.591542
C108  C     C_R   0.669772 0.153683 0.802195 -0.312425
C109  C     C_R   0.328702 0.847702 0.196146 -0.308098
C110  C     C_R   0.335691 0.158051 0.204196 -0.281715
C111  C     C_R   0.659833 0.837825 0.789579 -0.295313
C112  C     C_R   0.169770 0.653684 0.802193 -0.312421
C113  C     C_R   0.828709 0.347699 0.196150 -0.308085
C114  C     C_R   0.835695 0.658053 0.204203 -0.281713
C115  C     C_R   0.100998 0.586477 0.630120 0.826924
C116  C     C_R   0.159826 0.337819 0.789568 -0.295315
C117  C     C_R   0.711426 0.207494 0.863117 0.073918
C118  C     C_R   0.284704 0.795086 0.132672 0.074838
C119  C     C_R   0.270781 0.194943 0.113555 0.057800
C120  C     C_R   0.712407 0.788563 0.859422 0.057818
C121  C     C_R   0.211422 0.707497 0.863113 0.073922
C122  C     C_R   0.784708 0.295084 0.132675 0.074837
C123  C     C_R   0.770789 0.694950 0.113568 0.057800
C124  C     C_R   0.212398 0.288556 0.859408 0.057817
C125  C     C_R   0.742517 0.243565 0.819529 0.011281
C126  C     C_R   0.289904 0.794975 0.881590 0.155172
C127  C     C_R   0.252975 0.759135 0.175503 0.012410
C128  C     C_R   0.202894 0.207523 0.111770 0.034354
C129  C     C_R   0.771995 0.768249 0.847846 0.044524
C130  C     C_R   0.242509 0.743569 0.819523 0.011275
C131  C     C_R   0.752969 0.259139 0.175497 0.012407
C132  C     C_R   0.702904 0.707534 0.111788 0.034361
C133  C     C_R   0.271986 0.268242 0.847833 0.044525
C134  C     C_R   0.723356 0.225903 0.965854 0.035092
C135  C     C_R   0.271338 0.777547 0.028495 0.034339
C136  C     C_R   0.271571 0.219122 0.024835 0.053322
Cu1   Cu    Cu3+1 0.526640 0.000000 0.436960 1.034976
Cu2   Cu    Cu3+1 0.473360 0.000000 0.563040 1.025563
Cu3   Cu    Cu3+1 0.026640 0.500000 0.436960 1.034975
Cu4   Cu    Cu3+1 0.973360 0.500000 0.563040 1.025563
F1    F     F_    0.338879 0.833614 0.451809 -0.680018
F2    F     F_    0.569735 0.999499 0.823957 -0.691024
F3    F     F_    0.930481 0.505613 0.175232 -0.689870
F4    F     F_    0.069735 0.499492 0.823958 -0.691019
F5    F     F_    0.659677 0.166505 0.546560 -0.676140
F6    F     F_    0.710559 0.855981 0.594762 -0.682499
F7    F     F_    0.262159 0.122144 0.366229 -0.678715
F8    F     F_    0.838858 0.333622 0.451793 -0.680026
F9    F     F_    0.159670 0.666508 0.546554 -0.676140
F10   F     F_    0.210557 0.355980 0.594759 -0.682500
F11   F     F_    0.762163 0.622147 0.366236 -0.678706
F12   F     F_    0.430481 0.005608 0.175232 -0.689875
H1    H     H_    0.384758 0.056077 0.014820 0.208923
H2    H     H_    0.150975 0.621312 0.835156 0.200283
H3    H     H_    0.120564 0.359480 0.804892 0.195842
H4    H     H_    0.890467 0.649533 0.213915 0.191110
H5    H     H_    0.246650 0.753472 0.675916 0.168926
H6    H     H_    0.751063 0.247401 0.320792 0.168843
H7    H     H_    0.652553 0.690847 0.201553 0.184788
H8    H     H_    0.309258 0.274545 0.739383 0.182360
H9    H     H_    0.746665 0.253464 0.675930 0.168927
H10   H     H_    0.251087 0.747390 0.320811 0.168842
H11   H     H_    0.152545 0.190841 0.201539 0.184778
H12   H     H_    0.615714 0.949296 0.984191 0.214246
H13   H     H_    0.809265 0.774550 0.739395 0.182359
H14   H     H_    0.345947 0.846469 0.034626 0.166033
H15   H     H_    0.644883 0.159221 0.955436 0.167752
H16   H     H_    0.587638 0.796419 0.872165 0.148292
H17   H     H_    0.379957 0.169088 0.071443 0.140865
H18   H     H_    0.845975 0.346451 0.034649 0.166029
H19   H     H_    0.144890 0.659217 0.955445 0.167753
H20   H     H_    0.087623 0.296401 0.872135 0.148299
H21   H     H_    0.879967 0.669097 0.071458 0.140865
H22   H     H_    0.295211 0.063478 0.808961 0.154382
H23   H     H_    0.884764 0.556086 0.014824 0.208917
H24   H     H_    0.705942 0.943467 0.189720 0.156741
H25   H     H_    0.795220 0.563498 0.808966 0.154384
H26   H     H_    0.205931 0.443448 0.189713 0.156738
H27   H     H_    0.263038 0.036526 0.628608 0.170635
H28   H     H_    0.736969 0.963944 0.371580 0.160934
H29   H     H_    0.763044 0.536550 0.628608 0.170642
H30   H     H_    0.236965 0.463932 0.371576 0.160934
H31   H     H_    0.329379 0.922127 0.903774 0.272698
H32   H     H_    0.425225 0.878431 0.991634 0.251343
H33   H     H_    0.390825 0.910902 0.857433 0.255705
H34   H     H_    0.115704 0.449283 0.984184 0.214241
H35   H     H_    0.365827 0.802975 0.830246 0.208696
H36   H     H_    0.272460 0.848506 0.746093 0.215308
H37   H     H_    0.556254 0.138903 0.991071 0.251925
H38   H     H_    0.644036 0.086381 0.070336 0.278014
H39   H     H_    0.585415 0.102405 0.120102 0.253180
H40   H     H_    0.715567 0.152788 0.239690 0.217272
H41   H     H_    0.629258 0.205473 0.166986 0.214554
H42   H     H_    0.629156 0.796439 0.180924 0.261872
H43   H     H_    0.567526 0.848365 0.060477 0.260666
H44   H     H_    0.519929 0.799045 0.098921 0.247039
H45   H     H_    0.349106 0.879762 0.165080 0.197010
H46   H     H_    0.507304 0.769374 0.919347 0.202297
H47   H     H_    0.539125 0.710429 0.020711 0.201801
H48   H     H_    0.434121 0.300824 0.921173 0.255274
H49   H     H_    0.494945 0.267253 0.063757 0.255068
H50   H     H_    0.511827 0.244649 0.962151 0.250823
H51   H     H_    0.437802 0.166416 0.985124 0.211262
H52   H     H_    0.380326 0.191410 0.840088 0.206985
H53   H     H_    0.829331 0.422123 0.903762 0.272699
H54   H     H_    0.925202 0.378462 0.991610 0.251341
H55   H     H_    0.890759 0.410933 0.857390 0.255727
H56   H     H_    0.650975 0.121312 0.835156 0.200289
H57   H     H_    0.865838 0.302990 0.830262 0.208711
H58   H     H_    0.772452 0.348498 0.746088 0.215317
H59   H     H_    0.056262 0.638900 0.991085 0.251926
H60   H     H_    0.144042 0.586375 0.070340 0.278010
H61   H     H_    0.085428 0.602398 0.120116 0.253179
H62   H     H_    0.215583 0.652779 0.239699 0.217270
H63   H     H_    0.129275 0.705464 0.167008 0.214555
H64   H     H_    0.129098 0.296432 0.180856 0.261871
H65   H     H_    0.067479 0.348345 0.060381 0.260664
H66   H     H_    0.019866 0.299034 0.098811 0.247045
H67   H     H_    0.620572 0.859488 0.804903 0.195842
H68   H     H_    0.007279 0.269326 0.919291 0.202290
H69   H     H_    0.039118 0.210400 0.020692 0.201801
H70   H     H_    0.934133 0.800828 0.921186 0.255274
H71   H     H_    0.994954 0.767259 0.063771 0.255070
H72   H     H_    0.011838 0.744651 0.962170 0.250823
H73   H     H_    0.937809 0.666422 0.985137 0.211260
H74   H     H_    0.880333 0.691416 0.840101 0.206985
H75   H     H_    0.735222 0.091011 0.515027 0.315781
H76   H     H_    0.815887 0.054169 0.650286 0.247110
H77   H     H_    0.808025 0.040277 0.523439 0.239090
H78   H     H_    0.390465 0.149534 0.213912 0.191107
H79   H     H_    0.696168 0.998840 0.576010 0.252776
H80   H     H_    0.754831 0.951708 0.554749 0.232267
H81   H     H_    0.186712 0.050896 0.427414 0.294580
H82   H     H_    0.157010 0.987208 0.331619 0.253165
H83   H     H_    0.179040 0.974890 0.468452 0.242214
H84   H     H_    0.296444 0.009185 0.421410 0.267399
H85   H     H_    0.292451 0.937338 0.473505 0.246858
H86   H     H_    0.308016 0.540278 0.523419 0.239097
H87   H     H_    0.235219 0.591011 0.515028 0.315779
H88   H     H_    0.315892 0.554165 0.650278 0.247111
H89   H     H_    0.849125 0.379753 0.165091 0.197009
H90   H     H_    0.196168 0.498840 0.576009 0.252777
H91   H     H_    0.254832 0.451707 0.554749 0.232269
H92   H     H_    0.686689 0.550874 0.427404 0.294562
H93   H     H_    0.657011 0.487169 0.331653 0.253173
H94   H     H_    0.679065 0.474873 0.468504 0.242237
H95   H     H_    0.796431 0.509191 0.421406 0.267399
H96   H     H_    0.792465 0.437342 0.473516 0.246892
N1    N     N_R   0.433280 0.000000 0.657760 -0.242788
N2    N     N_R   0.566720 0.000000 0.342240 -0.228505
N3    N     N_R   0.933280 0.500000 0.657760 -0.242795
N4    N     N_R   0.066720 0.500000 0.342240 -0.228507
O1    O     O_R   0.600040 0.935040 0.546740 -0.566882
O2    O     O_R   0.444990 0.064930 0.346780 -0.536123
O3    O     O_R   0.444990 0.935070 0.346780 -0.545550
O4    O     O_R   0.555010 0.064930 0.653220 -0.544880
O5    O     O_R   0.055010 0.435070 0.653220 -0.538879
O6    O     O_R   0.944990 0.564930 0.346780 -0.536118
O7    O     O_R   0.944990 0.435070 0.346780 -0.545558
O8    O     O_R   0.055010 0.564930 0.653220 -0.544885
O9    O     O_R   0.399960 0.064960 0.453260 -0.564116
O10   O     O_R   0.399960 0.935040 0.453260 -0.579066
O11   O     O_R   0.600040 0.064960 0.546740 -0.558442
O12   O     O_R   0.100040 0.435040 0.546740 -0.566881
O13   O     O_R   0.899960 0.564960 0.453260 -0.564113
O14   O     O_R   0.899960 0.435040 0.453260 -0.579062
O15   O     O_R   0.100040 0.564960 0.546740 -0.558443
O16   O     O_R   0.555010 0.935070 0.653220 -0.538882

loop_
_geom_bond_atom_site_label_1
_geom_bond_atom_site_label_2
_ccdc_geom_bond_type
C16   H21   S    
C24   C133  A    
C96   H6    S    
C96   C105  A    
C42   H93   S    
C45   C129  A    
C77   H22   S    
C56   C61   A    
C55   C59   A    
C123  C132  A    
C52   N2    A    
C41   C42   S    
C122  C131  A    
C58   N4    A    
Cu3   N4    S    
C21   H46   S    
C108  H56   S    
Cu2   N1    S    
C22   H44   S    
C38   H81   S    
Cu1   N2    S    
C57   C62   A    
C18   H33   S    
C66   C79   A    
C98   C133  A    
C59   C64   A    
C47   H28   S    
C82   C89   S    
C91   C127  A    
C124  C133  A    
C37   H84   S    
C97   H7    S    
C49   C84   S    
C28   C29   S    
C104  O14   A    
C15   C44   A    
C40   H87   S    
C25   H49   S    
C115  O8    A    
C22   H42   S    
C20   H38   S    
C48   H29   S    
C37   C51   S    
C60   C83   S    
C17   C126  S    
C115  O15   A    
C39   C54   S    
C93   O13   A    
C126  C130  A    
C17   H36   S    
C68   C74   A    
Cu3   O6    S    
C11   C24   A    
C62   C70   A    
C64   C77   A    
C35   C125  A    
C53   N3    A    
C116  H3    S    
C40   H86   S    
C110  H78   S    
C107  F10   S    
C109  H45   S    
C58   F3    S    
C13   C132  A    
C42   H94   S    
C113  C122  A    
C19   C20   S    
C95   C103  A    
C68   C69   A    
Cu3   O7    S    
C4    C121  A    
C95   C130  A    
C23   C24   S    
C55   N1    A    
C91   H10   S    
C69   C73   A    
C29   H61   S    
C106  F11   S    
C91   C100  A    
C57   N3    A    
Cu4   O8    S    
C50   C67   A    
C121  C130  A    
C27   H55   S    
Cu1   O2    S    
C19   H40   S    
C31   H66   S    
C9    C134  A    
C3    C6    A    
C28   H63   S    
C7    C15   A    
C99   F5    S    
C81   C108  A    
C36   H76   S    
C55   F2    S    
C112  H2    S    
C21   C22   S    
C41   H95   S    
C82   O5    A    
C78   H24   S    
C84   C101  A    
C30   C44   S    
C75   C79   A    
C50   H30   S    
Cu4   N3    S    
C111  H67   S    
C6    C123  A    
C20   H39   S    
C72   C75   A    
Cu2   O4    S    
C86   C103  A    
C92   C128  A    
C94   H13   S    
C114  H4    S    
C1    O1    A    
C109  C118  A    
C17   C18   S    
C30   H69   S    
C39   H91   S    
C71   O11   A    
C5    C134  A    
C63   C67   A    
C94   C129  A    
C87   C113  A    
Cu4   O5    S    
C21   H47   S    
C90   H9    S    
C75   H23   S    
C120  C129  A    
Cu2   O10   S    
C9    H15   S    
C5    C12   A    
C25   H50   S    
C43   C127  A    
C38   H83   S    
C62   C66   A    
C36   H77   S    
C12   H18   S    
C31   H64   S    
C81   C99   A    
C79   H25   S    
C105  F8    S    
C5    C122  A    
C85   C102  A    
C60   O3    A    
C84   C110  A    
C98   C107  A    
C87   C104  S    
C117  C134  A    
C86   C115  S    
C27   H53   S    
C104  O7    A    
C80   H26   S    
C110  C119  A    
C86   C112  A    
C37   C38   S    
C60   O10   A    
C59   C68   A    
C88   C106  A    
C33   H70   S    
C37   H85   S    
C87   C105  A    
Cu2   O9    S    
C18   H32   S    
C56   N2    A    
C89   C107  A    
C83   C109  A    
C2    C131  A    
C26   C27   S    
C13   C21   S    
C26   H58   S    
C32   C45   S    
C50   C54   A    
C32   H73   S    
C12   C35   A    
C34   H79   S    
C41   C53   S    
Cu1   O3    S    
C8    H14   S    
C92   C101  A    
C4    C135  A    
C23   H51   S    
C97   C106  A    
Cu1   O11   S    
C92   H11   S    
C8    C126  A    
C32   H74   S    
C11   H17   S    
C36   H75   S    
C113  H89   S    
C83   C100  A    
C96   C131  A    
C41   H96   S    
C82   O12   A    
Cu4   O14   S    
C22   H43   S    
C1    C85   S    
C56   F12   S    
C118  C127  A    
C114  C123  A    
C73   H1    S    
C33   H71   S    
C90   C99   A    
C20   H37   S    
C76   H34   S    
C29   H60   S    
C30   H68   S    
C61   C69   A    
C58   C63   A    
Cu3   O15   S    
C88   C93   S    
C44   C128  A    
C49   O9    A    
C65   C78   A    
C116  C124  A    
C57   F4    S    
C2    C19   S    
C95   H5    S    
C108  C117  A    
C34   H80   S    
C67   C80   A    
C76   C80   A    
C97   C132  A    
C98   H8    S    
C14   H19   S    
C85   C111  A    
C10   C13   A    
C16   C45   A    
C38   H82   S    
Cu3   Cu4   S    
C19   H41   S    
C47   C52   A    
C71   C81   S    
C7    C124  A    
Cu1   Cu2   S    
C28   C43   S    
C34   C52   S    
C119  C136  A    
C23   H52   S    
C100  F1    S    
C27   H54   S    
C48   C66   A    
C32   C33   S    
C39   H90   S    
C46   H27   S    
C7    C136  A    
C40   H88   S    
C25   H48   S    
C11   C136  A    
C119  C128  A    
C70   C76   A    
C49   O2    A    
C101  F7    S    
C30   C31   S    
C1    O16   A    
Cu2   O16   S    
C18   H31   S    
C17   H35   S    
C46   C51   A    
C42   H92   S    
C48   C53   A    
C90   C125  A    
C15   H20   S    
C14   C43   A    
C26   H57   S    
C34   C36   S    
C23   C25   S    
C88   C114  A    
C4    C14   A    
C51   N1    A    
C29   H59   S    
Cu1   O1    S    
C71   O4    A    
C89   C116  A    
C28   H62   S    
C3    C120  A    
C103  F9    S    
C6    C16   A    
C93   O6    A    
C39   C40   S    
C33   H72   S    
C61   C65   A    
C26   C35   S    
C112  C121  A    
C63   C72   A    
C94   C102  A    
C73   C77   A    
C10   H16   S    
C74   C78   A    
C46   C64   A    
C3    C10   A    
C54   N4    A    
Cu4   O13   S    
C111  C120  A    
C70   C72   A    
C31   H65   S    
Cu3   O12   S    
C2    C9    A    
C117  C125  A    
C47   C65   A    
C102  F6    S    
C118  C135  A    
C74   H12   S    
C8    C135  A    
