data_mof_unit_17294.cif
_audit_creation_date              2012-12-10T22:11:09-0500
_audit_creation_method            fapswitch 2.2
_symmetry_space_group_name_H-M    P1
_symmetry_Int_Tables_number       1
_space_group_crystal_system       triclinic
_cell_length_a                    12.12786
_cell_length_b                    12.302688
_cell_length_c                    22.952402
_cell_angle_alpha                 90.930391
_cell_angle_beta                  90.60433
_cell_angle_gamma                 90.803378
_cell_volume                      3423.63256179

loop_
_atom_site_label
_atom_site_type_symbol
_atom_type_description
_atom_site_fract_x
_atom_site_fract_y
_atom_site_fract_z
_atom_type_partial_charge
C1    C     C_R   0.657411 0.998279 0.579208 0.902283
C2    C     C_R   0.342589 0.001721 0.420792 0.902287
C3    C     C_R   0.892487 0.778693 0.144999 -0.197637
C4    C     C_R   0.107519 0.221284 0.855013 -0.197630
C5    C     C_R   0.089425 0.887021 0.174897 -0.167233
C6    C     C_R   0.910570 0.113000 0.825091 -0.167246
C7    C     C_R   0.089130 0.806179 0.132507 -0.194882
C8    C     C_R   0.910864 0.193843 0.867479 -0.194882
C9    C     C_R   0.898303 0.130882 0.176471 -0.199876
C10   C     C_R   0.101697 0.869115 0.823527 -0.199877
C11   C     C_R   0.899207 0.213128 0.136307 -0.196840
C12   C     C_R   0.100794 0.786867 0.863690 -0.196842
C13   C     C_R   0.144110 0.910964 0.304216 -0.263215
C14   C     C_R   0.855911 0.089042 0.695773 -0.263204
C15   C     C_R   0.226690 0.908682 0.346008 -0.201015
C16   C     C_R   0.773331 0.091324 0.653981 -0.201008
C17   C     C_R   0.838250 0.101366 0.303429 -0.109537
C18   C     C_R   0.161751 0.898634 0.696571 -0.109552
C19   C     C_R   0.758933 0.099288 0.346114 -0.214767
C20   C     C_R   0.241070 0.900712 0.653887 -0.214770
C21   C     C_3   0.993676 0.008225 0.247681 -0.097236
C22   C     C_3   0.006326 0.991777 0.752319 -0.097240
C23   C     C_R   0.654162 0.001693 0.420458 0.874575
C24   C     C_R   0.345839 0.998307 0.579542 0.874574
C25   C     C_R   0.091936 0.009188 0.290221 0.016529
C26   C     C_R   0.908068 0.990814 0.709777 0.016537
C27   C     C_R   0.256313 0.003438 0.376637 -0.092435
C28   C     C_R   0.743689 0.996562 0.623363 -0.092424
C29   C     C_R   0.895297 0.006192 0.288296 0.126420
C30   C     C_R   0.104706 0.993809 0.711705 0.126428
C31   C     C_R   0.736095 0.002746 0.375171 -0.025028
C32   C     C_R   0.263906 0.997254 0.624830 -0.025022
C33   C     C_R   0.995356 0.104192 0.206829 0.208544
C34   C     C_R   0.004643 0.895812 0.793172 0.208557
C35   C     C_R   0.998201 0.267005 0.123671 -0.026180
C36   C     C_R   0.001798 0.732998 0.876330 -0.026186
C37   C     C_R   0.992324 0.911936 0.205055 0.106038
C38   C     C_R   0.007678 0.088066 0.794943 0.106037
C39   C     C_R   0.990967 0.750711 0.117884 -0.025191
C40   C     C_R   0.009033 0.249289 0.882115 -0.025195
C41   C     C_R   0.992769 0.662760 0.075101 0.867891
C42   C     C_R   0.007231 0.337240 0.924899 0.867894
C43   C     C_R   0.998976 0.351762 0.080667 0.872386
C44   C     C_R   0.001023 0.648239 0.919333 0.872386
C45   C     C_R   0.120380 0.105356 0.322615 0.569891
C46   C     C_R   0.879614 0.894640 0.677391 0.569879
C47   C     C_R   0.202082 0.100459 0.365848 -0.303987
C48   C     C_R   0.797905 0.899535 0.634161 -0.304014
C49   C     C_R   0.872215 0.909895 0.318581 -0.173524
C50   C     C_R   0.127790 0.090107 0.681422 -0.173506
C51   C     C_R   0.792330 0.907807 0.361008 -0.201432
C52   C     C_R   0.207672 0.092194 0.638993 -0.201426
C53   C     C_R   0.095618 0.154166 0.190876 -0.113643
C54   C     C_R   0.904379 0.845846 0.809129 -0.113611
C55   C     C_R   0.096627 0.236390 0.150570 -0.221671
C56   C     C_R   0.903369 0.763622 0.849436 -0.221647
C57   C     C_R   0.892763 0.859601 0.187660 -0.179277
C58   C     C_R   0.107244 0.140378 0.812350 -0.179256
H1    H     H_    0.221234 0.171832 0.392386 0.167819
H2    H     H_    0.778736 0.828155 0.607630 0.167814
H3    H     H_    0.917507 0.836306 0.309858 0.143411
H4    H     H_    0.082500 0.163700 0.690146 0.143398
H5    H     H_    0.173800 0.129448 0.209056 0.108767
H6    H     H_    0.826195 0.870570 0.790952 0.108760
H7    H     H_    0.814397 0.882092 0.206012 0.137493
H8    H     H_    0.185614 0.117872 0.794007 0.137479
H9    H     H_    0.166010 0.930337 0.184326 0.134358
H10   H     H_    0.833978 0.069697 0.815655 0.134357
H11   H     H_    0.821387 0.087915 0.184002 0.130608
H12   H     H_    0.178618 0.912075 0.815994 0.130598
H13   H     H_    0.119529 0.834198 0.284143 0.165566
H14   H     H_    0.880505 0.165813 0.715838 0.165553
H15   H     H_    0.856673 0.178924 0.284117 0.179564
H16   H     H_    0.143326 0.821072 0.715881 0.179569
H17   H     H_    0.776545 0.832623 0.383584 0.158582
H18   H     H_    0.223452 0.167380 0.616417 0.158577
H19   H     H_    0.174599 0.274938 0.140071 0.154494
H20   H     H_    0.825394 0.725081 0.859938 0.154490
H21   H     H_    0.815312 0.738202 0.133332 0.155049
H22   H     H_    0.184701 0.261754 0.866691 0.155048
H23   H     H_    0.165867 0.787718 0.111003 0.156682
H24   H     H_    0.834118 0.212321 0.888973 0.156684
H25   H     H_    0.822649 0.233020 0.114495 0.159499
H26   H     H_    0.177355 0.766968 0.885497 0.159498
H27   H     H_    0.266116 0.832163 0.354923 0.167601
H28   H     H_    0.733920 0.167850 0.645058 0.167599
H29   H     H_    0.716494 0.173784 0.356799 0.158639
H30   H     H_    0.283511 0.826214 0.643204 0.158634
O1    O     O_R   0.621380 0.090460 0.561410 -0.627143
O2    O     O_R   0.378620 0.909540 0.438590 -0.627140
O3    O     O_R   0.617150 0.909540 0.438590 -0.632109
O4    O     O_R   0.382850 0.090460 0.561410 -0.632108
O5    O     O_R   0.619720 0.093230 0.440890 -0.627369
O6    O     O_R   0.380280 0.906770 0.559110 -0.627368
O7    O     O_R   0.618800 0.906770 0.559110 -0.633369
O8    O     O_R   0.381200 0.093230 0.440890 -0.633369
O9    O     O_R   0.087590 0.627480 0.058790 -0.630666
O10   O     O_R   0.912410 0.372520 0.941210 -0.630667
O11   O     O_R   0.905660 0.383870 0.059980 -0.630932
O12   O     O_R   0.094340 0.616130 0.940020 -0.630931
O13   O     O_R   0.092570 0.390420 0.063230 -0.627909
O14   O     O_R   0.907430 0.609580 0.936770 -0.627909
O15   O     O_R   0.900680 0.620930 0.055550 -0.626919
O16   O     O_R   0.099320 0.379070 0.944450 -0.626919
Zn1   Zn    Zn3+2 0.501730 0.123520 0.501540 0.936737
Zn2   Zn    Zn3+2 0.498270 0.876480 0.498460 0.936737
Zn3   Zn    Zn3+2 0.125690 0.504390 0.002180 0.934184
Zn4   Zn    Zn3+2 0.874310 0.495610 0.997820 0.934183
O17   O     O_3   0.059060 0.199049 0.315224 -0.623237
C59   C     C_3   0.126446 0.293609 0.313780 -0.355976
H31   H     H_    0.205884 0.279905 0.291009 0.150215
H32   H     H_    0.141463 0.326240 0.358588 0.175394
H33   H     H_    0.081698 0.356629 0.289311 0.200999
O18   O     O_3   0.940937 0.800947 0.684785 -0.623239
C60   C     C_3   0.873567 0.706374 0.686204 -0.355956
H34   H     H_    0.858587 0.673759 0.641389 0.175391
H35   H     H_    0.794112 0.720054 0.708962 0.150224
H36   H     H_    0.918311 0.643348 0.710672 0.200986

loop_
_geom_bond_atom_site_label_1
_geom_bond_atom_site_label_2
_ccdc_geom_bond_type
C16   C28   A    
C9    C33   A    
O8    Zn1   S    
O13   Zn3   S    
C23   O3    A    
C5    C37   A    
C53   H5    S    
C17   C29   A    
C5    H9    S    
C19   C31   A    
C43   O13   A    
O18   C60   S    
C56   H20   S    
C39   C41   S    
C29   C49   A    
O11   Zn4   S    
C8    H24   S    
C43   O11   A    
C4    H22   S    
C19   H29   S    
C42   O10   A    
C55   H19   S    
C45   O17   S    
C21   C33   S    
C60   H34   S    
C22   C38   S    
O10   Zn4   S    
C12   H26   S    
C2    O2    A    
C59   H31   S    
C32   C52   A    
C21   C25   S    
O5    Zn1   S    
C38   C58   A    
C58   H8    S    
O6    Zn2   S    
C4    C40   A    
C49   C51   A    
C1    C28   S    
C50   C52   A    
C6    C38   A    
O14   Zn4   S    
O15   Zn4   S    
C18   C30   A    
C12   C36   A    
C35   C43   S    
C18   C20   A    
C15   H27   S    
C45   C47   A    
C30   C50   A    
C3    H21   S    
C18   H16   S    
C17   H15   S    
O3    Zn2   S    
C13   C25   A    
C24   O4    A    
C48   H2    S    
C46   C48   A    
C53   C55   A    
C33   C53   A    
C22   C34   S    
C54   C56   A    
C49   H3    S    
C46   O18   S    
C35   C55   A    
O2    Zn2   S    
C31   C51   A    
C5    C7    A    
C44   O14   A    
C6    C8    A    
C13   H13   S    
C11   H25   S    
C21   C29   S    
C2    O8    A    
C23   O5    A    
C23   C31   S    
C24   C32   S    
C36   C56   A    
O7    Zn2   S    
C24   O6    A    
C15   C27   A    
C1    O7    A    
C60   H36   S    
C10   C34   A    
C14   C26   A    
C9    C11   A    
C59   H33   S    
C2    C27   S    
C10   C12   A    
C10   H12   S    
C7    H23   S    
C34   C54   A    
C13   C15   A    
C9    H11   S    
C14   C16   A    
C36   C44   S    
O1    Zn1   S    
C25   C45   A    
C51   H17   S    
C20   C32   A    
C27   C47   A    
C60   H35   S    
C28   C48   A    
O12   Zn3   S    
C1    O1    A    
C22   C30   S    
C14   H14   S    
C57   H7    S    
C40   C42   S    
C52   H18   S    
C42   O16   A    
C11   C35   A    
O17   C59   S    
C44   O12   A    
C54   H6    S    
C16   H28   S    
C50   H4    S    
C20   H30   S    
C6    H10   S    
C17   C19   A    
C3    C57   A    
C41   O9    A    
C59   H32   S    
C26   C46   A    
C47   H1    S    
O9    Zn3   S    
C41   O15   A    
O4    Zn1   S    
C21   C37   S    
C22   C26   S    
C4    C58   A    
C7    C39   A    
C8    C40   A    
O16   Zn3   S    
C37   C57   A    
C3    C39   A    
