data_mof_unit_68316.cif
_audit_creation_date              2012-12-11T16:07:31-0500
_audit_creation_method            fapswitch 2.2
_symmetry_space_group_name_H-M    P1
_symmetry_Int_Tables_number       1
_space_group_crystal_system       triclinic
_cell_length_a                    7.14266
_cell_length_b                    14.814762
_cell_length_c                    16.039532
_cell_angle_alpha                 90.251723
_cell_angle_beta                  90.139461
_cell_angle_gamma                 91.370208
_cell_volume                      1696.74491439

loop_
_atom_site_label
_atom_site_type_symbol
_atom_type_description
_atom_site_fract_x
_atom_site_fract_y
_atom_site_fract_z
_atom_type_partial_charge
O1    O     O_R   0.494320 0.415010 0.412140 -0.489951
O2    O     O_R   0.824010 0.404260 0.587250 -0.547028
O3    O     O_R   0.994320 0.584990 0.587860 -0.548110
C1    C     C_R   0.653055 0.376764 0.611025 0.696756
O4    O     O_R   0.824040 0.403870 0.412760 -0.516849
O5    O     O_R   0.994350 0.584590 0.412130 -0.556492
C2    C     C_R   0.651485 0.383063 0.382579 0.776830
O6    O     O_R   0.494300 0.415410 0.587870 -0.558919
O7    O     O_3   0.660800 0.559290 0.500000 -0.382856
V1    V     V_3+5 0.935650 0.489000 0.500000 1.504487
O8    O     O_R   0.324060 0.595740 0.412750 -0.517191
C3    C     C_R   0.156231 0.622407 0.388456 0.688621
O9    O     O_R   0.324040 0.596130 0.587240 -0.538840
C4    C     C_R   0.155659 0.620766 0.613233 0.723646
V2    V     V_3+5 0.435660 0.511000 0.500000 1.534224
O10   O     O_3   0.160640 0.440710 0.500000 -0.362070
C5    C     C_3   0.962389 0.712765 0.730622 -0.244769
C6    C     C_3   0.070493 0.704517 0.814054 0.431254
H1    H     H_    0.820979 0.683644 0.716879 0.167751
C7    C     C_3   0.117511 0.807620 0.813470 -0.190411
C8    C     C_3   0.009997 0.815795 0.729557 -0.248608
C9    C     C_3   0.190595 0.794600 0.681093 0.501587
C10   C     C_3   0.300090 0.788562 0.763753 -0.237944
C11   C     C_3   0.250221 0.685667 0.764671 -0.003701
C12   C     C_3   0.144110 0.692539 0.682056 -0.164305
H2    H     H_    0.909769 0.869022 0.712980 0.173846
H3    H     H_    0.441364 0.819182 0.775026 0.159814
C13   C     C_3   0.257495 0.843744 0.263259 -0.030035
H4    H     H_    0.388430 0.866598 0.232725 0.141692
C14   C     C_3   0.298625 0.764888 0.324947 -0.334562
H5    H     H_    0.303348 0.786425 0.391234 0.206959
H6    H     H_    0.439664 0.738246 0.313494 0.143792
H7    H     H_    0.331797 0.624164 0.225167 0.196591
C15   C     C_3   0.158806 0.716167 0.155764 -0.037392
C16   C     C_3   0.919610 0.795118 0.239728 -0.040100
C17   C     C_3   0.112438 0.812670 0.190982 -0.018617
H8    H     H_    0.871029 0.862214 0.260923 0.093957
C18   C     C_3   0.147931 0.690277 0.315947 0.009110
C19   C     C_3   0.187531 0.648083 0.227813 -0.323047
C20   C     C_3   0.954542 0.736821 0.318760 -0.269428
H9    H     H_    0.945693 0.778409 0.376084 0.150622
H10   H     H_    0.840198 0.688189 0.330953 0.171051
H11   H     H_    0.026477 0.690983 0.129243 0.187918
H12   H     H_    0.097470 0.588003 0.216068 0.157925
C21   C     C_3   0.518304 0.212418 0.657144 0.566144
C22   C     C_3   0.497292 0.155948 0.740343 -0.441135
H13   H     H_    0.515629 0.082812 0.727891 0.226030
H14   H     H_    0.352751 0.160330 0.765737 0.104186
H15   H     H_    0.411080 0.364267 0.751589 0.126000
H16   H     H_    0.440596 0.283053 0.869384 0.100126
C23   C     C_3   0.560064 0.347232 0.759945 -0.505401
C24   C     C_3   0.841441 0.269915 0.705023 -0.285890
C25   C     C_3   0.640655 0.302302 0.679720 -0.031140
H17   H     H_    0.928525 0.328452 0.726375 0.178171
H18   H     H_    0.919040 0.243834 0.651005 0.199591
C26   C     C_3   0.631923 0.187867 0.811796 -0.073696
C27   C     C_3   0.579392 0.286227 0.838335 0.310779
C28   C     C_3   0.832735 0.195826 0.774208 -0.280182
H19   H     H_    0.876450 0.129729 0.750104 0.181906
H20   H     H_    0.939229 0.212063 0.822780 0.192417
H21   H     H_    0.631802 0.413737 0.770305 0.208225
C29   C     C_3   0.455129 0.322687 0.248708 0.284152
H22   H     H_    0.499165 0.380019 0.208338 0.127193
C30   C     C_3   0.421383 0.239215 0.188039 0.622232
H23   H     H_    0.507892 0.194741 0.373433 0.245008
H24   H     H_    0.624950 0.081756 0.279812 0.187937
C31   C     C_3   0.637682 0.214998 0.340064 -0.311877
C32   C     C_3   0.792183 0.325768 0.248871 -0.354856
C33   C     C_3   0.628127 0.313649 0.309148 -0.200316
H25   H     H_    0.910386 0.295641 0.280765 0.315394
H26   H     H_    0.815580 0.399015 0.235847 0.198824
C34   C     C_3   0.618076 0.192458 0.180824 -0.172711
C35   C     C_3   0.677321 0.150149 0.266395 -0.355808
C36   C     C_3   0.761869 0.271736 0.165706 -0.305822
H27   H     H_    0.715038 0.319147 0.117260 0.254004
H28   H     H_    0.893164 0.249060 0.142291 0.318527
H29   H     H_    0.757335 0.209563 0.383113 0.231401
H30   H     H_    0.828582 0.138387 0.264458 0.210596
O11   O     O_R   0.771990 0.083520 0.910980 -0.538698
O12   O     O_R   0.442180 0.095020 0.086060 -0.472470
O13   O     O_R   0.271950 0.914280 0.086680 -0.534496
C37   C     C_R   0.612722 0.118550 0.112817 0.886574
O14   O     O_R   0.442270 0.094630 0.911580 -0.549834
O15   O     O_R   0.272040 0.913890 0.910940 -0.561264
C38   C     C_R   0.613963 0.118162 0.884090 0.755178
O16   O     O_R   0.771900 0.083910 0.086710 -0.516886
O17   O     O_3   0.605520 0.939610 0.998840 -0.413648
V3    V     V_3+5 0.330640 0.009880 0.998810 1.568422
O18   O     O_R   0.942330 0.902710 0.911540 -0.536349
C39   C     C_R   0.109879 0.878725 0.884214 0.695780
O19   O     O_R   0.942240 0.903100 0.086030 -0.556724
C40   C     C_R   0.108254 0.883529 0.117805 0.702716
V4    V     V_3+5 0.830640 0.987830 0.998780 1.517481
O20   O     O_3   0.105630 0.058150 0.998800 -0.340927
S1    S     S_3+6 0.975511 0.626002 0.888133 -0.022715
O21   O     O_2   0.122549 0.572897 0.931730 -0.308707
O22   O     O_2   0.861872 0.674795 0.951901 -0.374794
O23   O     O_3   0.839803 0.552381 0.834205 -0.481640
H31   H     H_    0.919261 0.531362 0.787788 0.328337
C41   C     C_3   0.267781 0.698886 0.073184 -0.365816
C42   C     C_3   0.440226 0.755332 0.051881 -0.724067
H32   H     H_    0.414446 0.796110 0.995727 0.235828
H33   H     H_    0.477202 0.801474 0.102350 0.240157
H34   H     H_    0.557832 0.711907 0.034612 0.248371
H35   H     H_    0.302766 0.626205 0.069638 0.255504
H36   H     H_    0.171437 0.710976 0.020241 0.235944
C43   C     C_3   0.752091 0.753988 0.188861 -0.365949
C44   C     C_3   0.701048 0.651224 0.194092 -0.674823
H37   H     H_    0.599139 0.631277 0.145545 0.242068
H38   H     H_    0.633660 0.632763 0.253780 0.195843
H39   H     H_    0.817620 0.605969 0.184254 0.228063
H40   H     H_    0.629422 0.788770 0.212187 0.161946
H41   H     H_    0.772511 0.771276 0.122784 0.213150
C45   C     C_3   0.313082 0.230903 0.625893 -0.463618
C46   C     C_3   0.280663 0.245786 0.532522 -0.410714
H42   H     H_    0.399217 0.282254 0.502900 0.223228
H43   H     H_    0.253850 0.181238 0.499099 0.242981
H44   H     H_    0.149377 0.282782 0.524248 0.223028
H45   H     H_    0.220070 0.172090 0.641554 0.190466
H46   H     H_    0.254690 0.288826 0.659850 0.140272
S2    S     S_3+6 0.638910 0.142122 0.579887 -0.048448
O24   O     O_2   0.504326 0.087618 0.527050 -0.309973
O25   O     O_2   0.753448 0.203158 0.524864 -0.417319
O26   O     O_3   0.783079 0.067909 0.623829 -0.520252
H47   H     H_    0.858361 0.044104 0.577206 0.378582
S3    S     S_3+6 0.747887 0.338727 0.910822 0.089542
O27   O     O_2   0.815871 0.269150 0.970333 -0.316730
O28   O     O_2   0.915870 0.378195 0.867036 -0.309164
O29   O     O_3   0.646549 0.421723 0.964908 -0.399261
H48   H     H_    0.524115 0.430309 0.937401 0.355738
S4    S     S_3+6 0.252743 0.372896 0.279958 -0.016274
O30   O     O_2   0.126851 0.370378 0.205749 -0.336189
O31   O     O_2   0.168167 0.333990 0.357757 -0.333344
O32   O     O_3   0.298139 0.479366 0.295812 -0.528648
H49   H     H_    0.167466 0.494627 0.305686 0.343547
S5    S     S_3+6 0.348215 0.282805 0.083370 0.072340
O33   O     O_2   0.349799 0.384251 0.079677 -0.286961
O34   O     O_2   0.480503 0.251970 0.018460 -0.390187
O35   O     O_3   0.137914 0.246011 0.050716 -0.418089
H50   H     H_    0.150744 0.237681 0.989691 0.385037
S6    S     S_3+6 0.250045 0.153870 0.227679 -0.024359
O36   O     O_2   0.086763 0.140314 0.171090 -0.330174
O37   O     O_2   0.339506 0.064307 0.227891 -0.415302
O38   O     O_3   0.174658 0.172513 0.324962 -0.510198
H51   H     H_    0.089071 0.121266 0.338461 0.329459
S7    S     S_3+6 0.264962 0.857747 0.593413 -0.022059
O39   O     O_2   0.445166 0.820921 0.561096 -0.328099
O40   O     O_2   0.116951 0.850862 0.526850 -0.383687
O41   O     O_3   0.298346 0.966128 0.622000 -0.459432
H52   H     H_    0.175737 0.985199 0.643738 0.319624
C47   C     C_3   0.390728 0.613806 0.786094 -0.369936
C48   C     C_3   0.489831 0.640800 0.866279 -0.494758
H53   H     H_    0.601274 0.691759 0.852274 0.236014
H54   H     H_    0.391772 0.672081 0.909598 0.216343
H55   H     H_    0.545459 0.581095 0.897886 0.290096
H56   H     H_    0.316700 0.547528 0.793236 0.203979
H57   H     H_    0.495256 0.607920 0.735365 0.188093
C49   C     C_3   0.191367 0.923822 0.318693 -0.350639
C50   C     C_3   0.352886 0.964849 0.371701 -0.465435
H58   H     H_    0.372414 0.926676 0.429887 0.281939
H59   H     H_    0.487773 0.963438 0.338010 0.186214
H60   H     H_    0.322720 0.034800 0.390468 0.252073
H61   H     H_    0.117333 0.973220 0.280408 0.215044
H62   H     H_    0.082680 0.903911 0.364045 0.196838

loop_
_geom_bond_atom_site_label_1
_geom_bond_atom_site_label_2
_ccdc_geom_bond_type
C14   H6    S    
O17   V3    S    
C30   S5    S    
C42   H32   S    
C1    C25   S    
C46   H43   S    
C43   H40   S    
S1    O21   D    
C31   H29   S    
C1    O6    A    
S4    O32   S    
H15   C23   S    
C45   C46   S    
S1    O23   S    
C21   C22   S    
C26   C27   S    
C41   H35   S    
S3    O27   D    
C36   H28   S    
C27   S3    S    
C6    C11   S    
C47   H57   S    
C13   H4    S    
C16   H8    S    
S7    O39   D    
S6    O37   D    
O5    C3    A    
C14   H5    S    
C30   S6    S    
C32   C36   S    
V2    O10   S    
C44   H37   S    
C14   C18   S    
C43   H41   S    
S2    O26   S    
C29   C30   S    
O9    C4    A    
O13   C40   A    
O8    V2    S    
C21   C45   S    
C9    S7    S    
C26   C28   S    
C32   C33   S    
H23   C31   S    
C9    C12   S    
C23   H21   S    
C15   C41   S    
C47   C48   S    
C50   H59   S    
O1    V2    S    
C10   H3    S    
O7    V1    S    
C6    C7    S    
C45   H45   S    
C24   H18   S    
C49   H62   S    
C17   C40   S    
C20   H10   S    
O14   V3    S    
C21   C25   S    
C42   H33   S    
C8    C9    S    
C3    C18   S    
C6    S1    S    
O15   C39   A    
S5    O35   S    
C11   C47   S    
C8    H2    S    
C24   H17   S    
S7    O40   D    
V3    O20   S    
C7    C10   S    
C36   H27   S    
C15   C19   S    
C11   C12   S    
C34   C36   S    
S6    O38   S    
O19   C40   A    
O4    C2    A    
C34   C35   S    
S3    O29   S    
C21   S2    S    
C28   H19   S    
C37   O16   A    
H24   C35   S    
C7    C39   S    
C5    C8    S    
C29   C33   S    
C23   C25   S    
C16   C17   S    
O2    C1    A    
C2    C33   S    
C29   H22   S    
O16   V4    S    
O19   V4    S    
S7    O41   S    
C50   H58   S    
C48   H55   S    
C35   H30   S    
C46   H44   S    
C13   C49   S    
C5    C6    S    
C50   H60   S    
V4    O20   S    
H7    C19   S    
C47   H56   S    
C7    C8    S    
S2    O24   D    
O32   H49   S    
O3    C4    A    
C24   C28   S    
C49   H61   S    
C23   C27   S    
C31   C35   S    
S5    O34   D    
C20   H9    S    
O14   C38   A    
C48   H54   S    
C42   H34   S    
O9    V2    S    
C49   C50   S    
C43   C44   S    
S4    O30   D    
O2    V1    S    
O11   C38   A    
C24   C25   S    
O29   H48   S    
C22   H13   S    
S3    O28   D    
O1    C2    A    
H16   C27   S    
C29   S4    S    
C15   H11   S    
O15   V3    S    
O38   H51   S    
S4    O31   D    
O5    V1    S    
O35   H50   S    
S1    O22   D    
O11   V4    S    
C19   H12   S    
O6    V2    S    
C41   H36   S    
C44   H39   S    
C5    C12   S    
C13   C14   S    
C16   C20   S    
O7    V2    S    
O4    V1    S    
O12   V3    S    
O3    V1    S    
V1    O10   S    
S6    O36   D    
C18   C20   S    
C26   C38   S    
C18   C19   S    
C32   H26   S    
O17   V4    S    
C41   C42   S    
C5    H1    S    
O12   C37   A    
C44   H38   S    
C15   C17   S    
C30   C34   S    
C4    C12   S    
O18   V4    S    
C45   H46   S    
S2    O25   D    
O13   V3    S    
C16   C43   S    
C10   C11   S    
C22   H14   S    
C48   H53   S    
C13   C17   S    
C32   H25   S    
O23   H31   S    
C22   C26   S    
C9    C10   S    
S5    O33   D    
C31   C33   S    
O18   C39   A    
O41   H52   S    
C28   H20   S    
C34   C37   S    
C46   H42   S    
O8    C3    A    
O26   H47   S    
