data_mof_unit_66273.cif
_audit_creation_date              2012-12-10T19:37:11-0500
_audit_creation_method            fapswitch 2.2
_symmetry_space_group_name_H-M    P1
_symmetry_Int_Tables_number       1
_space_group_crystal_system       triclinic
_cell_length_a                    14.34474
_cell_length_b                    15.909765
_cell_length_c                    17.021143
_cell_angle_alpha                 95.430345
_cell_angle_beta                  91.460859
_cell_angle_gamma                 92.379752
_cell_volume                      3862.12959605

loop_
_atom_site_label
_atom_site_type_symbol
_atom_type_description
_atom_site_fract_x
_atom_site_fract_y
_atom_site_fract_z
_atom_type_partial_charge
C1    C     C_R   0.499686 0.490339 0.348891 0.918622
C2    C     C_R   0.499955 0.509498 0.651026 0.921052
C3    C     C_R   0.596953 0.472910 0.145588 0.061346
C4    C     C_R   0.416772 0.471698 0.851870 0.077634
C5    C     C_R   0.585443 0.460934 0.225259 0.211733
C6    C     C_R   0.415748 0.484632 0.771852 0.207592
C7    C     C_R   0.450598 0.751108 0.461924 0.235668
C8    C     C_R   0.548554 0.249185 0.539024 0.244479
C9    C     C_R   0.448614 0.840932 0.466174 -0.048939
C10   C     C_R   0.550065 0.159392 0.535419 -0.046947
C11   C     C_R   0.510456 0.891119 0.519222 0.265900
C12   C     C_R   0.488920 0.109068 0.481776 0.266478
C13   C     C_R   0.570791 0.849705 0.567185 0.099862
C14   C     C_R   0.429556 0.150350 0.432815 0.100449
C15   C     C_R   0.570732 0.760509 0.561349 0.352322
C16   C     C_R   0.429876 0.239518 0.438165 0.357076
C17   C     C_R   0.331048 0.500024 0.499594 0.847683
C18   C     C_R   0.668947 0.499973 0.500256 0.841365
C19   C     C_1   0.228740 0.500109 0.499506 -0.101362
C20   C     C_1   0.771245 0.499884 0.500235 -0.108224
C21   C     C_1   0.143339 0.500082 0.499581 0.049199
C22   C     C_1   0.856643 0.499882 0.500125 0.045461
C23   C     C_1   0.042696 0.500005 0.499760 0.053634
C24   C     C_1   0.957285 0.499937 0.499934 0.052913
C25   C     C_R   0.504505 0.488065 0.263199 -0.163082
C26   C     C_R   0.498088 0.510889 0.736725 -0.168933
C27   C     C_R   0.433394 0.524031 0.220905 0.028530
C28   C     C_R   0.581929 0.523912 0.781339 0.025173
C29   C     C_R   0.445297 0.536678 0.141227 0.214545
C30   C     C_R   0.583481 0.511373 0.862145 0.229924
C31   C     C_R   0.527243 0.511624 0.103809 0.211818
C32   C     C_R   0.499810 0.486237 0.897927 0.207143
Cu1   Cu    Cu3+1 0.495850 0.415220 0.496180 1.050711
Cu2   Cu    Cu3+1 0.504150 0.584780 0.503820 1.036214
N1    N     N_2   0.539734 0.526219 0.024188 -0.134877
N2    N     N_2   0.495848 0.471684 0.978777 -0.200849
N3    N     N_R   0.510380 0.712130 0.509560 -0.211614
N4    N     N_R   0.489620 0.287870 0.490440 -0.207688
N5    N     N_2   0.511218 0.982100 0.530238 -0.106717
N6    N     N_2   0.488106 0.018072 0.470951 -0.106559
O1    O     O_R   0.496120 0.420530 0.382500 -0.529208
O2    O     O_R   0.503880 0.579470 0.617500 -0.532415
O3    O     O_R   0.503120 0.563720 0.388950 -0.554638
O4    O     O_R   0.496880 0.436280 0.611050 -0.554920
O5    O     O_R   0.372550 0.428390 0.496770 -0.526657
O6    O     O_R   0.627450 0.571610 0.503230 -0.535754
O7    O     O_R   0.379550 0.571580 0.503220 -0.551307
O8    O     O_R   0.620450 0.428420 0.496780 -0.540143
N7    N     N_3   0.666147 0.545542 0.742727 -0.535729
H1    H     H_    0.712898 0.497489 0.747588 0.254724
H2    H     H_    0.695636 0.601699 0.771534 0.299595
N8    N     N_3   0.349316 0.547295 0.259663 -0.555745
H3    H     H_    0.339583 0.611243 0.254460 0.256412
H4    H     H_    0.293337 0.512332 0.230371 0.271267
Br1   Br    Br    0.702228 0.520722 0.918779 -0.474772
Br2   Br    Br    0.351762 0.592127 0.084416 -0.459230
N9    N     N_3   0.680663 0.446944 0.108082 -0.472668
H5    H     H_    0.715166 0.500449 0.089652 0.280147
H6    H     H_    0.662276 0.405227 0.058405 0.270856
N10   N     N_3   0.332355 0.442894 0.886072 -0.477187
H7    H     H_    0.344645 0.386275 0.910349 0.248803
H8    H     H_    0.315199 0.487826 0.931545 0.285590
Br3   Br    Br    0.684127 0.412447 0.282620 -0.428953
Br4   Br    Br    0.300754 0.464194 0.710621 -0.439717
N11   N     N_3   0.609677 0.300580 0.593394 -0.506842
H9    H     H_    0.595748 0.286265 0.650720 0.210780
H10   H     H_    0.678707 0.286869 0.581097 0.209484
N12   N     N_3   0.389533 0.700073 0.407408 -0.499762
H11   H     H_    0.402866 0.716190 0.350563 0.208842
H12   H     H_    0.320489 0.713041 0.420374 0.207705
N13   N     N_3   0.615583 0.119923 0.583589 -0.495131
H13   H     H_    0.604030 0.138677 0.642917 0.246515
H14   H     H_    0.683183 0.139863 0.570251 0.241723
N14   N     N_3   0.381963 0.880585 0.419219 -0.495360
H15   H     H_    0.392704 0.862678 0.359595 0.249765
H16   H     H_    0.314764 0.860052 0.433100 0.239361
Br5   Br    Br    0.654173 0.917131 0.641047 -0.346956
Br6   Br    Br    0.347197 0.082828 0.358207 -0.342170
Br7   Br    Br    0.658165 0.709534 0.627798 -0.374912
Br8   Br    Br    0.343931 0.290705 0.370268 -0.360127

loop_
_geom_bond_atom_site_label_1
_geom_bond_atom_site_label_2
_ccdc_geom_bond_type
C27   C29   A    
Cu2   N3    S    
Cu1   O5    S    
N1    N2    D    
Cu2   O2    S    
N8    H3    S    
N14   H16   S    
C32   N2    S    
C19   C21   T    
C17   O5    A    
N9    H6    S    
C5    Br3   S    
N10   H8    S    
C6    Br4   S    
C15   N3    A    
C7    N12   S    
C1    O3    A    
C15   Br7   S    
C2    O4    A    
N12   H11   S    
N11   H10   S    
C23   C24   T    
Cu2   O6    S    
C18   C20   S    
C10   N13   S    
C8    N11   S    
C1    C25   S    
C8    N4    A    
C18   O6    A    
N8    H4    S    
C21   C23   S    
C13   Br5   S    
N14   H15   S    
C4    C6    A    
N5    N6    D    
N13   H14   S    
N7    H2    S    
N10   H7    S    
C16   Br8   S    
C12   N6    S    
C11   N5    S    
C28   N7    S    
C4    N10   S    
Cu1   Cu2   S    
C7    N3    A    
C2    C26   S    
C3    C31   A    
C9    C11   A    
C4    C32   A    
C10   C12   A    
C5    C25   A    
C3    N9    S    
C8    C10   A    
C12   C14   A    
N7    H1    S    
C13   C15   A    
C22   C24   S    
C9    N14   S    
C27   N8    S    
C1    O1    A    
C7    C9    A    
Cu1   O4    S    
Cu2   O3    S    
C17   O7    A    
C20   C22   T    
C3    C5    A    
C18   O8    A    
C29   Br2   S    
C25   C27   A    
C30   Br1   S    
C26   C28   A    
Cu1   N4    S    
Cu1   O1    S    
C28   C30   A    
N13   H13   S    
C29   C31   A    
C30   C32   A    
C11   C13   A    
N9    H5    S    
C6    C26   A    
C2    O2    A    
C31   N1    S    
C17   C19   S    
C14   C16   A    
C14   Br6   S    
N12   H12   S    
N11   H9    S    
Cu1   O8    S    
Cu2   O7    S    
C16   N4    A    
