data_mof_unit_24045.cif
_audit_creation_date              2012-12-10T19:48:00-0500
_audit_creation_method            fapswitch 2.2
_symmetry_space_group_name_H-M    P1
_symmetry_Int_Tables_number       1
_space_group_crystal_system       triclinic
_cell_length_a                    14.923017
_cell_length_b                    14.283735
_cell_length_c                    10.623255
_cell_angle_alpha                 90.79355
_cell_angle_beta                  90.435111
_cell_angle_gamma                 89.835532
_cell_volume                      2264.12387797

loop_
_atom_site_label
_atom_site_type_symbol
_atom_type_description
_atom_site_fract_x
_atom_site_fract_y
_atom_site_fract_z
_atom_type_partial_charge
C1    C     C_R   0.327937 0.500116 0.500923 0.883051
C2    C     C_R   0.672065 0.499904 0.501650 0.881510
C3    C     C_R   0.048496 0.503267 0.536755 0.035143
C4    C     C_R   0.951875 0.499190 0.534744 0.024757
C5    C     C_R   0.450988 0.105528 0.408071 0.178493
C6    C     C_R   0.565613 0.892686 0.577209 0.306343
C7    C     C_R   0.580585 0.109656 0.542208 0.319408
C8    C     C_R   0.426824 0.894557 0.461173 0.167327
C9    C     C_R   0.445365 0.204613 0.418358 0.505805
C10   C     C_R   0.561150 0.792935 0.574720 0.401530
C11   C     C_R   0.566891 0.207357 0.562346 0.371621
C12   C     C_R   0.432988 0.796484 0.443339 0.507725
C13   C     C_R   0.510568 0.054393 0.488210 -0.088413
C14   C     C_R   0.502501 0.946639 0.506792 -0.104970
C15   C     C_R   0.500084 0.499446 0.261022 0.859028
C16   C     C_R   0.499941 0.500573 0.739001 0.857891
C17   C     C_R   0.335111 0.519210 0.129761 -0.181131
C18   C     C_R   0.665074 0.482510 0.870408 -0.177995
C19   C     C_R   0.335351 0.523107 0.868213 -0.159688
C20   C     C_R   0.664747 0.477322 0.131897 -0.156776
C21   C     C_R   0.254774 0.530242 0.063843 -0.137793
C22   C     C_R   0.745454 0.471728 0.936279 -0.141348
C23   C     C_R   0.254885 0.532168 0.933062 -0.106564
C24   C     C_R   0.745273 0.468941 0.067019 -0.124663
C25   C     C_R   0.417689 0.511844 0.933872 0.063446
C26   C     C_R   0.582383 0.488519 0.066223 0.065846
C27   C     C_R   0.417582 0.510012 0.065145 0.052916
C28   C     C_R   0.582517 0.490716 0.934966 0.052164
C29   C     C_R   0.500118 0.501801 0.871419 -0.197682
C30   C     C_R   0.499926 0.498374 0.128647 -0.197563
C31   C     C_R   0.089848 0.571588 0.463119 0.492388
C32   C     C_R   0.909950 0.428194 0.463242 0.413724
C33   C     C_R   0.902809 0.569390 0.597039 0.449139
C34   C     C_R   0.099142 0.434703 0.600749 0.443217
C35   C     C_R   0.182662 0.570326 0.452239 -0.322362
C36   C     C_R   0.816920 0.428475 0.453540 -0.309133
C37   C     C_R   0.809962 0.569527 0.584314 -0.318997
C38   C     C_R   0.191019 0.433338 0.585233 -0.187273
C39   C     C_R   0.232259 0.500609 0.511434 -0.173404
C40   C     C_R   0.767868 0.499713 0.512201 -0.113394
H1    H     H_    0.807636 0.460488 0.118413 0.154728
H2    H     H_    0.192537 0.540616 0.881625 0.160270
H3    H     H_    0.807944 0.465521 0.885670 0.152355
H4    H     H_    0.192355 0.537247 0.114447 0.156309
H5    H     H_    0.331842 0.517741 0.231329 0.143036
H6    H     H_    0.668330 0.484431 0.768910 0.147247
H7    H     H_    0.332336 0.525080 0.766664 0.124399
H8    H     H_    0.667781 0.475082 0.233485 0.122858
H9    H     H_    0.215953 0.621933 0.395325 0.194534
H10   H     H_    0.782974 0.374762 0.398250 0.161980
H11   H     H_    0.770569 0.623060 0.631663 0.197987
H12   H     H_    0.230560 0.380824 0.633365 0.189346
N1    N     N_R   0.500000 0.252470 0.500000 -0.208083
N2    N     N_R   0.500000 0.747530 0.500000 -0.208469
O1    O     O_R   0.369060 0.579480 0.500010 -0.569526
O2    O     O_R   0.630940 0.420520 0.499990 -0.572026
O3    O     O_R   0.630940 0.579480 0.499990 -0.570470
O4    O     O_R   0.369060 0.420520 0.500010 -0.577918
O5    O     O_R   0.499990 0.579480 0.316780 -0.609152
O6    O     O_R   0.500010 0.420520 0.683220 -0.595295
O7    O     O_R   0.500010 0.579480 0.683220 -0.605562
O8    O     O_R   0.499990 0.420520 0.316780 -0.614453
Zn1   Zn    Zn3+2 0.500000 0.606140 0.500000 1.012551
Zn2   Zn    Zn3+2 0.500000 0.393860 0.500000 1.011287
O9    O     O_3   0.037954 0.636696 0.400483 -0.730252
H13   H     H_    0.077611 0.678794 0.352765 0.341613
O10   O     O_3   0.961381 0.361146 0.402339 -0.735137
H14   H     H_    0.921286 0.317097 0.356158 0.342977
O11   O     O_3   0.947163 0.636758 0.668129 -0.741159
H15   H     H_    0.902552 0.680525 0.705183 0.343528
O12   O     O_3   0.062078 0.367812 0.677259 -0.729971
H16   H     H_    0.998539 0.383218 0.693745 0.332169
O13   O     O_3   0.404519 0.062997 0.310619 -0.706878
H17   H     H_    0.441797 0.010558 0.278155 0.343588
O14   O     O_3   0.623143 0.936135 0.660980 -0.699433
H18   H     H_    0.678120 0.897454 0.668850 0.371063
O15   O     O_3   0.666216 0.073060 0.549316 -0.687150
H19   H     H_    0.709793 0.122912 0.571479 0.366873
O16   O     O_3   0.342812 0.933799 0.448061 -0.661223
H20   H     H_    0.338722 0.987817 0.507365 0.368153
O17   O     O_3   0.383136 0.254467 0.348583 -0.544773
C41   C     C_3   0.406105 0.252681 0.219654 -0.121147
H21   H     H_    0.479833 0.250545 0.203105 0.114731
H22   H     H_    0.379946 0.317381 0.175953 0.166772
H23   H     H_    0.372849 0.193260 0.170117 0.200557
O18   O     O_3   0.618342 0.740204 0.648644 -0.587453
C42   C     C_3   0.590337 0.745401 0.775579 -0.243485
H24   H     H_    0.516077 0.742576 0.785785 0.163130
H25   H     H_    0.616397 0.809202 0.823644 0.171556
H26   H     H_    0.618988 0.684741 0.826145 0.186021
O19   O     O_3   0.627899 0.260091 0.631125 -0.570548
C43   C     C_3   0.619087 0.238520 0.759613 -0.269966
H27   H     H_    0.550094 0.253757 0.793647 0.166310
H28   H     H_    0.666023 0.283157 0.814982 0.195195
H29   H     H_    0.637231 0.164387 0.778330 0.180953
O20   O     O_3   0.363472 0.747915 0.386518 -0.545686
C44   C     C_3   0.366599 0.762421 0.255615 -0.232290
H30   H     H_    0.432182 0.740093 0.215692 0.145581
H31   H     H_    0.352535 0.836701 0.232195 0.197482
H32   H     H_    0.313820 0.719155 0.209602 0.177042

loop_
_geom_bond_atom_site_label_1
_geom_bond_atom_site_label_2
_ccdc_geom_bond_type
C42   H24   S    
O13   H17   S    
C19   C23   A    
C44   H30   S    
C2    O3    A    
C6    O14   S    
O15   H19   S    
C7    C11   A    
C23   H2    S    
C32   C36   A    
C28   C29   A    
C17   H5    S    
C37   C40   A    
C38   C39   A    
C37   H11   S    
N1    Zn2   S    
C19   H7    S    
C38   H12   S    
N2    Zn1   S    
C16   O6    A    
O7    Zn1   S    
O8    Zn2   S    
C20   C24   A    
O1    Zn1   S    
C35   H9    S    
C8    O16   S    
O2    Zn2   S    
C5    C13   A    
C11   N1    A    
C33   O11   S    
C7    O15   S    
C34   C38   A    
C13   C14   S    
C27   C30   A    
C25   C29   A    
C24   H1    S    
C19   C25   A    
C18   H6    S    
C44   H31   S    
O3    Zn1   S    
O4    Zn2   S    
O10   H14   S    
C17   C27   A    
C36   C40   A    
C18   C28   A    
O19   C43   S    
O18   C42   S    
C3    C34   A    
C16   C29   S    
C41   H21   S    
C43   H29   S    
O17   C41   S    
C35   C39   A    
O14   H18   S    
C5    C9    A    
C2    C40   S    
C6    C14   A    
C21   H4    S    
C22   H3    S    
C8    C12   A    
O20   C44   S    
C43   H28   S    
C4    C32   A    
C3    C31   A    
C20   H8    S    
C32   O10   S    
C26   C30   A    
C41   H22   S    
C42   H25   S    
C22   C24   A    
O5    Zn1   S    
C9    N1    A    
C16   O7    A    
C3    C4    S    
C44   H32   S    
C36   H10   S    
C15   C30   S    
C33   C37   A    
C31   O9    S    
C4    C33   A    
C10   O18   S    
C8    C14   A    
C18   C22   A    
C15   O5    A    
C6    C10   A    
C25   C27   A    
C41   H23   S    
C26   C28   A    
O6    Zn2   S    
C21   C23   A    
C1    O1    A    
O12   H16   S    
C2    O2    A    
C1    O4    A    
C20   C26   A    
C43   H27   S    
C15   O8    A    
C31   C35   A    
C5    O13   S    
O11   H15   S    
C10   N2    A    
C17   C21   A    
C1    C39   S    
O16   H20   S    
C11   O19   S    
C7    C13   A    
O9    H13   S    
C42   H26   S    
C12   O20   S    
C34   O12   S    
C12   N2    A    
C9    O17   S    
