data_mof_unit_45469.cif
_audit_creation_date              2012-12-11T14:13:21-0500
_audit_creation_method            fapswitch 2.2
_symmetry_space_group_name_H-M    P1
_symmetry_Int_Tables_number       1
_space_group_crystal_system       triclinic
_cell_length_a                    17.45137
_cell_length_b                    17.405467
_cell_length_c                    17.453398
_cell_angle_alpha                 90.199305
_cell_angle_beta                  90.017019
_cell_angle_gamma                 90.018055
_cell_volume                      5301.42388587

loop_
_atom_site_label
_atom_site_type_symbol
_atom_type_description
_atom_site_fract_x
_atom_site_fract_y
_atom_site_fract_z
_atom_type_partial_charge
C1    C     C_R   0.588092 0.320207 0.133360 0.154029
C2    C     C_R   0.179070 0.089521 0.633944 0.140497
C3    C     C_3   0.365743 0.178159 0.950779 -0.218241
C4    C     C_3   0.402110 0.106079 0.984531 -0.970257
C5    C     C_3   0.228007 0.581090 0.899619 -0.479825
C6    C     C_3   0.186020 0.646315 0.941976 -0.220446
C7    C     C_3   0.110200 0.618758 0.975756 -0.969251
C8    C     C_3   0.077257 0.733065 0.620159 -0.493795
C9    C     C_3   0.150902 0.692695 0.593676 -0.223376
C10   C     C_3   0.137202 0.607222 0.579474 -0.932581
C11   C     C_3   0.264757 0.079458 0.627309 -0.490812
C12   C     C_3   0.303635 0.154413 0.602402 -0.212859
C13   C     C_R   0.895553 0.194536 0.606891 0.135184
C14   C     C_3   0.390159 0.144016 0.594830 -0.942498
C15   C     C_3   0.925440 0.274534 0.591149 -0.475272
C16   C     C_3   0.868306 0.323458 0.545267 -0.217196
C17   C     C_3   0.906904 0.393577 0.509972 -0.976652
C18   C     C_3   0.728340 0.918913 0.603700 -0.489025
C19   C     C_3   0.687059 0.852057 0.563251 -0.235661
C20   C     C_3   0.608278 0.876332 0.534039 -0.946260
C21   C     C_3   0.071466 0.264365 0.371804 -0.490241
C22   C     C_3   0.144887 0.311267 0.385014 -0.230417
C23   C     C_3   0.127021 0.396602 0.394582 -0.933098
C24   C     C_R   0.810984 0.899961 0.619139 0.158757
C25   C     C_3   0.265542 0.919674 0.375412 -0.490240
C26   C     C_3   0.303362 0.845806 0.404654 -0.215311
C27   C     C_3   0.389758 0.856114 0.413724 -0.937287
C28   C     C_3   0.923724 0.725800 0.409078 -0.476534
C29   C     C_3   0.867309 0.682095 0.460640 -0.222974
C30   C     C_3   0.901640 0.606679 0.488732 -0.953408
C31   C     C_3   0.726275 0.075624 0.408978 -0.481453
C32   C     C_3   0.676796 0.136933 0.449107 -0.219505
C33   C     C_3   0.605901 0.101543 0.486179 -0.974451
C34   C     C_R   0.087838 0.179563 0.366364 0.153649
C35   C     C_R   0.179997 0.909471 0.367257 0.137470
C36   C     C_R   0.896125 0.806093 0.391631 0.134268
C37   C     C_R   0.806360 0.103184 0.391007 0.152180
C38   C     C_R   0.579296 0.669636 0.142315 -0.207015
C39   C     C_R   0.311675 0.596339 0.120953 -0.183509
C40   C     C_R   0.398635 0.308531 0.113778 -0.185408
C41   C     C_R   0.679297 0.589726 0.133598 0.139363
C42   C     C_R   0.673284 0.415581 0.139183 -0.184492
C43   C     C_R   0.578579 0.331250 0.857008 -0.185956
C44   C     C_R   0.309662 0.400470 0.883310 -0.180006
C45   C     C_R   0.407150 0.685336 0.874255 -0.193870
C46   C     C_R   0.695327 0.605386 0.897828 -0.177676
C47   C     C_R   0.079396 0.169888 0.642078 -0.184329
C48   C     C_R   0.808168 0.101441 0.613299 -0.177016
C49   C     C_R   0.906355 0.815087 0.625957 -0.202110
C50   C     C_R   0.174788 0.913858 0.637652 -0.184359
C51   C     C_R   0.080305 0.829055 0.358663 -0.184155
C52   C     C_R   0.396960 0.691573 0.113833 0.133225
C53   C     C_R   0.809139 0.899667 0.384519 -0.184574
C54   C     C_R   0.898829 0.191257 0.385831 -0.184703
C55   C     C_R   0.172758 0.084081 0.360372 -0.184954
C56   C     C_R   0.644275 0.353372 0.178421 0.106182
C57   C     C_R   0.643459 0.643358 0.180259 0.110343
C58   C     C_R   0.328027 0.669169 0.145726 0.103795
C59   C     C_R   0.325182 0.324912 0.136081 0.097365
C60   C     C_R   0.682406 0.681484 0.883333 0.099672
C61   C     C_R   0.641022 0.359245 0.817185 0.106903
C62   C     C_R   0.325486 0.326358 0.861306 0.102585
C63   C     C_R   0.306266 0.396519 0.108667 0.151699
C64   C     C_R   0.335216 0.667976 0.847798 0.100859
C65   C     C_R   0.146887 0.850303 0.675506 0.108649
C66   C     C_R   0.143222 0.143337 0.680393 0.109261
C67   C     C_R   0.823248 0.176372 0.633307 0.102583
C68   C     C_R   0.836715 0.834686 0.656216 0.097545
C69   C     C_R   0.143696 0.146213 0.321086 0.105779
C70   C     C_R   0.144795 0.855026 0.321020 0.109578
C71   C     C_R   0.824874 0.825273 0.363391 0.101806
C72   C     C_R   0.825353 0.174782 0.363493 0.096997
C73   C     C_2   0.806605 0.714376 0.831207 -0.112083
C74   C     C_R   0.607689 0.697062 0.903112 0.148011
C75   C     C_2   0.287580 0.794956 0.822506 -0.155608
C76   C     C_2   0.197320 0.280723 0.832738 -0.143006
C77   C     C_2   0.643764 0.266598 0.712643 -0.101893
C78   C     C_2   0.732825 0.352667 0.285641 -0.100649
C79   C     C_2   0.277557 0.196897 0.164615 -0.145073
C80   C     C_2   0.200087 0.715936 0.171273 -0.150014
C81   C     C_2   0.646119 0.734230 0.285930 -0.103951
C82   C     C_2   0.232174 0.147008 0.213670 -0.100128
C83   C     C_2   0.778211 0.302767 0.334573 -0.145229
C84   C     C_2   0.696868 0.778767 0.335221 -0.141636
C85   C     C_R   0.676902 0.413391 0.863583 0.152643
C86   C     C_2   0.148263 0.762330 0.217265 -0.102509
C87   C     C_2   0.239258 0.846356 0.778763 -0.102939
C88   C     C_2   0.842928 0.757774 0.770439 -0.110217
C89   C     C_2   0.694198 0.221229 0.663418 -0.138492
C90   C     C_2   0.146189 0.235349 0.784788 -0.103751
C91   C     C_2   0.738495 0.736895 0.857446 -0.224265
C92   C     C_2   0.288247 0.719840 0.805626 -0.198602
C93   C     C_2   0.273289 0.275313 0.823162 -0.210731
C94   C     C_2   0.667287 0.333559 0.742424 -0.204250
C95   C     C_2   0.669039 0.325995 0.252489 -0.202279
C96   C     C_R   0.396347 0.306550 0.890307 0.134645
C97   C     C_2   0.273733 0.273195 0.173823 -0.206675
C98   C     C_2   0.275515 0.718358 0.185494 -0.206510
C99   C     C_2   0.671027 0.668884 0.254172 -0.197536
C100  C     C_2   0.168496 0.173708 0.247010 -0.202503
C101  C     C_2   0.774084 0.226459 0.325573 -0.206115
C102  C     C_2   0.772868 0.773696 0.325727 -0.210602
C103  C     C_2   0.173542 0.827876 0.248233 -0.201207
C104  C     C_2   0.175630 0.818923 0.746170 -0.205187
C105  C     C_2   0.800076 0.794052 0.717752 -0.200944
C106  C     C_2   0.770369 0.229433 0.668386 -0.211630
C107  C     C_R   0.310329 0.601170 0.882899 0.148652
C108  C     C_2   0.170726 0.169363 0.754150 -0.200120
C109  C     C_3   0.570830 0.235514 0.128173 -0.489537
C110  C     C_3   0.643697 0.187680 0.115495 -0.228672
C111  C     C_3   0.624803 0.102452 0.106720 -0.938149
C112  C     C_3   0.764966 0.581210 0.125353 -0.491423
C113  C     C_3   0.801307 0.656346 0.097323 -0.219858
C114  C     C_3   0.887219 0.646836 0.084045 -0.935171
C115  C     C_3   0.418546 0.773624 0.096892 -0.485438
C116  C     C_3   0.358357 0.812009 0.045098 -0.210605
C117  C     C_3   0.385651 0.889154 0.014230 -0.984318
C118  C     C_R   0.089932 0.818146 0.630857 0.145935
C119  C     C_3   0.226060 0.423487 0.090371 -0.483881
C120  C     C_3   0.178143 0.362432 0.047964 -0.218529
C121  C     C_3   0.107009 0.397460 0.011020 -0.974751
C122  C     C_3   0.579284 0.775659 0.927194 -0.486044
C123  C     C_3   0.629310 0.812040 0.990725 -0.238479
C124  C     C_3   0.601076 0.891767 0.013957 -0.943976
C125  C     C_3   0.761276 0.431679 0.864401 -0.480750
C126  C     C_3   0.810626 0.358971 0.871338 -0.230669
C127  C     C_3   0.895894 0.378670 0.871244 -0.946173
C128  C     C_3   0.424416 0.225910 0.905680 -0.475262
H1    H     H_    0.540070 0.712849 0.161985 0.117084
H2    H     H_    0.753646 0.073451 0.618201 0.109642
H3    H     H_    0.079604 0.668022 0.002341 0.257098
H4    H     H_    0.222499 0.668875 0.989228 0.198122
H5    H     H_    0.173534 0.694083 0.901977 0.207849
H6    H     H_    0.197790 0.566523 0.845447 0.181650
H7    H     H_    0.227252 0.530850 0.937791 0.195847
H8    H     H_    0.115904 0.579192 0.632448 0.260915
H9    H     H_    0.094790 0.598915 0.532721 0.263452
H10   H     H_    0.191794 0.579353 0.562234 0.252407
H11   H     H_    0.171634 0.719395 0.539687 0.196560
H12   H     H_    0.196417 0.699009 0.637605 0.194837
H13   H     H_    0.935376 0.761942 0.635753 0.119166
H14   H     H_    0.056307 0.707461 0.674503 0.182045
H15   H     H_    0.034299 0.723951 0.574164 0.198214
H16   H     H_    0.415331 0.127016 0.650730 0.258921
H17   H     H_    0.403438 0.099300 0.551236 0.266368
H18   H     H_    0.416707 0.198985 0.576617 0.251013
H19   H     H_    0.280003 0.172886 0.546206 0.196552
H20   H     H_    0.292332 0.200571 0.645022 0.197121
H21   H     H_    0.288486 0.060477 0.683231 0.179830
H22   H     H_    0.277502 0.035316 0.582904 0.196080
H23   H     H_    0.934573 0.429086 0.555187 0.277301
H24   H     H_    0.224961 0.945132 0.652848 0.110634
H25   H     H_    0.950566 0.375554 0.467416 0.260845
H26   H     H_    0.863273 0.429001 0.480183 0.255515
H27   H     H_    0.841843 0.288440 0.499144 0.199825
H28   H     H_    0.821756 0.344278 0.583293 0.200322
H29   H     H_    0.938240 0.303777 0.646388 0.176097
H30   H     H_    0.979500 0.269641 0.557869 0.201907
H31   H     H_    0.572705 0.898647 0.581956 0.269125
H32   H     H_    0.614244 0.921411 0.489556 0.262551
H33   H     H_    0.578777 0.826075 0.508022 0.254126
H34   H     H_    0.721767 0.831787 0.513743 0.200392
H35   H     H_    0.041204 0.785623 0.339157 0.111078
H36   H     H_    0.679584 0.803133 0.603107 0.194580
H37   H     H_    0.698914 0.934074 0.658121 0.185824
H38   H     H_    0.726085 0.968121 0.564249 0.195414
H39   H     H_    0.097206 0.418762 0.342940 0.260819
H40   H     H_    0.090399 0.406130 0.445766 0.265255
H41   H     H_    0.181224 0.429138 0.402373 0.252849
H42   H     H_    0.174361 0.290504 0.437535 0.198255
H43   H     H_    0.184675 0.304351 0.336075 0.195848
H44   H     H_    0.041595 0.283901 0.319127 0.188676
H45   H     H_    0.035273 0.274666 0.422927 0.195176
H46   H     H_    0.754899 0.928031 0.378163 0.111593
H47   H     H_    0.416275 0.870342 0.357675 0.257779
H48   H     H_    0.402355 0.902759 0.455488 0.265448
H49   H     H_    0.415522 0.801943 0.435099 0.251100
H50   H     H_    0.278376 0.830097 0.461106 0.195598
H51   H     H_    0.292629 0.797789 0.363954 0.195658
H52   H     H_    0.290644 0.936093 0.319289 0.179730
H53   H     H_    0.277474 0.965867 0.417946 0.195882
H54   H     H_    0.918190 0.569834 0.439346 0.269788
H55   H     H_    0.952774 0.617897 0.524859 0.262935
H56   H     H_    0.858659 0.575543 0.523779 0.256376
H57   H     H_    0.924450 0.247004 0.383284 0.115719
H58   H     H_    0.851728 0.717925 0.511028 0.201864
H59   H     H_    0.814025 0.668642 0.428574 0.203644
H60   H     H_    0.932106 0.693795 0.354521 0.177749
H61   H     H_    0.979598 0.729416 0.439373 0.199752
H62   H     H_    0.571777 0.069470 0.442879 0.271148
H63   H     H_    0.622809 0.062040 0.533011 0.261504
H64   H     H_    0.569595 0.147739 0.510975 0.259184
H65   H     H_    0.710847 0.166949 0.493904 0.203173
H66   H     H_    0.656930 0.180142 0.406989 0.203634
H67   H     H_    0.697786 0.056291 0.355344 0.180968
H68   H     H_    0.221432 0.051294 0.343642 0.111267
H69   H     H_    0.731046 0.026578 0.448669 0.198440
H70   H     H_    0.830968 0.658773 0.844669 0.124243
H71   H     H_    0.326545 0.819500 0.864406 0.140976
H72   H     H_    0.172322 0.324862 0.868860 0.139521
H73   H     H_    0.258350 0.566728 0.129029 0.112809
H74   H     H_    0.593285 0.237392 0.733975 0.119138
H75   H     H_    0.759578 0.405907 0.267943 0.117071
H76   H     H_    0.320648 0.170660 0.128267 0.136307
H77   H     H_    0.175800 0.674652 0.131344 0.140096
H78   H     H_    0.594303 0.762523 0.266642 0.120815
H79   H     H_    0.258837 0.093693 0.231239 0.117572
H80   H     H_    0.821538 0.329031 0.370617 0.136430
H81   H     H_    0.671763 0.822295 0.372136 0.136820
H82   H     H_    0.095090 0.735579 0.234988 0.120832
H83   H     H_    0.262561 0.902351 0.765026 0.119592
H84   H     H_    0.423968 0.252655 0.115886 0.115137
H85   H     H_    0.904901 0.754691 0.765800 0.124614
H86   H     H_    0.669006 0.173987 0.631555 0.137422
H87   H     H_    0.094362 0.263480 0.765312 0.120471
H88   H     H_    0.718141 0.794689 0.845978 0.145985
H89   H     H_    0.251517 0.694207 0.762500 0.135325
H90   H     H_    0.299467 0.233617 0.785049 0.137679
H91   H     H_    0.714521 0.365078 0.717075 0.135375
H92   H     H_    0.638869 0.276708 0.275645 0.133806
H93   H     H_    0.232978 0.300593 0.211759 0.133806
H94   H     H_    0.300775 0.757519 0.226837 0.138196
H95   H     H_    0.722300 0.448207 0.155479 0.110528
H96   H     H_    0.719784 0.638372 0.277866 0.131408
H97   H     H_    0.138431 0.223115 0.223998 0.134260
H98   H     H_    0.733225 0.199050 0.287727 0.133381
H99   H     H_    0.799279 0.732531 0.287187 0.138047
H100  H     H_    0.223960 0.856444 0.225509 0.134158
H101  H     H_    0.149338 0.766159 0.766373 0.134043
H102  H     H_    0.738127 0.796382 0.721364 0.135318
H103  H     H_    0.796802 0.274773 0.701530 0.133363
H104  H     H_    0.219557 0.139175 0.778115 0.131275
H105  H     H_    0.595070 0.081025 0.158707 0.262342
H106  H     H_    0.539230 0.288254 0.837353 0.112221
H107  H     H_    0.587728 0.092867 0.055839 0.266797
H108  H     H_    0.678586 0.069272 0.098906 0.251914
H109  H     H_    0.673412 0.207615 0.062806 0.199619
H110  H     H_    0.683558 0.194604 0.164384 0.195475
H111  H     H_    0.540556 0.216547 0.180819 0.189234
H112  H     H_    0.534743 0.225284 0.076890 0.195021
H113  H     H_    0.916213 0.630028 0.138123 0.259245
H114  H     H_    0.897996 0.602317 0.039563 0.262403
H115  H     H_    0.911910 0.702082 0.064151 0.252000
H116  H     H_    0.773902 0.674243 0.042675 0.200590
H117  H     H_    0.255661 0.429149 0.876613 0.111358
H118  H     H_    0.792199 0.702631 0.140384 0.196827
H119  H     H_    0.790480 0.564431 0.181189 0.178896
H120  H     H_    0.777550 0.535833 0.082149 0.195061
H121  H     H_    0.405358 0.926858 0.061792 0.275230
H122  H     H_    0.432751 0.880529 0.972425 0.269318
H123  H     H_    0.337654 0.918101 0.984137 0.255704
H124  H     H_    0.344449 0.773695 0.996048 0.196481
H125  H     H_    0.304801 0.822126 0.077855 0.207234
H126  H     H_    0.423986 0.806189 0.151497 0.177699
H127  H     H_    0.474710 0.774306 0.067895 0.205712
H128  H     H_    0.438831 0.737228 0.863291 0.116867
H129  H     H_    0.072060 0.428092 0.054659 0.272171
H130  H     H_    0.123673 0.438148 0.965133 0.263499
H131  H     H_    0.071595 0.351222 0.984973 0.257081
H132  H     H_    0.213288 0.334311 0.002848 0.201320
H133  H     H_    0.158649 0.317667 0.088620 0.204542
H134  H     H_    0.196576 0.440736 0.144148 0.180400
H135  H     H_    0.230478 0.473806 0.052310 0.198981
H136  H     H_    0.593189 0.928672 0.962762 0.267942
H137  H     H_    0.546493 0.887620 0.045903 0.271555
H138  H     H_    0.643892 0.919329 0.052293 0.255297
H139  H     H_    0.751178 0.581097 0.904625 0.103613
H140  H     H_    0.629670 0.774692 0.041931 0.203095
H141  H     H_    0.689493 0.818345 0.971908 0.201825
H142  H     H_    0.577838 0.813645 0.876194 0.183271
H143  H     H_    0.520603 0.770528 0.949783 0.198459
H144  H     H_    0.911800 0.407409 0.816774 0.260279
H145  H     H_    0.909974 0.417154 0.920194 0.266275
H146  H     H_    0.930102 0.325172 0.876675 0.250713
H147  H     H_    0.796447 0.328867 0.925642 0.198397
H148  H     H_    0.799197 0.318854 0.823486 0.197665
H149  H     H_    0.776708 0.464937 0.812412 0.191247
H150  H     H_    0.039863 0.212685 0.661855 0.111686
H151  H     H_    0.774107 0.465133 0.916807 0.192214
H152  H     H_    0.427884 0.070297 0.938446 0.274224
H153  H     H_    0.447000 0.121880 0.026797 0.260395
H154  H     H_    0.357573 0.071748 0.014274 0.255967
H155  H     H_    0.340877 0.213138 0.997833 0.199375
H156  H     H_    0.318269 0.159964 0.912474 0.201571
H157  H     H_    0.437032 0.196761 0.850361 0.174072
H158  H     H_    0.478253 0.229411 0.939550 0.200953
H159  H     H_    0.073308 0.593679 0.930208 0.270769
H160  H     H_    0.120748 0.575029 0.020713 0.265233
N1    N     N_R   0.574080 0.369570 0.076720 -0.059881
N2    N     N_R   0.130430 0.074080 0.576720 -0.055891
N3    N     N_R   0.925920 0.130430 0.576720 -0.057073
N4    N     N_R   0.869570 0.925920 0.576720 -0.058089
N5    N     N_R   0.074080 0.130430 0.423280 -0.060383
N6    N     N_R   0.130430 0.925920 0.423280 -0.055489
N7    N     N_R   0.925920 0.869570 0.423280 -0.056041
N8    N     N_R   0.869570 0.074080 0.423280 -0.058559
N9    N     N_R   0.574050 0.630410 0.076720 -0.053177
N10   N     N_R   0.369590 0.574050 0.076720 -0.052787
N11   N     N_R   0.425950 0.369590 0.076720 -0.051352
N12   N     N_R   0.630430 0.574080 0.076720 -0.053906
N13   N     N_R   0.630410 0.425950 0.076720 -0.055200
N14   N     N_R   0.574050 0.369590 0.923280 -0.056672
N15   N     N_R   0.369590 0.425950 0.923280 -0.052081
N16   N     N_R   0.425950 0.630410 0.923280 -0.052794
N17   N     N_R   0.630410 0.574050 0.923280 -0.053246
N18   N     N_R   0.074050 0.130410 0.576720 -0.056230
N19   N     N_R   0.869590 0.074050 0.576720 -0.052256
N20   N     N_R   0.925950 0.869590 0.576720 -0.050611
N21   N     N_R   0.130410 0.925950 0.576720 -0.054647
N22   N     N_R   0.074050 0.869590 0.423280 -0.055703
N23   N     N_R   0.425920 0.630430 0.076720 -0.054589
N24   N     N_R   0.869590 0.925950 0.423280 -0.052634
N25   N     N_R   0.925950 0.130410 0.423280 -0.051446
N26   N     N_R   0.130410 0.074050 0.423280 -0.054943
N27   N     N_R   0.369570 0.425920 0.076720 -0.058075
N28   N     N_R   0.574080 0.630430 0.923280 -0.056745
N29   N     N_R   0.630430 0.425920 0.923280 -0.060542
N30   N     N_R   0.425920 0.369570 0.923280 -0.056733
N31   N     N_R   0.369570 0.574080 0.923280 -0.058309
N32   N     N_R   0.074080 0.869570 0.576720 -0.057283
Ni1   Ni    Ni4+2 0.500000 0.370760 0.000000 0.194384
Ni2   Ni    Ni4+2 0.629240 0.500000 0.000000 0.192399
Ni3   Ni    Ni4+2 0.500000 0.629240 0.000000 0.196322
Ni4   Ni    Ni4+2 0.370760 0.500000 0.000000 0.195721
Ni5   Ni    Ni4+2 1.000000 0.870760 0.500000 0.194973
Ni6   Ni    Ni4+2 0.129240 1.000000 0.500000 0.194357
Ni7   Ni    Ni4+2 0.000000 0.129240 0.500000 0.194473
Ni8   Ni    Ni4+2 0.870760 1.000000 0.500000 0.195430

loop_
_geom_bond_atom_site_label_1
_geom_bond_atom_site_label_2
_ccdc_geom_bond_type
C126  C127  S    
C19   C20   S    
C17   H25   S    
C77   H74   S    
C18   H38   S    
C110  H109  S    
C77   C89   S    
C1    C56   A    
C74   N28   A    
C5    C6    S    
C72   C101  S    
C124  H136  S    
C29   H58   S    
C45   N16   A    
C110  C111  S    
C112  C113  S    
C80   C86   S    
C7    H160  S    
C46   H139  S    
C41   C112  S    
C89   C106  D    
C65   C118  A    
N2    Ni6   S    
N5    N26   A    
C36   C71   A    
C121  H130  S    
C21   C22   S    
C30   H54   S    
C17   H23   S    
N21   Ni6   S    
C109  H111  S    
C14   H16   S    
C38   H1    S    
C86   H82   S    
C6    H4    S    
C96   N30   A    
C61   C94   S    
C81   C99   D    
C120  H132  S    
C118  N32   A    
C31   C37   S    
C19   H34   S    
N18   Ni7   S    
C73   C88   S    
C38   C57   A    
C11   H22   S    
N11   Ni1   S    
C16   H27   S    
C111  H108  S    
C1    N1    A    
C46   N17   A    
C73   C91   D    
C22   H42   S    
C52   C58   A    
C44   H117  S    
N14   Ni1   S    
C23   H39   S    
C71   C102  S    
C21   H45   S    
C4    H152  S    
N19   Ni8   S    
C53   C71   A    
C43   C61   A    
C5    C107  S    
C52   C115  S    
C126  H148  S    
N30   Ni1   S    
C46   C60   A    
C79   C97   D    
C43   H106  S    
C27   H48   S    
N23   Ni3   S    
C117  H122  S    
C6    C7    S    
C21   H44   S    
C125  H151  S    
C59   C63   A    
C44   N15   A    
C33   H63   S    
C105  H102  S    
C31   H67   S    
C104  H101  S    
C94   H91   S    
C39   N10   A    
C63   N27   A    
C48   C67   A    
C92   H89   S    
C85   N29   A    
C69   C100  S    
C120  H133  S    
C20   H32   S    
C62   C93   S    
C22   C23   S    
C10   H10   S    
C89   H86   S    
C56   C95   S    
C84   C102  D    
N12   Ni2   S    
C58   C98   S    
C49   N20   A    
C28   H61   S    
C25   H52   S    
N1    Ni1   S    
C123  C124  S    
N9    Ni3   S    
C26   H51   S    
N17   N28   A    
C18   C24   S    
C41   N12   A    
C115  C116  S    
C57   C99   S    
C77   C94   D    
N29   Ni2   S    
C31   C32   S    
N24   Ni8   S    
C54   H57   S    
N6    N22   A    
C4    H154  S    
N20   Ni5   S    
C9    C10   S    
C51   N22   A    
C42   C56   A    
C55   H68   S    
N10   Ni4   S    
C127  H145  S    
C2    C11   S    
C43   N14   A    
N2    N18   A    
C88   H85   S    
C78   H75   S    
C15   H30   S    
C55   N26   A    
C122  H142  S    
C3    C128  S    
N16   N31   A    
C25   C26   S    
C39   C58   A    
C23   H40   S    
C29   C30   S    
N27   Ni4   S    
C63   C119  S    
N7    N24   A    
C23   H41   S    
C73   H70   S    
N25   Ni7   S    
C55   C69   A    
C75   C87   S    
C3    H156  S    
C114  H114  S    
C9    H12   S    
N5    Ni7   S    
C68   C105  S    
C3    C4    S    
C120  C121  S    
C108  H104  S    
C5    H7    S    
C83   C101  D    
C87   H83   S    
C48   N19   A    
C12   C14   S    
C32   H65   S    
C2    C66   A    
C79   C82   S    
C110  H110  S    
C75   H71   S    
C45   C64   A    
C2    N2    A    
C90   C108  D    
C88   C105  D    
C98   H94   S    
C8    H15   S    
N16   Ni3   S    
C50   C65   A    
C50   N21   A    
C7    H159  S    
C79   H76   S    
N13   Ni2   S    
C121  H129  S    
C81   H78   S    
C42   N13   A    
C112  H119  S    
C49   C68   A    
C62   C96   A    
N1    N13   A    
C30   H55   S    
N15   N30   A    
C14   H17   S    
C26   C27   S    
C12   H19   S    
C28   C29   S    
C128  H157  S    
C6    H5    S    
C28   H60   S    
N21   N32   A    
C119  H134  S    
C124  H137  S    
C106  H103  S    
C96   C128  S    
C18   C19   S    
C1    C109  S    
C78   C83   S    
C11   H21   S    
C16   C17   S    
C49   H13   S    
C16   H28   S    
C111  H107  S    
C51   H35   S    
C47   C66   A    
C7    H3    S    
C22   H43   S    
C123  H141  S    
N3    Ni7   S    
C48   H2    S    
C30   H56   S    
C17   H26   S    
C90   H87   S    
C18   H37   S    
C116  H125  S    
N17   Ni2   S    
C27   H47   S    
C117  H121  S    
N26   Ni6   S    
C21   C34   S    
C103  H100  S    
C29   H59   S    
C33   H62   S    
C91   H88   S    
C76   C93   D    
C78   C95   D    
C113  H116  S    
C95   H92   S    
N7    Ni5   S    
N32   Ni5   S    
C24   N4    A    
C25   C35   S    
C74   C122  S    
C39   H73   S    
N3    N19   A    
C125  C126  S    
C64   C92   S    
N15   Ni4   S    
C31   H69   S    
C113  C114  S    
C109  H112  S    
N31   Ni4   S    
N8    Ni8   S    
C80   C98   D    
C70   C103  S    
C40   N11   A    
C27   H49   S    
C66   C108  S    
C119  C120  S    
C67   C106  S    
C40   H84   S    
C32   C33   S    
C41   C57   A    
C109  C110  S    
C9    H11   S    
C115  H126  S    
C125  H149  S    
C111  H105  S    
C24   C68   A    
C45   H128  S    
C87   C104  D    
C50   H24   S    
C35   N6    A    
C28   C36   S    
C37   C72   A    
C101  H98   S    
C8    H14   S    
C54   N25   A    
C113  H118  S    
C76   C90   S    
C126  H147  S    
N6    Ni6   S    
C85   C125  S    
C117  H123  S    
C8    C118  S    
C33   H64   S    
C10   H8    S    
C15   H29   S    
N10   N23   A    
C15   C16   S    
C116  C117  S    
C53   N24   A    
C60   C74   A    
C36   N7    A    
C119  H135  S    
N28   Ni3   S    
C8    C9    S    
C20   H31   S    
C10   H9    S    
N4    N20   A    
C47   H150  S    
N11   N27   A    
C3    H155  S    
C80   H77   S    
C40   C59   A    
C86   C103  D    
C123  H140  S    
C82   H79   S    
C25   H53   S    
C53   H46   S    
C26   H50   S    
C5    H6    S    
N14   N29   A    
C35   C70   A    
C32   H66   S    
C76   H72   S    
C116  H124  S    
C44   C62   A    
C93   H90   S    
C83   H80   S    
C34   N5    A    
C34   C69   A    
C4    H153  S    
C115  H127  S    
C61   C85   A    
C75   C92   D    
C122  H143  S    
C51   C70   A    
C121  H131  S    
C13   N3    A    
C37   N8    A    
C127  H144  S    
C13   C15   S    
C59   C97   S    
N9    N12   A    
C127  H146  S    
C42   H95   S    
C81   C84   S    
C64   C107  A    
C13   C67   A    
C60   C91   S    
C107  N31   A    
C112  H120  S    
C99   H96   S    
N8    N25   A    
C82   C100  D    
C11   C12   S    
C14   H18   S    
C52   N23   A    
C12   H20   S    
C128  H158  S    
N22   Ni5   S    
C20   H33   S    
C124  H138  S    
C102  H99   S    
C84   H81   S    
C97   H93   S    
C114  H115  S    
C47   N18   A    
C19   H36   S    
C100  H97   S    
C114  H113  S    
C54   C72   A    
C38   N9    A    
C65   C104  S    
C122  C123  S    
N4    Ni8   S    
