data_mof_unit_36415.cif
_audit_creation_date              2012-12-11T14:43:38-0500
_audit_creation_method            fapswitch 2.2
_symmetry_space_group_name_H-M    P1
_symmetry_Int_Tables_number       1
_space_group_crystal_system       triclinic
_cell_length_a                    20.711782
_cell_length_b                    7.099019
_cell_length_c                    16.571231
_cell_angle_alpha                 89.910828
_cell_angle_beta                  92.669505
_cell_angle_gamma                 90.001021
_cell_volume                      2433.87628798

loop_
_atom_site_label
_atom_site_type_symbol
_atom_type_description
_atom_site_fract_x
_atom_site_fract_y
_atom_site_fract_z
_atom_type_partial_charge
O1    O     O_R   0.564840 0.505290 0.579830 -0.528000
O2    O     O_R   0.435160 0.005290 0.420170 -0.531226
O3    O     O_R   0.556720 0.179930 0.409350 -0.528482
O4    O     O_R   0.443280 0.679930 0.590650 -0.530108
C1    C     C_R   0.570206 0.345876 0.381035 0.704461
C2    C     C_R   0.429594 0.845517 0.618676 0.709773
O5    O     O_R   0.572280 0.175810 0.578530 -0.527273
O6    O     O_R   0.427720 0.675810 0.421470 -0.529518
O7    O     O_R   0.450830 0.001920 0.590540 -0.543514
O8    O     O_R   0.549170 0.501920 0.409460 -0.547988
C3    C     C_R   0.589826 0.344855 0.605108 0.821809
C4    C     C_R   0.410033 0.844910 0.395059 0.812979
O9    O     O_3   0.460130 0.338030 0.503750 -0.378215
O10   O     O_3   0.539870 0.838030 0.496250 -0.376060
V1    V     V_3+5 0.507400 0.064560 0.499310 1.523147
V2    V     V_3+5 0.492600 0.564560 0.500690 1.518026
C5    C     C_R   0.137609 0.905051 0.175353 -0.132057
C6    C     C_R   0.862204 0.404462 0.824827 -0.150465
C7    C     C_R   0.356812 0.861288 0.331475 -0.178769
C8    C     C_R   0.643074 0.361925 0.668580 -0.166355
C9    C     C_R   0.312962 0.019686 0.209115 0.166163
C10   C     C_R   0.688070 0.530012 0.787488 0.138906
C11   C     C_R   0.365007 0.982965 0.265634 0.261128
C12   C     C_R   0.634463 0.482230 0.734770 0.258122
C13   C     C_R   0.296134 0.777992 0.342384 0.270041
C14   C     C_R   0.703879 0.279758 0.657466 0.268326
C15   C     C_R   0.242481 0.816981 0.287142 -0.052288
C16   C     C_R   0.757203 0.316636 0.713359 -0.066813
C17   C     C_R   0.250944 0.944890 0.222432 -0.013439
C18   C     C_R   0.749382 0.449179 0.776267 0.017050
C19   C     C_R   0.197874 0.990841 0.169293 -0.217914
C20   C     C_R   0.802407 0.494220 0.829599 -0.201648
C21   C     C_R   0.127864 0.783557 0.241480 0.114537
C22   C     C_R   0.871164 0.277162 0.760563 0.119974
C23   C     C_R   0.181078 0.729691 0.293940 0.392590
C24   C     C_R   0.817716 0.223565 0.708560 0.383165
H1    H     H_    0.203501 0.091377 0.121240 0.164368
H2    H     H_    0.796810 0.595467 0.877280 0.174412
C25   C     C_R   0.385591 0.974210 0.830346 0.184055
C26   C     C_R   0.614318 0.470437 0.168039 0.187222
H3    H     H_    0.304914 0.038250 0.946969 0.163703
H4    H     H_    0.694981 0.522802 0.049773 0.172672
C27   C     C_R   0.392572 0.862449 0.692373 -0.152247
C28   C     C_R   0.607203 0.364354 0.307156 -0.152750
C29   C     C_R   0.079949 0.851002 0.736049 0.008555
C30   C     C_R   0.919653 0.354758 0.264994 0.006840
C31   C     C_R   0.113970 0.856274 0.664068 0.397692
C32   C     C_R   0.885785 0.369540 0.336383 0.467626
C33   C     C_R   0.179906 0.900666 0.666953 0.174799
C34   C     C_R   0.819460 0.408602 0.332581 0.145949
C35   C     C_R   0.215754 0.911168 0.742469 -0.065516
C36   C     C_R   0.783889 0.411626 0.256682 -0.067729
C37   C     C_R   0.179927 0.930895 0.814213 -0.014108
C38   C     C_R   0.819918 0.428127 0.184900 0.012127
C39   C     C_R   0.285548 0.907758 0.749253 0.057665
C40   C     C_R   0.714175 0.406112 0.249581 0.058024
C41   C     C_R   0.317454 0.961427 0.823135 0.050434
C42   C     C_R   0.682353 0.455529 0.175035 0.045472
C43   C     C_R   0.281191 0.998370 0.890048 -0.184486
C44   C     C_R   0.718629 0.487794 0.107573 -0.188484
C45   C     C_R   0.214410 0.975487 0.887674 0.170906
C46   C     C_R   0.785515 0.467128 0.110671 0.176238
C47   C     C_R   0.324891 0.844972 0.686603 -0.283829
C48   C     C_R   0.674863 0.345392 0.312718 -0.280855
C49   C     C_R   0.423152 0.929294 0.764830 0.317196
C50   C     C_R   0.576858 0.432685 0.234536 0.326872
C51   C     C_R   0.111143 0.903961 0.809854 -0.130695
C52   C     C_R   0.888802 0.403152 0.190006 -0.170342
H5    H     H_    0.304157 0.782184 0.632350 0.142923
H6    H     H_    0.695748 0.283699 0.367241 0.145109
O11   O     O_R   0.950790 0.256670 0.090520 -0.544719
O12   O     O_R   0.049210 0.756670 0.909480 -0.531547
O13   O     O_R   0.927720 0.590370 0.921470 -0.529830
O14   O     O_R   0.072280 0.090370 0.078530 -0.539557
C53   C     C_R   0.911953 0.421356 0.892708 0.743070
C54   C     C_R   0.087948 0.921324 0.107374 0.716950
O15   O     O_R   0.943270 0.586180 0.090640 -0.533294
O16   O     O_R   0.056730 0.086180 0.909360 -0.536620
O17   O     O_R   0.064850 0.759970 0.079840 -0.531177
O18   O     O_R   0.935150 0.259970 0.920160 -0.525992
C55   C     C_R   0.930025 0.416743 0.118788 0.810571
C56   C     C_R   0.070055 0.917060 0.881256 0.883928
O19   O     O_3   0.039850 0.428050 0.996240 -0.378945
O20   O     O_3   0.960150 0.928050 0.003760 -0.376276
V3    V     V_3+5 0.992610 0.701540 0.000700 1.473256
V4    V     V_3+5 0.007390 0.201540 0.999300 1.454632
N1    N     N_3   0.012837 0.799155 0.735116 -0.664546
H7    H     H_    0.986332 0.889802 0.696562 0.252541
H8    H     H_    0.007994 0.661209 0.713651 0.227105
N2    N     N_3   0.985748 0.292317 0.269758 -0.675479
H9    H     H_    0.014749 0.391843 0.242574 0.257925
H10   H     H_    0.988781 0.165799 0.237977 0.237933
N3    N     N_3   0.205668 0.962951 0.592439 -0.610549
H11   H     H_    0.244553 0.055201 0.602090 0.236172
H12   H     H_    0.218071 0.846012 0.558419 0.237101
N4    N     N_3   0.792839 0.474097 0.406013 -0.615922
H13   H     H_    0.753622 0.564450 0.394774 0.239477
H14   H     H_    0.780639 0.358841 0.441352 0.236753
O21   O     O_3   0.084411 0.826685 0.588461 -0.615398
H15   H     H_    0.039424 0.783665 0.593155 0.298733
O22   O     O_3   0.916128 0.351311 0.412224 -0.615907
H16   H     H_    0.963376 0.338491 0.407628 0.334771
N5    N     N_3   0.182647 0.998552 0.961606 -0.688275
H17   H     H_    0.192409 0.134470 0.983102 0.230969
H18   H     H_    0.202242 0.900507 0.003012 0.213420
N6    N     N_3   0.817533 0.488317 0.036787 -0.678519
H19   H     H_    0.807954 0.624032 0.014785 0.230766
H20   H     H_    0.797968 0.390035 0.995578 0.219044
N7    N     N_3   0.063975 0.718575 0.258659 -0.691615
H21   H     H_    0.054921 0.760366 0.317562 0.252448
H22   H     H_    0.028260 0.786151 0.222795 0.222671
N8    N     N_3   0.934460 0.204352 0.745282 -0.670994
H23   H     H_    0.943710 0.236485 0.685280 0.232450
H24   H     H_    0.970747 0.275687 0.778637 0.228946
N9    N     N_3   0.322833 0.124132 0.135842 -0.658746
H25   H     H_    0.371376 0.155056 0.128362 0.257305
H26   H     H_    0.310750 0.034082 0.087690 0.217980
N10   N     N_3   0.681036 0.660504 0.852707 -0.687751
H27   H     H_    0.663017 0.787941 0.829315 0.252217
H28   H     H_    0.648912 0.604442 0.893235 0.235439
O23   O     O_3   0.174416 0.587796 0.350323 -0.624150
H29   H     H_    0.134156 0.516044 0.338248 0.328221
O24   O     O_3   0.823062 0.075722 0.654914 -0.625750
H30   H     H_    0.862283 0.000715 0.668952 0.320483
O25   O     O_3   0.424796 0.064675 0.258062 -0.636346
H31   H     H_    0.417403 0.198337 0.243423 0.304744
O26   O     O_3   0.572932 0.552294 0.744717 -0.644109
H32   H     H_    0.571124 0.621655 0.796120 0.305114
O27   O     O_3   0.289861 0.669997 0.410644 -0.617182
H33   H     H_    0.252916 0.722342 0.439041 0.320354
O28   O     O_3   0.710472 0.174194 0.588647 -0.618703
H34   H     H_    0.749495 0.220869 0.562689 0.321990
O29   O     O_3   0.489423 0.952930 0.774735 -0.650105
H35   H     H_    0.511347 0.899594 0.728240 0.299747
O30   O     O_3   0.510967 0.464153 0.225035 -0.647458
H36   H     H_    0.489468 0.436866 0.275650 0.287089
N11   N     N_3   0.416996 0.035128 0.904911 -0.672298
H37   H     H_    0.448821 0.929261 0.925451 0.258412
H38   H     H_    0.443964 0.156015 0.893508 0.265505
N12   N     N_3   0.582968 0.528813 0.092979 -0.675723
H39   H     H_    0.557039 0.652291 0.103043 0.267281
H40   H     H_    0.550213 0.423959 0.074061 0.260079

loop_
_geom_bond_atom_site_label_1
_geom_bond_atom_site_label_2
_ccdc_geom_bond_type
N1    H7    S    
C25   N11   S    
N3    H11   S    
C15   C17   A    
C22   N8    S    
C28   C50   A    
O1    C3    A    
C54   O17   A    
C9    N9    S    
C13   O27   S    
C2    O7    A    
N8    H24   S    
O12   V3    S    
C27   C47   A    
O30   H36   S    
C31   C33   A    
C28   C48   A    
O5    C3    A    
N11   H38   S    
C6    C53   S    
O14   C54   A    
C52   C55   S    
C29   N1    S    
O20   V4    S    
C32   C34   A    
N7    H22   S    
C41   C43   A    
C38   C52   A    
N6    H19   S    
C42   C44   A    
N9    H25   S    
C25   C41   A    
C31   O21   S    
C44   C46   A    
C33   C35   A    
N10   H27   S    
O18   V4    S    
C37   C45   A    
C47   H5    S    
N9    H26   S    
C39   C47   A    
C29   C51   A    
C5    C54   S    
C34   C36   A    
C40   C48   A    
C48   H6    S    
C53   O18   A    
C35   C39   A    
C27   C49   A    
C11   O25   S    
O24   H30   S    
O16   V4    S    
O5    V1    S    
O2    C4    A    
O6    V2    S    
C26   C50   A    
C25   C49   A    
C5    C21   A    
C7    C13   A    
N8    H23   S    
C36   C38   A    
C29   C31   A    
C30   C32   A    
C3    C8    S    
C43   C45   A    
C26   C42   A    
O22   H16   S    
C8    C12   A    
C23   O23   S    
C24   O24   S    
N12   H39   S    
H3    C43   S    
O4    C2    A    
H4    C44   S    
C38   C46   A    
C15   C23   A    
C9    C17   A    
O14   V4    S    
C19   H1    S    
N4    H14   S    
C35   C37   A    
O4    V2    S    
C7    C11   A    
C30   C52   A    
C12   O26   S    
O11   V4    S    
O16   C56   A    
N2    H10   S    
O21   H15   S    
O15   C55   A    
O6    C4    A    
N4    H13   S    
N5    H18   S    
O1    V2    S    
O20   V3    S    
O2    V1    S    
C6    C22   A    
O13   V3    S    
O23   H29   S    
C46   N6    S    
O19   V3    S    
C1    C28   S    
C20   H2    S    
C2    C27   S    
C9    C11   A    
O29   H35   S    
C5    C19   A    
C10   C12   A    
C6    C20   A    
O13   C53   A    
O26   H32   S    
O17   V3    S    
O3    V1    S    
N6    H20   S    
O27   H33   S    
C10   N10   S    
C10   C18   A    
C45   N5    S    
N12   H40   S    
O3    C1    A    
C30   N2    S    
C13   C15   A    
N11   H37   S    
C14   C16   A    
C39   C41   A    
O7    V1    S    
C1    O8    A    
C17   C19   A    
O8    V2    S    
N7    H21   S    
C18   C20   A    
C34   N4    S    
N2    H9    S    
O25   H31   S    
C8    C14   A    
O12   C56   A    
C32   O22   S    
C26   N12   S    
C4    C7    S    
C16   C18   A    
C21   C23   A    
C40   C42   A    
C22   C24   A    
O28   H34   S    
C37   C51   A    
N10   H28   S    
O15   V3    S    
C50   O30   S    
O19   V4    S    
C21   N7    S    
C16   C24   A    
C51   C56   S    
N3    H12   S    
O9    V2    S    
N5    H17   S    
N1    H8    S    
O10   V1    S    
C33   N3    S    
C49   O29   S    
C14   O28   S    
C36   C40   A    
O11   C55   A    
