data_mof_unit_7155.cif
_audit_creation_date              2012-12-10T18:10:40-0500
_audit_creation_method            fapswitch 2.2
_symmetry_space_group_name_H-M    P1
_symmetry_Int_Tables_number       1
_space_group_crystal_system       triclinic
_cell_length_a                    18.315589
_cell_length_b                    18.338552
_cell_length_c                    47.261856
_cell_angle_alpha                 90.114632
_cell_angle_beta                  90.194912
_cell_angle_gamma                 89.986531
_cell_volume                      15874.2534369

loop_
_atom_site_label
_atom_site_type_symbol
_atom_type_description
_atom_site_fract_x
_atom_site_fract_y
_atom_site_fract_z
_atom_type_partial_charge
C1    C     C_R   0.999995 0.860177 0.999977 0.838136
C2    C     C_R   0.139822 0.000046 0.000034 0.841626
C3    C     C_R   0.000011 0.139823 0.000022 0.840429
C4    C     C_R   0.860177 0.999998 0.999963 0.839337
C5    C     C_R   0.499990 0.360176 0.499972 0.843832
C6    C     C_R   0.639823 0.499926 0.500052 0.844751
C7    C     C_R   0.500009 0.639824 0.500017 0.843669
C8    C     C_R   0.360177 0.500008 0.499969 0.844858
C9    C     C_R   0.551112 0.956306 0.869590 0.348521
C10   C     C_R   0.065974 0.505156 0.868680 0.356100
C11   C     C_R   0.448956 0.043101 0.869474 0.348529
C12   C     C_R   0.932950 0.495507 0.868596 0.356153
C13   C     C_R   0.553206 0.017197 0.131319 0.322103
C14   C     C_R   0.066334 0.488464 0.131610 0.330470
C15   C     C_R   0.428404 0.970698 0.128858 0.352919
C16   C     C_R   0.939291 0.528001 0.131461 0.317366
C17   C     C_R   0.058670 0.488905 0.369187 0.373387
C18   C     C_R   0.558279 0.028448 0.368440 0.354902
C19   C     C_R   0.926285 0.508589 0.370714 0.374220
C20   C     C_R   0.440859 0.964230 0.368779 0.353451
C21   C     C_R   0.052868 0.459604 0.630195 0.373385
C22   C     C_R   0.513260 0.934384 0.630242 0.370908
C23   C     C_R   0.946955 0.540920 0.630067 0.373106
C24   C     C_R   0.487287 0.065718 0.630309 0.371055
C25   C     C_R   0.552298 0.958332 0.899474 0.275977
C26   C     C_R   0.066329 0.502082 0.898360 0.293831
C27   C     C_R   0.447702 0.041201 0.899350 0.275770
C28   C     C_R   0.932912 0.498282 0.898290 0.293544
C29   C     C_R   0.555106 0.022475 0.101603 0.237604
C30   C     C_R   0.066407 0.489745 0.101810 0.293526
C31   C     C_R   0.431668 0.972065 0.099061 0.270060
C32   C     C_R   0.937026 0.522185 0.101718 0.248947
C33   C     C_R   0.060977 0.488770 0.398911 0.282462
C34   C     C_R   0.559280 0.027544 0.398260 0.286296
C35   C     C_R   0.929479 0.509874 0.400446 0.282248
C36   C     C_R   0.440096 0.967891 0.398557 0.285061
C37   C     C_R   0.051844 0.458401 0.600510 0.288316
C38   C     C_R   0.514109 0.934978 0.600472 0.280174
C39   C     C_R   0.948153 0.542092 0.600388 0.288192
C40   C     C_R   0.486543 0.065145 0.600535 0.280073
C41   C     C_R   0.499986 0.999807 0.914193 -0.337261
C42   C     C_R   0.999700 0.500111 0.913621 -0.395505
C43   C     C_R   0.494885 0.998646 0.085511 -0.338526
C44   C     C_R   0.001203 0.504586 0.086461 -0.366613
C45   C     C_R   0.996602 0.499618 0.414509 -0.368288
C46   C     C_R   0.499684 0.998549 0.413600 -0.379695
C47   C     C_R   0.000011 0.500208 0.585544 -0.383594
C48   C     C_R   0.500323 0.000059 0.585636 -0.364634
C49   C     C_R   0.500085 0.999709 0.854498 0.016617
C50   C     C_R   0.999389 0.500395 0.853772 0.013210
C51   C     C_R   0.489489 0.993211 0.144902 0.063539
C52   C     C_R   0.002606 0.508579 0.146391 0.061981
C53   C     C_R   0.991156 0.498491 0.355007 -0.002608
C54   C     C_R   0.499370 0.995844 0.353639 0.018206
C55   C     C_R   0.999856 0.500251 0.645159 -0.018371
C56   C     C_R   0.500222 0.000043 0.645277 0.001647
C57   C     C_1   0.782675 0.999983 0.999903 -0.167183
C58   C     C_1   0.999980 0.782684 0.999938 -0.171753
C59   C     C_1   0.217322 0.000141 0.000064 -0.166127
C60   C     C_1   0.000027 0.217315 0.000058 -0.165799
C61   C     C_1   0.282681 0.500094 0.499939 -0.186043
C62   C     C_1   0.500036 0.282685 0.499901 -0.172353
C63   C     C_1   0.717318 0.499775 0.500183 -0.186865
C64   C     C_1   0.499959 0.717314 0.500021 -0.172473
C65   C     C_1   0.717347 0.999974 0.999923 -0.157530
C66   C     C_1   0.999975 0.717383 0.999947 -0.168349
C67   C     C_1   0.282649 0.000155 0.000001 -0.156720
C68   C     C_1   0.000029 0.282617 0.000044 -0.162642
C69   C     C_1   0.217351 0.500094 0.499958 -0.178947
C70   C     C_1   0.500042 0.217382 0.499886 -0.162397
C71   C     C_1   0.782651 0.499805 0.500183 -0.176650
C72   C     C_1   0.499952 0.782617 0.499982 -0.161775
C73   C     C_R   0.499981 0.999938 0.945460 0.982865
C74   C     C_R   0.999897 0.500015 0.945249 0.890700
C75   C     C_R   0.498472 0.999872 0.054447 0.973130
C76   C     C_R   0.000232 0.501222 0.054783 0.907781
C77   C     C_R   0.999287 0.499922 0.445560 0.959138
C78   C     C_R   0.499900 0.999702 0.445244 0.926501
C79   C     C_R   0.999998 0.500065 0.554451 0.894679
C80   C     C_R   0.500107 0.000019 0.554493 0.962949
C81   C     C_R   0.639868 0.999990 0.999977 0.882545
C82   C     C_R   0.999991 0.639901 0.999978 0.833792
C83   C     C_R   0.360131 0.000033 0.999971 0.885919
C84   C     C_R   0.000010 0.360099 0.000011 0.841177
C85   C     C_R   0.139870 0.500009 0.499935 0.850620
C86   C     C_R   0.500002 0.139902 0.499962 0.871711
C87   C     C_R   0.860130 0.499974 0.500018 0.854191
C88   C     C_R   0.499997 0.860097 0.499993 0.872037
C89   C     C_R   0.977322 0.445252 0.190148 0.674031
C90   C     C_R   0.513717 0.932792 0.189378 0.559806
C91   C     C_R   0.018344 0.568644 0.191693 0.553187
C92   C     C_R   0.462818 0.052493 0.189475 0.667251
C93   C     C_R   0.006264 0.565084 0.809392 0.591682
C94   C     C_R   0.559970 0.025506 0.809706 0.610537
C95   C     C_R   0.992333 0.435718 0.809283 0.591359
C96   C     C_R   0.440382 0.973840 0.809485 0.610657
C97   C     C_R   0.440479 0.974099 0.689782 0.582217
C98   C     C_R   0.988678 0.436145 0.689804 0.611071
C99   C     C_R   0.559849 0.025923 0.690001 0.582264
C100  C     C_R   0.010744 0.564414 0.689927 0.611019
C101  C     C_R   0.475586 0.056543 0.309116 0.583170
C102  C     C_R   0.013090 0.562043 0.311193 0.599306
C103  C     C_R   0.519727 0.934158 0.308966 0.584835
C104  C     C_R   0.964287 0.441467 0.309856 0.591089
C105  C     C_R   0.017713 0.568454 0.221522 -0.148214
C106  C     C_R   0.465776 0.055505 0.219346 -0.186299
C107  C     C_R   0.971494 0.443161 0.219950 -0.165842
C108  C     C_R   0.515477 0.931474 0.219203 -0.156111
C109  C     C_R   0.994938 0.433820 0.779502 -0.165869
C110  C     C_R   0.438170 0.974686 0.779607 -0.167303
C111  C     C_R   0.003838 0.566935 0.779602 -0.165767
C112  C     C_R   0.562211 0.024767 0.779831 -0.167658
C113  C     C_R   0.562844 0.022799 0.719829 -0.175252
C114  C     C_R   0.007757 0.566639 0.719728 -0.162966
C115  C     C_R   0.437490 0.977040 0.719610 -0.175343
C116  C     C_R   0.991409 0.433989 0.719614 -0.163152
C117  C     C_R   0.521690 0.933437 0.279114 -0.177097
C118  C     C_R   0.966293 0.440755 0.279971 -0.159428
C119  C     C_R   0.469245 0.056129 0.279341 -0.180622
C120  C     C_R   0.012508 0.566048 0.281418 -0.161024
C121  C     C_R   0.992903 0.505309 0.235719 -0.139749
C122  C     C_R   0.491920 0.993869 0.234252 -0.136209
C123  C     C_R   0.999431 0.500363 0.764578 -0.136532
C124  C     C_R   0.500183 0.999779 0.764736 -0.138483
C125  C     C_R   0.500172 0.999873 0.734731 -0.136063
C126  C     C_R   0.999536 0.500330 0.734630 -0.147688
C127  C     C_R   0.494348 0.994513 0.264236 -0.136350
C128  C     C_R   0.990432 0.504053 0.265699 -0.141311
C129  C     C_R   0.041911 0.629158 0.237472 0.346967
C130  C     C_R   0.442498 0.117709 0.234704 0.367369
C131  C     C_R   0.945289 0.380833 0.234327 0.338910
C132  C     C_R   0.541118 0.870055 0.234295 0.344361
C133  C     C_R   0.993955 0.367404 0.764325 0.340191
C134  C     C_R   0.375707 0.951574 0.764272 0.348526
C135  C     C_R   0.004949 0.633328 0.764512 0.340608
C136  C     C_R   0.624695 0.047905 0.764712 0.348579
C137  C     C_R   0.626675 0.041659 0.735091 0.373710
C138  C     C_R   0.012137 0.633108 0.734923 0.349271
C139  C     C_R   0.373679 0.958037 0.734664 0.373881
C140  C     C_R   0.986866 0.367561 0.734715 0.349313
C141  C     C_R   0.549711 0.873384 0.263766 0.377248
C142  C     C_R   0.945835 0.378503 0.264090 0.347226
C143  C     C_R   0.438416 0.115366 0.264322 0.385387
C144  C     C_R   0.034578 0.629735 0.267042 0.337289
Cu1   Cu    Cu3+1 0.000000 0.000000 0.028150 0.979004
Cu2   Cu    Cu3+1 0.000000 0.000000 0.971850 0.989202
Cu3   Cu    Cu3+1 0.500000 0.500000 0.528150 0.959446
Cu4   Cu    Cu3+1 0.500000 0.500000 0.471850 0.993178
Cu5   Cu    Cu3+1 0.500000 0.072590 0.000000 0.957260
Cu6   Cu    Cu3+1 0.927410 0.500000 0.000000 0.967243
Cu7   Cu    Cu3+1 0.500000 0.927410 0.000000 0.941771
Cu8   Cu    Cu3+1 0.072590 0.500000 0.000000 0.966044
Cu9   Cu    Cu3+1 0.000000 0.572590 0.500000 0.981807
Cu10  Cu    Cu3+1 0.427410 0.000000 0.500000 0.961912
Cu11  Cu    Cu3+1 0.000000 0.427410 0.500000 0.981886
Cu12  Cu    Cu3+1 0.572590 0.000000 0.500000 0.962007
N1    N     N_R   0.000384 0.507131 0.176841 -0.418859
N2    N     N_R   0.487460 0.992370 0.175337 -0.412499
N3    N     N_R   0.999272 0.500409 0.823403 -0.438827
N4    N     N_R   0.500156 0.999672 0.823832 -0.446197
N5    N     N_R   0.500173 0.000036 0.675746 -0.440225
N6    N     N_R   0.999766 0.500266 0.675692 -0.450728
N7    N     N_R   0.498467 0.995557 0.323178 -0.438277
N8    N     N_R   0.989166 0.500685 0.324598 -0.444852
O1    O     O_R   0.999960 0.894270 0.023780 -0.585218
O2    O     O_R   0.105730 0.999960 0.023780 -0.577985
O3    O     O_R   0.000040 0.105730 0.023780 -0.578657
O4    O     O_R   0.894270 0.000040 0.023780 -0.584272
O5    O     O_R   0.999960 0.105730 0.976220 -0.581512
O6    O     O_R   0.105730 0.000040 0.976220 -0.578114
O7    O     O_R   0.000040 0.894270 0.976220 -0.580017
O8    O     O_R   0.894270 0.999960 0.976220 -0.576970
O9    O     O_R   0.499960 0.394270 0.523780 -0.583240
O10   O     O_R   0.605730 0.499960 0.523780 -0.591333
O11   O     O_R   0.500040 0.605730 0.523780 -0.583154
O12   O     O_R   0.394270 0.500040 0.523780 -0.590825
O13   O     O_R   0.499960 0.605730 0.476220 -0.576342
O14   O     O_R   0.605730 0.500040 0.476220 -0.575501
O15   O     O_R   0.500040 0.394270 0.476220 -0.576229
O16   O     O_R   0.394270 0.499960 0.476220 -0.576586
O17   O     O_R   0.500020 0.061320 0.958950 -0.588367
O18   O     O_R   0.938680 0.500020 0.958950 -0.553503
O19   O     O_R   0.499980 0.938680 0.958950 -0.587709
O20   O     O_R   0.061320 0.499980 0.958950 -0.553145
O21   O     O_R   0.500020 0.938680 0.041050 -0.611696
O22   O     O_R   0.938680 0.499980 0.041050 -0.554867
O23   O     O_R   0.499980 0.061320 0.041050 -0.585020
O24   O     O_R   0.061320 0.500020 0.041050 -0.563041
O25   O     O_R   0.000020 0.561320 0.458950 -0.595141
O26   O     O_R   0.438680 0.000020 0.458950 -0.573182
O27   O     O_R   0.999980 0.438680 0.458950 -0.597375
O28   O     O_R   0.561320 0.999980 0.458950 -0.573053
O29   O     O_R   0.000020 0.438680 0.541050 -0.558827
O30   O     O_R   0.438680 0.999980 0.541050 -0.597176
O31   O     O_R   0.999980 0.561320 0.541050 -0.558976
O32   O     O_R   0.561320 0.000020 0.541050 -0.596904
O33   O     O_R   0.605800 0.061300 0.000010 -0.593484
O34   O     O_R   0.938700 0.605800 0.000010 -0.588630
O35   O     O_R   0.394200 0.938700 0.000010 -0.596532
O36   O     O_R   0.061300 0.394200 0.000010 -0.586218
O37   O     O_R   0.605800 0.938700 0.999990 -0.592953
O38   O     O_R   0.938700 0.394200 0.999990 -0.585651
O39   O     O_R   0.394200 0.061300 0.999990 -0.590565
O40   O     O_R   0.061300 0.605800 0.999990 -0.587825
O41   O     O_R   0.105800 0.561300 0.500010 -0.578617
O42   O     O_R   0.438700 0.105800 0.500010 -0.603452
O43   O     O_R   0.894200 0.438700 0.500010 -0.578667
O44   O     O_R   0.561300 0.894200 0.500010 -0.603855
O45   O     O_R   0.105800 0.438700 0.499990 -0.593789
O46   O     O_R   0.438700 0.894200 0.499990 -0.570428
O47   O     O_R   0.894200 0.561300 0.499990 -0.594913
O48   O     O_R   0.561300 0.105800 0.499990 -0.570606
O49   O     O_2   0.960219 0.386174 0.174424 -0.492473
O50   O     O_2   0.537974 0.875166 0.174325 -0.559916
O51   O     O_2   0.037391 0.629409 0.177478 -0.548835
O52   O     O_2   0.435326 0.108749 0.174510 -0.499658
O53   O     O_2   0.015258 0.627102 0.824410 -0.499275
O54   O     O_2   0.616633 0.052558 0.824701 -0.479518
O55   O     O_2   0.983258 0.373718 0.824186 -0.499675
O56   O     O_2   0.383718 0.946707 0.824267 -0.479783
O57   O     O_2   0.384383 0.945947 0.674769 -0.501594
O58   O     O_2   0.974762 0.374932 0.674863 -0.481976
O59   O     O_2   0.615935 0.054182 0.675205 -0.501833
O60   O     O_2   0.024803 0.625589 0.675114 -0.482643
O61   O     O_2   0.458663 0.116932 0.324058 -0.502248
O62   O     O_2   0.037103 0.618821 0.326860 -0.493233
O63   O     O_2   0.539101 0.874434 0.323817 -0.500632
O64   O     O_2   0.938846 0.383419 0.324260 -0.491760
O65   O     O_3   0.072976 0.689149 0.224468 -0.563891
C145  C     C_3   0.149842 0.683781 0.226910 0.116031
H1    H     H_    0.170545 0.641704 0.211938 0.131476
H2    H     H_    0.167518 0.668870 0.248769 0.161326
C146  C     C_3   0.184190 0.757251 0.219629 -0.296219
H3    H     H_    0.176036 0.768471 0.196748 0.226165
H4    H     H_    0.156928 0.801175 0.231935 0.229451
C147  C     C_3   0.265706 0.757961 0.226586 -0.960599
H5    H     H_    0.274118 0.754512 0.249832 0.269850
H6    H     H_    0.290564 0.809446 0.218907 0.256593
H7    H     H_    0.293586 0.711085 0.216369 0.256273
O66   O     O_3   0.418358 0.180001 0.221049 -0.573073
C148  C     C_3   0.478539 0.225769 0.214809 0.126997
H8    H     H_    0.465601 0.254585 0.194751 0.188626
H9    H     H_    0.530489 0.195372 0.210996 0.119840
C149  C     C_3   0.489572 0.282745 0.238193 -0.341330
H10   H     H_    0.436586 0.309563 0.242992 0.245317
H11   H     H_    0.509880 0.255624 0.257677 0.247150
C150  C     C_3   0.544735 0.340731 0.229416 -0.934264
H12   H     H_    0.598306 0.315198 0.224716 0.259431
H13   H     H_    0.552138 0.380571 0.246913 0.270534
H14   H     H_    0.524991 0.370374 0.210395 0.257232
O67   O     O_3   0.923449 0.319373 0.219506 -0.569962
C151  C     C_3   0.846502 0.319351 0.217272 0.120122
H15   H     H_    0.827160 0.368776 0.205759 0.142214
H16   H     H_    0.820746 0.317806 0.238584 0.163291
C152  C     C_3   0.822607 0.251628 0.200769 -0.297046
H17   H     H_    0.845876 0.253669 0.179091 0.244424
H18   H     H_    0.843874 0.202058 0.211514 0.221732
C153  C     C_3   0.739595 0.246371 0.198702 -0.959905
H19   H     H_    0.715506 0.241503 0.220151 0.258103
H20   H     H_    0.724263 0.197311 0.186215 0.266827
H21   H     H_    0.716922 0.295356 0.188029 0.261085
O68   O     O_3   0.562417 0.807315 0.220297 -0.572318
C154  C     C_3   0.503314 0.757853 0.220295 0.125844
H22   H     H_    0.454423 0.782356 0.209842 0.128879
H23   H     H_    0.489004 0.741864 0.242333 0.160056
C155  C     C_3   0.525329 0.689479 0.203920 -0.303820
H24   H     H_    0.540003 0.704696 0.181902 0.239656
H25   H     H_    0.573963 0.664413 0.214147 0.219298
C156  C     C_3   0.463452 0.633825 0.203091 -0.955536
H26   H     H_    0.448188 0.617297 0.224882 0.267073
H27   H     H_    0.481387 0.584663 0.191255 0.260658
H28   H     H_    0.414948 0.657197 0.192273 0.257304
O69   O     O_3   0.000094 0.301208 0.778139 -0.572091
C157  C     C_3   0.075007 0.283173 0.780078 0.111960
H29   H     H_    0.105462 0.325730 0.792198 0.129283
H30   H     H_    0.099403 0.277626 0.758594 0.149929
C158  C     C_3   0.083144 0.210443 0.795463 -0.297950
H31   H     H_    0.056837 0.214211 0.816579 0.246009
H32   H     H_    0.055182 0.167003 0.783084 0.214909
C159  C     C_3   0.163388 0.190062 0.799385 -0.954110
H33   H     H_    0.191635 0.187777 0.778652 0.263417
H34   H     H_    0.167506 0.135730 0.809590 0.274912
H35   H     H_    0.191106 0.230763 0.813108 0.256601
O70   O     O_3   0.313308 0.928989 0.778181 -0.566940
C160  C     C_3   0.309120 0.852099 0.776881 0.107182
H36   H     H_    0.356480 0.827138 0.788143 0.139455
H37   H     H_    0.308430 0.832433 0.754561 0.156839
C161  C     C_3   0.238662 0.827321 0.791181 -0.306614
H38   H     H_    0.239536 0.844303 0.813771 0.252756
H39   H     H_    0.191179 0.853885 0.780725 0.215083
C162  C     C_3   0.229477 0.744693 0.789463 -0.916766
H40   H     H_    0.228431 0.726506 0.767031 0.239547
H41   H     H_    0.177221 0.728687 0.799556 0.293965
H42   H     H_    0.275066 0.717004 0.800678 0.260615
O71   O     O_3   0.998845 0.699549 0.778395 -0.571845
C163  C     C_3   0.923953 0.717701 0.780112 0.111605
H43   H     H_    0.893274 0.675003 0.791927 0.128849
H44   H     H_    0.899795 0.723682 0.758551 0.150415
C164  C     C_3   0.915828 0.790159 0.795780 -0.297345
H45   H     H_    0.941870 0.785914 0.816994 0.246346
H46   H     H_    0.944055 0.833759 0.783721 0.214961
C165  C     C_3   0.835596 0.810673 0.799438 -0.954140
H47   H     H_    0.807631 0.813537 0.778589 0.263585
H48   H     H_    0.831489 0.864765 0.809907 0.275107
H49   H     H_    0.807594 0.769711 0.812817 0.256452
O72   O     O_3   0.687176 0.070220 0.778832 -0.566958
C166  C     C_3   0.691721 0.147095 0.777678 0.107740
H50   H     H_    0.645029 0.172183 0.789219 0.140630
H51   H     H_    0.691435 0.166964 0.755412 0.155827
C167  C     C_3   0.763010 0.171423 0.791694 -0.308812
H52   H     H_    0.763291 0.154092 0.814219 0.252351
H53   H     H_    0.809826 0.144868 0.780871 0.215142
C168  C     C_3   0.772388 0.254045 0.790246 -0.912566
H54   H     H_    0.772230 0.272586 0.767884 0.239072
H55   H     H_    0.825261 0.269716 0.800095 0.295082
H56   H     H_    0.727536 0.281707 0.801833 0.260646
O73   O     O_3   0.691819 0.056183 0.721402 -0.576708
C169  C     C_3   0.727005 0.989898 0.714079 0.117059
H57   H     H_    0.753929 0.998289 0.693311 0.180411
H58   H     H_    0.688938 0.942849 0.711171 0.104985
C170  C     C_3   0.785580 0.970721 0.736031 -0.355780
H59   H     H_    0.821751 0.018572 0.739534 0.236255
H60   H     H_    0.759167 0.956554 0.756416 0.243098
C171  C     C_3   0.831757 0.906146 0.726281 -0.933813
H61   H     H_    0.797099 0.856868 0.723670 0.260406
H62   H     H_    0.874632 0.894547 0.742299 0.267984
H63   H     H_    0.858839 0.918730 0.705872 0.262771
O74   O     O_3   0.015343 0.699132 0.720835 -0.558072
C172  C     C_3   0.087315 0.726529 0.722649 0.115547
H64   H     H_    0.127365 0.685878 0.714428 0.132170
H65   H     H_    0.101514 0.740506 0.744924 0.165188
C173  C     C_3   0.092649 0.795702 0.704825 -0.336838
H66   H     H_    0.078343 0.782753 0.682497 0.257426
H67   H     H_    0.053147 0.836814 0.712853 0.220866
C174  C     C_3   0.169402 0.827935 0.705864 -0.865278
H68   H     H_    0.184087 0.842948 0.727911 0.260686
H69   H     H_    0.171448 0.877749 0.692585 0.270436
H70   H     H_    0.209852 0.788084 0.697663 0.267153
O75   O     O_3   0.308528 0.943543 0.720781 -0.576374
C175  C     C_3   0.273287 0.009853 0.713542 0.117113
H71   H     H_    0.245625 0.001302 0.692844 0.180328
H72   H     H_    0.311439 0.056708 0.710518 0.105452
C176  C     C_3   0.215524 0.029522 0.735633 -0.355901
H73   H     H_    0.179286 0.981858 0.739236 0.236825
H74   H     H_    0.242666 0.043840 0.755950 0.242520
C177  C     C_3   0.169270 0.094161 0.725982 -0.933703
H75   H     H_    0.204012 0.143305 0.723325 0.260505
H76   H     H_    0.126899 0.106027 0.742078 0.268059
H77   H     H_    0.141548 0.081495 0.705618 0.262845
O76   O     O_3   0.983538 0.301501 0.720545 -0.557572
C178  C     C_3   0.911528 0.274218 0.722178 0.115663
H78   H     H_    0.871665 0.314570 0.713573 0.132752
H79   H     H_    0.896982 0.261216 0.744452 0.164353
C179  C     C_3   0.906334 0.204269 0.704690 -0.337887
H80   H     H_    0.920710 0.216250 0.682344 0.256513
H81   H     H_    0.945842 0.163557 0.713055 0.221129
C180  C     C_3   0.829605 0.172005 0.705660 -0.863734
H82   H     H_    0.814822 0.158029 0.727743 0.261122
H83   H     H_    0.827669 0.121569 0.692653 0.270157
H84   H     H_    0.789159 0.211421 0.697102 0.267377
O77   O     O_3   0.584613 0.816021 0.277220 -0.563904
C181  C     C_3   0.658751 0.834588 0.282240 0.121808
H85   H     H_    0.676712 0.804889 0.301488 0.180210
H86   H     H_    0.667180 0.893726 0.286908 0.104145
C182  C     C_3   0.706983 0.810900 0.257384 -0.338074
H87   H     H_    0.696866 0.752449 0.252483 0.241295
H88   H     H_    0.693393 0.843802 0.238384 0.240124
C183  C     C_3   0.787795 0.821582 0.264096 -0.982403
H89   H     H_    0.799171 0.879879 0.268757 0.267826
H90   H     H_    0.821074 0.804669 0.245611 0.266822
H91   H     H_    0.803987 0.787925 0.282571 0.262252
O78   O     O_3   0.921779 0.315850 0.277406 -0.568189
C184  C     C_3   0.980587 0.266334 0.279755 0.118843
H92   H     H_    0.026152 0.290753 0.292302 0.132974
H93   H     H_    0.001248 0.250456 0.258468 0.158711
C185  C     C_3   0.953715 0.197818 0.294858 -0.298614
H94   H     H_    0.932232 0.212958 0.316044 0.247664
H95   H     H_    0.908582 0.172812 0.282395 0.219785
C186  C     C_3   0.014732 0.141951 0.298516 -0.954331
H96   H     H_    0.036611 0.125403 0.277576 0.268675
H97   H     H_    0.993018 0.092787 0.309280 0.259842
H98   H     H_    0.059479 0.165118 0.311654 0.259377
O79   O     O_3   0.404817 0.172721 0.278279 -0.571151
C187  C     C_3   0.332580 0.152669 0.285720 0.109019
H99   H     H_    0.319872 0.179135 0.306285 0.179275
H100  H     H_    0.325194 0.092833 0.289074 0.106400
C188  C     C_3   0.278051 0.180174 0.263541 -0.325008
H101  H     H_    0.283975 0.240181 0.261185 0.235047
H102  H     H_    0.289355 0.154008 0.242815 0.253026
C189  C     C_3   0.199687 0.162455 0.271920 -0.962458
H103  H     H_    0.191631 0.102481 0.272791 0.267727
H104  H     H_    0.161365 0.185543 0.256036 0.269304
H105  H     H_    0.186907 0.186314 0.292908 0.259026
O80   O     O_3   0.055599 0.691563 0.281797 -0.561701
C190  C     C_3   0.996392 0.740909 0.282413 0.116835
H106  H     H_    0.948539 0.716005 0.293277 0.129464
H107  H     H_    0.980162 0.757255 0.260574 0.154715
C191  C     C_3   0.019726 0.809140 0.298719 -0.296648
H108  H     H_    0.036149 0.793636 0.320560 0.243986
H109  H     H_    0.067603 0.834224 0.288100 0.219063
C192  C     C_3   0.958178 0.865098 0.300256 -0.958872
H110  H     H_    0.941540 0.882158 0.278640 0.268106
H111  H     H_    0.977240 0.913980 0.312052 0.261189
H112  H     H_    0.910357 0.841829 0.311458 0.259090
O81   O     O_3   0.606369 0.919841 0.855443 -0.549573
C193  C     C_3   0.578418 0.856818 0.841874 0.051273
H113  H     H_    0.531115 0.869022 0.828005 0.152273
H114  H     H_    0.560452 0.815890 0.857709 0.103705
C194  C     C_3   0.638584 0.823735 0.823573 -0.302204
H115  H     H_    0.660635 0.866240 0.809186 0.243074
H116  H     H_    0.683695 0.804179 0.837400 0.214645
C195  C     C_3   0.609986 0.760349 0.805774 -0.955779
H117  H     H_    0.587404 0.717118 0.819642 0.259242
H118  H     H_    0.655304 0.737036 0.793095 0.266959
H119  H     H_    0.566654 0.779525 0.791056 0.257215
O82   O     O_3   0.131124 0.519843 0.854912 -0.548910
C196  C     C_3   0.154637 0.459001 0.838894 0.082765
H120  H     H_    0.136275 0.465472 0.816638 0.145179
H121  H     H_    0.133862 0.405897 0.847141 0.123748
C197  C     C_3   0.238031 0.457393 0.838893 -0.317488
H122  H     H_    0.258951 0.507984 0.828848 0.229535
H123  H     H_    0.258701 0.455521 0.861010 0.226213
C198  C     C_3   0.267037 0.391425 0.822771 -0.968602
H124  H     H_    0.250618 0.340303 0.833569 0.258397
H125  H     H_    0.327551 0.393894 0.822115 0.266487
H126  H     H_    0.245804 0.391002 0.800722 0.255741
O83   O     O_3   0.393628 0.079377 0.855206 -0.549176
C199  C     C_3   0.421430 0.142453 0.841807 0.052172
H127  H     H_    0.467771 0.129996 0.827597 0.152055
H128  H     H_    0.440692 0.182877 0.857727 0.103657
C200  C     C_3   0.360601 0.176491 0.823997 -0.303167
H129  H     H_    0.337612 0.134575 0.809445 0.242982
H130  H     H_    0.316258 0.195880 0.838142 0.214539
C201  C     C_3   0.388741 0.240265 0.806471 -0.955818
H131  H     H_    0.411818 0.283122 0.820519 0.259325
H132  H     H_    0.343060 0.263946 0.794011 0.267123
H133  H     H_    0.431566 0.221399 0.791556 0.257339
O84   O     O_3   0.867645 0.480995 0.854717 -0.549071
C202  C     C_3   0.844106 0.541945 0.838800 0.082889
H134  H     H_    0.862368 0.535598 0.816565 0.145349
H135  H     H_    0.864940 0.594982 0.847224 0.124008
C203  C     C_3   0.760714 0.543608 0.838637 -0.318059
H136  H     H_    0.739718 0.493059 0.828449 0.229500
H137  H     H_    0.740143 0.545431 0.860717 0.226046
C204  C     C_3   0.731680 0.609639 0.822586 -0.967847
H138  H     H_    0.748143 0.660722 0.833525 0.258313
H139  H     H_    0.671167 0.607174 0.821793 0.266293
H140  H     H_    0.752844 0.610130 0.800584 0.255733
O85   O     O_3   0.611710 0.040324 0.147610 -0.607263
C205  C     C_3   0.666383 0.985859 0.148007 0.110011
H141  H     H_    0.705906 0.996426 0.130689 0.173219
H142  H     H_    0.644243 0.929549 0.145221 0.170607
C206  C     C_3   0.706497 0.989503 0.176418 -0.335903
H143  H     H_    0.735824 0.042395 0.178168 0.215844
H144  H     H_    0.666255 0.986371 0.193930 0.231062
C207  C     C_3   0.760995 0.927093 0.179638 -0.914768
H145  H     H_    0.732037 0.873899 0.179094 0.276628
H146  H     H_    0.789783 0.932085 0.200269 0.259816
H147  H     H_    0.801973 0.928729 0.162381 0.258127
O86   O     O_3   0.125748 0.457301 0.145357 -0.553586
C208  C     C_3   0.163896 0.509280 0.161890 0.079284
H148  H     H_    0.145241 0.505326 0.184140 0.151473
H149  H     H_    0.156578 0.566422 0.154271 0.137437
C209  C     C_3   0.245299 0.490910 0.161568 -0.315501
H150  H     H_    0.253618 0.435052 0.170092 0.238680
H151  H     H_    0.265843 0.491935 0.139490 0.224641
C210  C     C_3   0.289223 0.544911 0.179388 -0.965635
H152  H     H_    0.282645 0.601093 0.171021 0.261775
H153  H     H_    0.347929 0.530034 0.178639 0.270909
H154  H     H_    0.270948 0.543481 0.201767 0.256415
O87   O     O_3   0.362901 0.953779 0.141928 -0.553551
C211  C     C_3   0.366043 0.882984 0.153837 0.085135
H155  H     H_    0.377478 0.887537 0.176855 0.139406
H156  H     H_    0.409477 0.847843 0.144354 0.139662
C212  C     C_3   0.291592 0.845805 0.150259 -0.321637
H157  H     H_    0.254503 0.864137 0.167429 0.212795
H158  H     H_    0.266341 0.861773 0.129799 0.246210
C213  C     C_3   0.298358 0.762838 0.150938 -0.963186
H159  H     H_    0.328148 0.743178 0.131965 0.254432
H160  H     H_    0.243198 0.737745 0.150995 0.263494
H161  H     H_    0.328501 0.745311 0.170119 0.261687
O88   O     O_3   0.877030 0.545191 0.146564 -0.601723
C214  C     C_3   0.866047 0.621451 0.146162 0.096637
H162  H     H_    0.836619 0.636918 0.126444 0.177521
H163  H     H_    0.918321 0.652623 0.147313 0.169829
C215  C     C_3   0.819593 0.642627 0.171708 -0.333075
H164  H     H_    0.766274 0.613803 0.170557 0.221572
H165  H     H_    0.848033 0.625494 0.191434 0.227818
C216  C     C_3   0.806009 0.724681 0.172903 -0.921328
H166  H     H_    0.858555 0.754577 0.174768 0.270857
H167  H     H_    0.772013 0.737838 0.191651 0.262457
H168  H     H_    0.776711 0.743018 0.153567 0.258535
O89   O     O_3   0.124230 0.486283 0.354564 -0.542755
C217  C     C_3   0.129838 0.420967 0.338690 0.073559
H169  H     H_    0.110567 0.430958 0.316758 0.149794
H170  H     H_    0.097916 0.374933 0.347926 0.120044
C218  C     C_3   0.210047 0.398460 0.337055 -0.307689
H171  H     H_    0.241995 0.442703 0.326875 0.236426
H172  H     H_    0.231972 0.389935 0.358727 0.223618
C219  C     C_3   0.219391 0.328290 0.320045 -0.956749
H173  H     H_    0.189816 0.282819 0.330441 0.249500
H174  H     H_    0.278214 0.314000 0.318865 0.273005
H175  H     H_    0.198067 0.335433 0.298189 0.260020
O90   O     O_3   0.611661 0.068752 0.354598 -0.545228
C220  C     C_3   0.655629 0.023956 0.337130 0.072589
H176  H     H_    0.632814 0.023441 0.315375 0.152834
H177  H     H_    0.660158 0.966837 0.345095 0.121382
C221  C     C_3   0.732227 0.056792 0.335162 -0.315634
H178  H     H_    0.728422 0.112947 0.326458 0.240744
H179  H     H_    0.757240 0.060291 0.356552 0.220615
C222  C     C_3   0.781465 0.011088 0.316052 -0.959497
H180  H     H_    0.786890 0.954824 0.324482 0.257625
H181  H     H_    0.836584 0.036177 0.315097 0.266473
H182  H     H_    0.758574 0.008612 0.294272 0.254832
O91   O     O_3   0.858154 0.511553 0.357752 -0.542050
C223  C     C_3   0.850630 0.575504 0.341239 0.077707
H183  H     H_    0.864869 0.562914 0.318956 0.153284
H184  H     H_    0.885395 0.621568 0.348910 0.123047
C224  C     C_3   0.770889 0.599949 0.341616 -0.309049
H185  H     H_    0.735560 0.554674 0.333976 0.241032
H186  H     H_    0.754660 0.613722 0.363586 0.220227
C225  C     C_3   0.758849 0.666512 0.322840 -0.954286
H187  H     H_    0.792439 0.713065 0.330456 0.248400
H188  H     H_    0.700425 0.682516 0.323510 0.275935
H189  H     H_    0.773576 0.653796 0.300585 0.258328
O92   O     O_3   0.387923 0.921958 0.355389 -0.544633
C226  C     C_3   0.342444 0.964647 0.337673 0.071427
H190  H     H_    0.364437 0.964103 0.315850 0.152199
H191  H     H_    0.337082 0.022227 0.345115 0.117108
C227  C     C_3   0.266511 0.930072 0.336267 -0.311740
H192  H     H_    0.271197 0.873385 0.328087 0.241379
H193  H     H_    0.242400 0.927630 0.357767 0.221275
C228  C     C_3   0.215600 0.973266 0.316895 -0.959185
H194  H     H_    0.209344 0.030014 0.324802 0.257133
H195  H     H_    0.160994 0.946972 0.316376 0.265945
H196  H     H_    0.237604 0.974537 0.295025 0.256102
O93   O     O_3   0.103457 0.416449 0.644172 -0.535987
C229  C     C_3   0.156855 0.460554 0.657508 0.087995
H197  H     H_    0.138101 0.476241 0.678988 0.148229
H198  H     H_    0.169352 0.511180 0.645370 0.109687
C230  C     C_3   0.226908 0.416153 0.660636 -0.322728
H199  H     H_    0.215012 0.366251 0.673083 0.231859
H200  H     H_    0.246580 0.399357 0.639372 0.224883
C231  C     C_3   0.286638 0.459724 0.675590 -0.941735
H201  H     H_    0.300128 0.509416 0.663266 0.263019
H202  H     H_    0.336576 0.425730 0.677540 0.260564
H203  H     H_    0.268576 0.475838 0.697131 0.257035
O94   O     O_3   0.518819 0.867481 0.643851 -0.545396
C232  C     C_3   0.581868 0.864436 0.661230 0.077038
H204  H     H_    0.566993 0.880257 0.683124 0.152568
H205  H     H_    0.627020 0.900241 0.653608 0.120981
C233  C     C_3   0.609712 0.785985 0.662409 -0.323141
H206  H     H_    0.565078 0.749566 0.669695 0.235462
H207  H     H_    0.626752 0.768054 0.640963 0.218463
C234  C     C_3   0.674376 0.779145 0.682697 -0.954421
H208  H     H_    0.721017 0.812471 0.675133 0.262861
H209  H     H_    0.691669 0.721312 0.683906 0.264000
H210  H     H_    0.658796 0.797480 0.704270 0.253165
O95   O     O_3   0.896335 0.584159 0.643924 -0.536043
C235  C     C_3   0.842912 0.540162 0.657091 0.087601
H211  H     H_    0.861515 0.524896 0.678661 0.148439
H212  H     H_    0.830622 0.489292 0.644963 0.109682
C236  C     C_3   0.772742 0.584473 0.659896 -0.322711
H213  H     H_    0.784464 0.634676 0.672291 0.232145
H214  H     H_    0.753148 0.600761 0.638536 0.224512
C237  C     C_3   0.713024 0.541102 0.674721 -0.941773
H215  H     H_    0.699730 0.491095 0.662444 0.263069
H216  H     H_    0.662993 0.575020 0.676427 0.260616
H217  H     H_    0.730989 0.525529 0.696356 0.256987
O96   O     O_3   0.481695 0.132604 0.644016 -0.545419
C238  C     C_3   0.418528 0.135667 0.661169 0.076954
H218  H     H_    0.433242 0.119838 0.683094 0.152516
H219  H     H_    0.373421 0.099868 0.653327 0.121175
C239  C     C_3   0.390692 0.214125 0.662359 -0.323431
H220  H     H_    0.435243 0.250523 0.669910 0.235353
H221  H     H_    0.373928 0.232091 0.640869 0.218551
C240  C     C_3   0.325770 0.220965 0.682361 -0.953862
H222  H     H_    0.279266 0.187546 0.674559 0.262931
H223  H     H_    0.308380 0.278782 0.683537 0.263925
H224  H     H_    0.341112 0.202740 0.703986 0.253129
O97   O     O_3   0.609607 0.927709 0.914659 -0.542335
C241  C     C_3   0.606430 0.850736 0.913614 0.127268
H225  H     H_    0.639876 0.830775 0.895669 0.173104
H226  H     H_    0.549572 0.829274 0.911662 0.112554
C242  C     C_3   0.639791 0.819697 0.940546 -0.782339
H227  H     H_    0.606175 0.835051 0.959097 0.268728
H228  H     H_    0.641966 0.759279 0.939106 0.183456
H229  H     H_    0.696105 0.840915 0.943528 0.254095
O98   O     O_3   0.132808 0.505194 0.912297 -0.511549
C243  C     C_3   0.159368 0.433320 0.915797 0.129326
H230  H     H_    0.169959 0.406912 0.895061 0.120398
H231  H     H_    0.120058 0.398909 0.927779 0.133688
C244  C     C_3   0.230838 0.435723 0.932232 -0.763639
H232  H     H_    0.221865 0.460504 0.953400 0.251432
H233  H     H_    0.252323 0.379545 0.935017 0.186254
H234  H     H_    0.271706 0.468581 0.920530 0.240786
O99   O     O_3   0.390354 0.071911 0.914380 -0.542387
C245  C     C_3   0.393783 0.148877 0.913511 0.125069
H235  H     H_    0.360772 0.169020 0.895421 0.172761
H236  H     H_    0.450747 0.170158 0.911924 0.113264
C246  C     C_3   0.359981 0.179924 0.940318 -0.778998
H237  H     H_    0.393115 0.164310 0.959030 0.268834
H238  H     H_    0.358115 0.240359 0.939010 0.183787
H239  H     H_    0.303509 0.158950 0.942915 0.254086
O100  O     O_3   0.866601 0.495028 0.912161 -0.511718
C247  C     C_3   0.840024 0.566857 0.915813 0.129714
H240  H     H_    0.829190 0.593387 0.895131 0.120469
H241  H     H_    0.879439 0.601216 0.927924 0.133841
C248  C     C_3   0.768730 0.564298 0.932166 -0.764520
H242  H     H_    0.777945 0.539382 0.953281 0.251355
H243  H     H_    0.747238 0.620443 0.935073 0.185730
H244  H     H_    0.727760 0.531490 0.920337 0.241067
O101  O     O_3   0.618010 0.045060 0.088075 -0.576551
C249  C     C_3   0.621100 0.121971 0.088649 0.112654
H245  H     H_    0.628774 0.142402 0.110643 0.179038
H246  H     H_    0.570608 0.146553 0.079517 0.152552
C250  C     C_3   0.685741 0.147132 0.071078 -0.786571
H247  H     H_    0.679285 0.128362 0.048853 0.259258
H248  H     H_    0.688963 0.207596 0.071367 0.195577
H249  H     H_    0.737210 0.124452 0.079912 0.250574
O102  O     O_3   0.129644 0.470106 0.087812 -0.509946
C251  C     C_3   0.173994 0.532752 0.084863 0.125616
H250  H     H_    0.190657 0.554951 0.105770 0.119908
H251  H     H_    0.145101 0.576568 0.072967 0.133489
C252  C     C_3   0.242666 0.512464 0.068671 -0.760126
H252  H     H_    0.227923 0.491461 0.047345 0.250443
H253  H     H_    0.277970 0.561266 0.066258 0.183365
H254  H     H_    0.273466 0.469817 0.080344 0.245920
O103  O     O_3   0.369688 0.956381 0.083294 -0.536848
C253  C     C_3   0.365921 0.880470 0.078192 0.085965
H255  H     H_    0.370260 0.848338 0.097931 0.134486
H256  H     H_    0.410117 0.862334 0.063845 0.160291
C254  C     C_3   0.293123 0.862410 0.064280 -0.758334
H257  H     H_    0.288858 0.890032 0.043488 0.251185
H258  H     H_    0.288703 0.802605 0.060962 0.189018
H259  H     H_    0.247420 0.880723 0.077935 0.251889
O104  O     O_3   0.872714 0.537886 0.087558 -0.553150
C255  C     C_3   0.826764 0.476049 0.088572 0.148048
H260  H     H_    0.808770 0.464867 0.110603 0.172769
H261  H     H_    0.854779 0.426769 0.080004 0.138915
C256  C     C_3   0.759196 0.490245 0.070630 -0.791650
H262  H     H_    0.775168 0.500568 0.048343 0.253963
H263  H     H_    0.722547 0.442049 0.071274 0.191493
H264  H     H_    0.729325 0.538455 0.078905 0.244162
O105  O     O_3   0.127678 0.484210 0.412645 -0.533467
C257  C     C_3   0.145707 0.409986 0.416600 0.081542
H265  H     H_    0.138414 0.377211 0.396952 0.127664
H266  H     H_    0.111473 0.385848 0.433522 0.157153
C258  C     C_3   0.225318 0.404169 0.425543 -0.746282
H267  H     H_    0.234287 0.434178 0.445637 0.252489
H268  H     H_    0.240174 0.346038 0.428707 0.189943
H269  H     H_    0.261039 0.427739 0.408977 0.254243
O106  O     O_3   0.616380 0.061048 0.412449 -0.516444
C259  C     C_3   0.675455 0.011583 0.414323 0.129969
H270  H     H_    0.697667 0.998577 0.393126 0.127836
H271  H     H_    0.658947 0.959534 0.424593 0.136002
C260  C     C_3   0.736145 0.045837 0.431891 -0.753857
H272  H     H_    0.715981 0.058362 0.453501 0.254150
H273  H     H_    0.782887 0.007477 0.433517 0.182859
H274  H     H_    0.755049 0.097012 0.421743 0.252156
O107  O     O_3   0.865586 0.516830 0.415777 -0.535521
C261  C     C_3   0.849381 0.591737 0.419154 0.088049
H275  H     H_    0.856362 0.623241 0.399233 0.125690
H276  H     H_    0.885116 0.616099 0.435685 0.158713
C262  C     C_3   0.770402 0.600103 0.428428 -0.750294
H277  H     H_    0.762213 0.573423 0.449168 0.251132
H278  H     H_    0.756563 0.658837 0.430442 0.189296
H279  H     H_    0.733312 0.574559 0.412647 0.256387
O108  O     O_3   0.383367 0.935254 0.413068 -0.516914
C263  C     C_3   0.324122 0.984605 0.414453 0.129541
H280  H     H_    0.301335 0.995692 0.393146 0.127165
H281  H     H_    0.340626 0.037581 0.424114 0.136267
C264  C     C_3   0.264016 0.951588 0.432460 -0.753975
H282  H     H_    0.284759 0.940981 0.454178 0.254206
H283  H     H_    0.217140 0.989863 0.433706 0.182850
H284  H     H_    0.245098 0.899497 0.422908 0.251823
O109  O     O_3   0.100081 0.413326 0.586290 -0.517272
C265  C     C_3   0.162907 0.453697 0.578986 0.110368
H285  H     H_    0.188030 0.480267 0.597807 0.127456
H286  H     H_    0.149480 0.496301 0.563079 0.116929
C266  C     C_3   0.219263 0.402383 0.566273 -0.763357
H287  H     H_    0.196722 0.375873 0.546987 0.254820
H288  H     H_    0.269033 0.433444 0.560481 0.206086
H289  H     H_    0.234395 0.359708 0.581876 0.242789
O110  O     O_3   0.522906 0.870101 0.585853 -0.538018
C267  C     C_3   0.598304 0.855634 0.582864 0.097064
H290  H     H_    0.628891 0.862638 0.603080 0.130273
H291  H     H_    0.622513 0.892351 0.566754 0.157894
C268  C     C_3   0.608575 0.777228 0.573105 -0.762587
H292  H     H_    0.581102 0.768694 0.552415 0.250951
H293  H     H_    0.667672 0.765177 0.570755 0.192685
H294  H     H_    0.584948 0.739195 0.588871 0.252333
O111  O     O_3   0.900056 0.587202 0.586060 -0.517331
C269  C     C_3   0.837008 0.547031 0.578656 0.111326
H295  H     H_    0.812045 0.520482 0.597405 0.127349
H296  H     H_    0.850127 0.504412 0.562688 0.116437
C270  C     C_3   0.780628 0.598541 0.566009 -0.764324
H297  H     H_    0.802925 0.624919 0.546753 0.254508
H298  H     H_    0.730623 0.567671 0.560189 0.206142
H299  H     H_    0.765952 0.641311 0.581665 0.242946
O112  O     O_3   0.477920 0.130045 0.585993 -0.538075
C271  C     C_3   0.402569 0.144707 0.582796 0.096794
H300  H     H_    0.371904 0.137775 0.602904 0.130347
H301  H     H_    0.378303 0.108065 0.566555 0.158106
C272  C     C_3   0.392544 0.223137 0.573122 -0.762195
H302  H     H_    0.420149 0.231600 0.552539 0.251067
H303  H     H_    0.333489 0.235339 0.570592 0.192725
H304  H     H_    0.416189 0.261111 0.589027 0.252267

loop_
_geom_bond_atom_site_label_1
_geom_bond_atom_site_label_2
_ccdc_geom_bond_type
C224  C225  S    
O83   C199  S    
C152  H18   S    
C34   O106  S    
O108  C263  S    
C33   C45   A    
C242  H227  S    
C162  H40   S    
C120  C144  A    
C188  C189  S    
C257  C258  S    
C264  H282  S    
C75   O21   A    
O98   C243  S    
C255  H260  S    
C142  O78   S    
C164  H46   S    
C89   O49   S    
C197  H122  S    
C112  C124  A    
Cu11  O43   S    
O73   C169  S    
C103  O63   S    
C22   C38   A    
C119  C143  A    
C149  H10   S    
Cu8   O36   S    
C249  C250  S    
C92   N2    A    
C157  H29   S    
C93   N3    A    
C269  H295  S    
C5    O15   A    
C91   O51   S    
C181  H86   S    
C271  C272  S    
C244  H233  S    
C13   C51   A    
C233  C234  S    
C14   C52   A    
C198  H124  S    
C185  H95   S    
C209  H150  S    
C261  C262  S    
C95   O55   S    
C194  H116  S    
C211  C212  S    
C49   N4    S    
C241  H225  S    
C15   C51   A    
C97   C115  A    
C157  H30   S    
Cu5   O39   S    
C76   O24   A    
C185  C186  S    
C256  H264  S    
C72   C88   S    
C23   C55   A    
C259  H270  S    
C88   O46   A    
C263  H281  S    
C103  C117  A    
Cu7   O37   S    
C183  H89   S    
C260  H273  S    
Cu1   Cu2   S    
C198  H126  S    
C217  H170  S    
Cu1   O2    S    
C43   C75   S    
C80   O32   A    
C258  H269  S    
C167  H53   S    
C26   O98   S    
C23   O95   S    
C109  C133  A    
C236  H213  S    
C161  C162  S    
C18   O90   S    
C186  H96   S    
C175  H71   S    
C121  C128  A    
C20   C54   A    
C95   C109  A    
C184  C185  S    
C25   C41   A    
C174  H69   S    
Cu3   O12   S    
C3    O5    A    
C123  C126  A    
C189  H104  S    
C6    O10   A    
C255  C256  S    
O111  C269  S    
C1    O7    A    
Cu4   O13   S    
C4    O4    A    
C187  H100  S    
C269  C270  S    
C6    C63   S    
C206  C207  S    
O97   C241  S    
C239  H220  S    
C11   C49   A    
C66   C82   S    
C218  C219  S    
C73   O17   A    
C8    O16   A    
C11   C27   A    
C240  H224  S    
C241  C242  S    
C120  C128  A    
O72   C166  S    
C100  C114  A    
C143  O79   S    
C211  H155  S    
C262  H279  S    
C89   N1    A    
C254  H257  S    
C184  H92   S    
C36   O108  S    
C92   C106  A    
C163  H43   S    
C210  H153  S    
C63   C71   T    
Cu4   O15   S    
C156  H27   S    
O104  C255  S    
C242  H229  S    
C193  H114  S    
O79   C187  S    
C35   C45   A    
C37   O109  S    
C90   O50   S    
C264  H284  S    
O90   C220  S    
C39   C47   A    
C150  H14   S    
C40   C48   A    
C21   O93   S    
O70   C160  S    
C271  H301  S    
C169  C170  S    
C197  C198  S    
C12   O84   S    
C225  H188  S    
C175  H72   S    
C223  H183  S    
C168  H56   S    
C245  C246  S    
C85   O45   A    
C104  N8    A    
C105  C129  A    
C82   O34   A    
C24   C56   A    
C250  H247  S    
C149  C150  S    
C231  H201  S    
C159  H33   S    
Cu10  O46   S    
C13   O85   S    
O107  C261  S    
O82   C196  S    
C171  H63   S    
C254  H258  S    
C245  H236  S    
C204  H138  S    
Cu12  O44   S    
C180  H82   S    
O80   C190  S    
C174  H68   S    
C33   O105  S    
C214  C215  S    
C90   N2    A    
C160  H37   S    
C170  H59   S    
C173  H67   S    
C19   C35   A    
C218  H172  S    
C246  H237  S    
O102  C251  S    
C183  H91   S    
C17   O89   S    
C151  H15   S    
C252  H253  S    
Cu1   O4    S    
C226  C227  S    
C205  H142  S    
C67   C83   S    
O109  C265  S    
C223  H184  S    
C91   C105  A    
Cu3   Cu4   S    
C175  C176  S    
C259  H271  S    
C192  H110  S    
C168  H54   S    
Cu3   O10   S    
C85   O41   A    
C200  H130  S    
C129  C144  A    
Cu9   O25   S    
C208  H148  S    
O78   C184  S    
O95   C235  S    
C7    O13   A    
C165  H47   S    
C31   C43   A    
C95   N3    A    
C101  O61   S    
C195  H117  S    
C162  H41   S    
C227  H192  S    
Cu5   Cu7   S    
C114  C126  A    
C243  H231  S    
C270  H298  S    
C205  C206  S    
C74   O20   A    
C181  H85   S    
C20   O92   S    
C79   O31   A    
C147  H5    S    
C215  C216  S    
C93   O53   S    
C148  H8    S    
C122  C127  A    
C44   C76   S    
C135  O71   S    
C253  H255  S    
C254  H259  S    
C169  H58   S    
C59   C67   T    
C251  H250  S    
C235  C236  S    
C31   O103  S    
C200  H129  S    
C219  H174  S    
C207  H145  S    
C272  H303  S    
C138  O74   S    
C36   C46   A    
C34   C46   A    
C54   N7    S    
C37   C47   A    
C146  H3    S    
C38   C48   A    
C263  C264  S    
C110  C124  A    
C268  H294  S    
C233  H207  S    
C222  H182  S    
C260  H272  S    
C158  H31   S    
C265  H286  S    
C266  H288  S    
C215  H164  S    
C112  C136  A    
C223  C224  S    
C137  O73   S    
C196  H121  S    
O65   C145  S    
C131  O67   S    
C267  H291  S    
C32   C44   A    
C250  H249  S    
C99   O59   S    
C220  H177  S    
C133  O69   S    
C29   O101  S    
C231  H203  S    
C9    C49   A    
C173  H66   S    
C182  C183  S    
C134  C139  A    
C106  C130  A    
C171  H61   S    
C186  H98   S    
C257  H266  S    
C228  H194  S    
C134  O70   S    
C236  H214  S    
C253  C254  S    
C161  H39   S    
C204  H140  S    
C11   O83   S    
C230  H199  S    
C136  O72   S    
C18   C34   A    
C177  H76   S    
C214  H162  S    
C159  H34   S    
C170  C171  S    
C16   O88   S    
C106  C122  A    
C194  C195  S    
C249  H246  S    
C216  H167  S    
C9    O81   S    
C155  H25   S    
C151  C152  S    
Cu9   O41   S    
C207  H146  S    
C2    C59   S    
C268  H292  S    
C97   N5    A    
C176  H74   S    
C261  H276  S    
C110  C134  A    
Cu9   Cu11  S    
O91   C223  S    
C192  H112  S    
C69   C85   S    
C199  H127  S    
C26   C42   A    
C177  H77   S    
C141  O77   S    
C208  C209  S    
C132  C141  A    
C224  H186  S    
C237  H215  S    
C238  C239  S    
C94   N4    A    
C4    O8    A    
C239  C240  S    
C139  O75   S    
C156  H28   S    
C87   O47   A    
C195  H119  S    
C136  C137  A    
C188  H102  S    
C155  C156  S    
Cu6   O22   S    
C12   C50   A    
C8    O12   A    
Cu7   O19   S    
O68   C154  S    
C74   O18   A    
C16   C32   A    
C22   O94   S    
C79   O29   A    
C147  H7    S    
C148  C149  S    
C77   O25   A    
C197  H123  S    
C153  H19   S    
C194  H115  S    
C90   C108  A    
C165  H48   S    
O103  C253  S    
C207  H147  S    
C98   O58   S    
C235  H212  S    
O66   C148  S    
C266  H289  S    
C149  H11   S    
C191  H109  S    
C114  C138  A    
C213  H159  S    
C234  H210  S    
C269  H296  S    
C108  C132  A    
C225  H187  S    
C41   C73   S    
C209  H151  S    
C179  H80   S    
Cu2   O5    S    
C247  H240  S    
C45   C77   S    
C203  H136  S    
C156  H26   S    
C203  H137  S    
C181  C182  S    
C29   C43   A    
C222  H180  S    
C221  H178  S    
C256  H263  S    
C237  H217  S    
C119  C127  A    
O101  C249  S    
C154  C155  S    
C157  C158  S    
C173  C174  S    
Cu8   O24   S    
C248  H244  S    
C183  H90   S    
C201  H131  S    
C140  O76   S    
C9    C25   A    
C154  H22   S    
C198  H125  S    
Cu1   O1    S    
C258  H268  S    
C229  H197  S    
O100  C247  S    
C12   C28   A    
C13   C29   A    
Cu12  O32   S    
C88   O44   A    
C230  C231  S    
C184  H93   S    
C81   O33   A    
C190  C191  S    
Cu3   O11   S    
C61   C69   T    
C10   O82   S    
C102  O62   S    
C172  H64   S    
C206  H144  S    
O84   C202  S    
C239  H221  S    
C98   N6    A    
C99   N5    A    
C178  H78   S    
C240  H223  S    
Cu4   O14   S    
C104  O64   S    
C227  C228  S    
C262  H278  S    
C2    O2    A    
Cu10  Cu12  S    
C199  C200  S    
C3    C60   S    
C163  H44   S    
Cu10  O26   S    
C152  C153  S    
C238  H218  S    
Cu4   O16   S    
C202  H134  S    
O89   C217  S    
C6    O14   A    
Cu5   O17   S    
C242  H228  S    
C259  C260  S    
C30   C44   A    
C17   C33   A    
C215  H165  S    
C264  H283  S    
C248  H242  S    
C104  C118  A    
O76   C178  S    
C150  H13   S    
C178  C179  S    
C42   C74   S    
C3    O3    A    
C166  H50   S    
C77   O27   A    
C78   O28   A    
O67   C151  S    
C108  C122  A    
O71   C163  S    
C46   C78   S    
O74   C172  S    
C81   O37   A    
C118  C142  A    
O96   C238  S    
O99   C245  S    
C111  C123  A    
C56   N5    S    
C144  O80   S    
C100  N6    A    
C68   C84   S    
C32   O104  S    
C117  C141  A    
O87   C211  S    
C232  H204  S    
C164  C165  S    
C65   C81   S    
O75   C175  S    
Cu9   O31   S    
C101  N7    A    
C89   C107  A    
C246  H239  S    
C15   C31   A    
C272  H302  S    
C117  C127  A    
C267  C268  S    
C39   O111  S    
C93   C111  A    
C221  C222  S    
C71   C87   S    
C83   O39   A    
C214  H163  S    
Cu5   O23   S    
C255  H261  S    
C263  H280  S    
Cu6   O38   S    
C10   C50   A    
C17   C53   A    
C247  H241  S    
C260  H274  S    
C102  C120  A    
C151  H16   S    
C252  H252  S    
Cu1   O3    S    
C258  H267  S    
C52   N1    S    
C226  H191  S    
C167  H52   S    
C220  C221  S    
C245  H235  S    
C103  N7    A    
C219  H175  S    
C75   O23   A    
C16   C52   A    
C57   C65   T    
C38   O110  S    
O81   C193  S    
C99   C113  A    
C174  H70   S    
C22   C56   A    
C190  H106  S    
Cu3   O9    S    
C53   N8    S    
C189  H103  S    
C86   O48   A    
C50   N3    S    
C160  C161  S    
C51   N2    S    
C247  C248  S    
C166  C167  S    
C195  H118  S    
C145  H1    S    
C96   O56   S    
C212  C213  S    
C243  C244  S    
C111  C135  A    
C270  H297  S    
C96   C110  A    
C73   O19   A    
Cu11  O45   S    
C147  H6    S    
C92   O52   S    
O112  C271  S    
C253  H256  S    
C91   N1    A    
C168  H55   S    
C20   C36   A    
C210  H154  S    
C21   C37   A    
O86   C208  S    
C60   C68   T    
C133  C140  A    
C15   O87   S    
O88   C214  S    
C228  H196  S    
C193  H113  S    
Cu8   O40   S    
C182  H87   S    
O106  C259  S    
Cu6   O34   S    
C231  H202  S    
C167  C168  S    
Cu8   O20   S    
C135  C138  A    
C176  H73   S    
C234  H209  S    
C271  H300  S    
Cu2   O8    S    
C222  H181  S    
Cu12  O48   S    
C266  H287  S    
C78   O26   A    
C47   C79   S    
C234  H208  S    
C5    O9    A    
C187  H99   S    
C86   O42   A    
C189  H105  S    
C244  H232  S    
C158  H32   S    
C224  H185  S    
O110  C267  S    
C219  H173  S    
C250  H248  S    
C165  H49   S    
C130  O66   S    
C220  H176  S    
C160  H36   S    
C178  H79   S    
O94   C232  S    
C211  H156  S    
C232  C233  S    
C182  H88   S    
C102  N8    A    
C186  H97   S    
C113  C125  A    
C100  O60   S    
C226  H190  S    
C129  O65   S    
C94   O54   S    
C145  C146  S    
C27   O99   S    
C218  H171  S    
C94   C112  A    
C204  H139  S    
C267  H290  S    
C58   C66   T    
C40   O112  S    
C268  H293  S    
C193  C194  S    
C7    O11   A    
C4    C57   S    
C196  C197  S    
C246  H238  S    
C216  H166  S    
C227  H193  S    
C8    C61   S    
C252  H254  S    
C10   C26   A    
C64   C72   T    
C205  H141  S    
C116  C126  A    
C191  C192  S    
C206  H143  S    
C118  C128  A    
C14   C30   A    
C159  H35   S    
C192  H111  S    
C199  H128  S    
C200  C201  S    
C251  H251  S    
C208  H149  S    
C237  H216  S    
C238  H219  S    
C30   O102  S    
C101  C119  A    
Cu7   O35   S    
C162  H42   S    
C107  C131  A    
C202  C203  S    
C212  H157  S    
Cu9   O47   S    
C164  H45   S    
C209  C210  S    
C243  H230  S    
C270  H299  S    
C202  H135  S    
C163  C164  S    
C213  H161  S    
C170  H60   S    
O93   C229  S    
C28   O100  S    
C148  H9    S    
C180  H83   S    
C153  H20   S    
C169  H57   S    
Cu11  O29   S    
C146  C147  S    
C27   C41   A    
C98   C116  A    
C210  H152  S    
C1    O1    A    
C145  H2    S    
C272  H304  S    
O69   C157  S    
C172  H65   S    
C105  C121  A    
C232  H205  S    
C213  H160  S    
C130  C143  A    
C146  H4    S    
C251  C252  S    
C87   O43   A    
Cu10  O42   S    
C131  C142  A    
Cu11  O27   S    
C229  C230  S    
Cu12  O28   S    
C171  H62   S    
C233  H206  S    
C96   N4    A    
C2    O6    A    
O85   C205  S    
C179  H81   S    
Cu2   O6    S    
C19   O91   S    
C265  H285  S    
C172  C173  S    
Cu6   Cu8   S    
C158  C159  S    
C153  H21   S    
C25   O97   S    
C83   O35   A    
C152  H17   S    
C70   C86   S    
C187  C188  S    
C244  H234  S    
C76   O22   A    
C185  H94   S    
C221  H179  S    
C256  H262  S    
C196  H120  S    
C84   O38   A    
C217  H169  S    
C235  H211  S    
C21   C55   A    
O92   C226  S    
C62   C70   T    
C55   N6    S    
C115  C139  A    
Cu6   O18   S    
C225  H189  S    
C14   O86   S    
C201  H132  S    
C150  H12   S    
C257  H265  S    
C180  H84   S    
C179  C180  S    
C80   O30   A    
O77   C181  S    
C229  H198  S    
C212  H158  S    
C115  C125  A    
C241  H226  S    
C236  C237  S    
C217  C218  S    
C161  H38   S    
C48   C80   S    
C203  C204  S    
C228  H195  S    
C248  H243  S    
C166  H51   S    
Cu7   O21   S    
C154  H23   S    
C1    C58   S    
C82   O40   A    
C190  H107  S    
C19   C53   A    
C177  H75   S    
O105  C257  S    
C23   C39   A    
C28   C42   A    
C24   C40   A    
C97   O57   S    
C5    C62   S    
C132  O68   S    
C113  C137  A    
C84   O36   A    
C249  H245  S    
C216  H168  S    
C7    C64   S    
C201  H133  S    
C155  H24   S    
C18   C54   A    
Cu10  O30   S    
C230  H200  S    
C265  C266  S    
C24   O96   S    
C240  H222  S    
C176  C177  S    
C107  C121  A    
C191  H108  S    
C109  C123  A    
C35   O107  S    
C262  H277  S    
Cu2   O7    S    
C261  H275  S    
C188  H101  S    
Cu5   O33   S    
C124  C125  A    
C116  C140  A    
