data_mof_unit_5350.cif
_audit_creation_date              2012-12-11T16:33:23-0500
_audit_creation_method            fapswitch 2.2
_symmetry_space_group_name_H-M    P1
_symmetry_Int_Tables_number       1
_space_group_crystal_system       triclinic
_cell_length_a                    7.013496
_cell_length_b                    17.853853
_cell_length_c                    20.635385
_cell_angle_alpha                 68.625957
_cell_angle_beta                  90.919299
_cell_angle_gamma                 90.632938
_cell_volume                      2405.85351622

loop_
_atom_site_label
_atom_site_type_symbol
_atom_type_description
_atom_site_fract_x
_atom_site_fract_y
_atom_site_fract_z
_atom_type_partial_charge
O1    O     O_R   0.488960 0.443750 0.941980 -0.528507
O2    O     O_R   0.823890 0.406510 0.087590 -0.544139
O3    O     O_R   0.999680 0.556250 0.058020 -0.542583
C1    C     C_R   0.655979 0.381233 0.113747 0.785449
O4    O     O_R   0.818360 0.434410 0.944340 -0.517739
O5    O     O_R   0.994110 0.584350 0.913750 -0.520565
C2    C     C_R   0.648905 0.423732 0.921410 0.806519
O6    O     O_R   0.494530 0.415650 0.086250 -0.519899
O7    O     O_3   0.662590 0.549160 0.990130 -0.393697
V1    V     V_3+5 0.935320 0.490880 0.001830 1.550283
O8    O     O_R   0.324180 0.593490 0.912410 -0.564298
C3    C     C_R   0.154595 0.618517 0.886067 0.753716
O9    O     O_R   0.329720 0.565590 0.055660 -0.545547
C4    C     C_R   0.162350 0.580027 0.075796 0.725084
V2    V     V_3+5 0.435990 0.509120 0.998170 1.493507
O10   O     O_3   0.158850 0.450840 0.009870 -0.349257
C5    C     C_3   0.009325 0.716887 0.299529 0.244159
C6    C     C_3   0.192803 0.682910 0.280946 0.309438
H1    H     H_    0.442418 0.770360 0.290511 0.262642
C7    C     C_1   0.155206 0.627359 0.120219 -0.173454
C8    C     C_1   0.105898 0.879802 0.374303 0.065115
C9    C     C_3   0.951497 0.748847 0.221900 0.359926
C10   C     C_3   0.132859 0.714258 0.203469 -0.083966
C11   C     C_3   0.055114 0.829297 0.211060 -0.212942
C12   C     C_3   0.116019 0.796483 0.288499 -0.142801
C13   C     C_3   0.237497 0.794417 0.191963 -0.077498
C14   C     C_3   0.300851 0.762492 0.270088 -0.025723
C15   C     C_1   0.145742 0.666667 0.157500 0.155448
C16   C     C_1   0.109831 0.842679 0.335345 0.203433
H2    H     H_    0.315443 0.828071 0.143705 0.230826
H3    H     H_    0.997937 0.890402 0.182300 0.205638
H4    H     H_    0.608301 0.574387 0.724976 0.129291
C17   C     C_R   0.920273 0.770577 0.860574 0.437673
C18   C     C_R   0.811789 0.842176 0.843679 -0.280747
C19   C     C_R   0.838171 0.906013 0.782379 -0.178053
C20   C     C_R   0.967093 0.900605 0.734576 0.424202
C21   C     C_R   0.040444 0.824168 0.740492 -0.093988
C22   C     C_R   0.032707 0.759185 0.806873 -0.043819
C23   C     C_R   0.122012 0.813024 0.681944 -0.181289
C24   C     C_R   0.223489 0.740907 0.691797 -0.077068
C25   C     C_R   0.252937 0.683685 0.760596 0.047000
C26   C     C_R   0.145231 0.688213 0.817400 -0.141029
C27   C     C_R   0.305547 0.723804 0.635832 0.367773
C28   C     C_R   0.460248 0.671551 0.648868 -0.106734
C29   C     C_R   0.500593 0.620264 0.715805 -0.236952
C30   C     C_R   0.387240 0.621224 0.769829 -0.160981
H5    H     H_    0.715654 0.853362 0.879444 0.159307
H6    H     H_    0.767118 0.962361 0.774024 0.190227
H7    H     H_    0.531340 0.661717 0.606416 0.184446
H8    H     H_    0.411107 0.571780 0.817791 0.130689
C31   C     C_R   0.725899 0.090251 0.264930 0.348262
C32   C     C_R   0.866065 0.080398 0.221775 -0.235629
C33   C     C_R   0.905271 0.143483 0.160191 -0.166009
C34   C     C_R   0.790721 0.212123 0.140384 0.343377
C35   C     C_R   0.702944 0.233052 0.193137 -0.078904
C36   C     C_R   0.678602 0.169814 0.259219 -0.057358
C37   C     C_R   0.646710 0.313201 0.183379 -0.107366
C38   C     C_R   0.590137 0.330291 0.242495 0.031066
C39   C     C_R   0.569153 0.267409 0.309402 -0.076702
C40   C     C_R   0.612234 0.186206 0.317346 -0.126458
C41   C     C_R   0.563920 0.411131 0.236408 -0.264997
C42   C     C_R   0.527790 0.430913 0.293943 -0.238795
C43   C     C_R   0.509217 0.371253 0.359079 0.437048
C44   C     C_R   0.511938 0.289521 0.366420 0.296836
H9    H     H_    0.917358 0.020917 0.228686 0.182091
H10   H     H_    0.986530 0.130208 0.121474 0.213016
H11   H     H_    0.580477 0.461031 0.187603 0.137756
H12   H     H_    0.516599 0.493461 0.288074 0.205828
O11   O     O_R   0.770540 0.084530 0.414050 -0.565616
O12   O     O_R   0.445710 0.065660 0.555720 -0.553801
O13   O     O_R   0.270420 0.915650 0.586190 -0.554556
C45   C     C_R   0.615279 0.081172 0.574971 0.720470
O14   O     O_R   0.441140 0.093540 0.412470 -0.505351
O15   O     O_R   0.265820 0.943740 0.441930 -0.484151
C46   C     C_R   0.608791 0.118860 0.386792 0.849206
O16   O     O_R   0.775150 0.056440 0.558310 -0.530575
O17   O     O_3   0.602370 0.950960 0.510050 -0.341241
V3    V     V_3+5 0.329450 0.009140 0.498150 1.589484
O18   O     O_R   0.935790 0.934280 0.444060 -0.507565
C47   C     C_R   0.102223 0.923444 0.421485 0.858545
O19   O     O_R   0.940370 0.906390 0.587310 -0.519517
C48   C     C_R   0.110734 0.880021 0.612271 0.848243
V4    V     V_3+5 0.828810 0.990710 0.501460 1.616411
O20   O     O_3   0.105780 0.049100 0.489960 -0.412214
C49   C     C_3   0.773365 0.315391 0.725480 -0.296234
C50   C     C_3   0.610029 0.314046 0.673307 -0.276000
H13   H     H_    0.595472 0.356550 0.618773 0.151027
H14   H     H_    0.894240 0.358587 0.713565 0.205471
C51   C     C_1   0.625651 0.131139 0.616836 -0.172892
C52   C     C_1   0.636951 0.381105 0.873378 -0.070952
C53   C     C_3   0.790546 0.223018 0.747859 0.448501
C54   C     C_3   0.631730 0.221633 0.696885 -0.117174
C55   C     C_3   0.645638 0.210759 0.805119 0.278026
C56   C     C_3   0.624899 0.302227 0.783783 -0.130012
C57   C     C_3   0.484531 0.208101 0.754664 -0.157177
C58   C     C_3   0.465077 0.300674 0.732408 0.596305
C59   C     C_1   0.630378 0.172777 0.652097 0.055739
C60   C     C_1   0.629255 0.345694 0.832998 0.130162
H15   H     H_    0.390011 0.155029 0.768487 0.218239
O21   O     O_3   0.268870 0.604837 0.312400 -0.556492
C61   C     C_3   0.307587 0.587119 0.383644 0.023937
H16   H     H_    0.187098 0.552393 0.414785 0.153241
H17   H     H_    0.340450 0.640820 0.397277 0.184333
H18   H     H_    0.432835 0.547204 0.399059 0.212642
O22   O     O_3   0.026082 0.972057 0.684323 -0.556000
C62   C     C_3   0.207045 0.992513 0.704352 -0.151284
H19   H     H_    0.209425 0.991106 0.758737 0.179647
H20   H     H_    0.242866 0.054705 0.669761 0.167404
H21   H     H_    0.319512 0.951993 0.698792 0.096282
S1    S     S_3+6 0.179765 0.731194 0.559172 -0.002457
O23   O     O_2   0.303055 0.776380 0.498542 -0.325956
O24   O     O_2   0.152437 0.647355 0.559677 -0.306208
O25   O     O_3   0.963947 0.773706 0.551007 -0.502152
H22   H     H_    0.888140 0.735907 0.589391 0.329597
O26   O     O_3   0.476669 0.393651 0.415349 -0.557625
C63   C     C_3   0.646324 0.383067 0.455269 -0.185239
H23   H     H_    0.630026 0.413329 0.493160 0.169155
H24   H     H_    0.772005 0.411032 0.422718 0.136247
H25   H     H_    0.673019 0.318249 0.485179 0.154705
S2    S     S_3+6 0.559258 0.010196 0.296422 -0.021855
O27   O     O_2   0.612951 0.955398 0.368576 -0.297944
O28   O     O_2   0.362947 0.043003 0.296785 -0.387530
O29   O     O_3   0.556490 0.955835 0.244794 -0.472020
H26   H     H_    0.494310 0.990776 0.200915 0.349522
S3    S     S_3+6 0.684537 0.232317 0.058091 0.058563
O30   O     O_2   0.510328 0.283974 0.045468 -0.349373
O31   O     O_2   0.831458 0.270044 0.003603 -0.292664
O32   O     O_3   0.619129 0.143401 0.053784 -0.406244
H27   H     H_    0.519564 0.122231 0.089497 0.347005
S4    S     S_3+6 0.858550 0.667154 0.371638 0.057710
O33   O     O_2   0.968125 0.648165 0.438670 -0.279585
O34   O     O_2   0.696991 0.721420 0.371521 -0.284593
O35   O     O_3   0.772780 0.581621 0.365731 -0.506937
H28   H     H_    0.876974 0.560464 0.345583 0.311089
O36   O     O_3   0.465570 0.232567 0.430394 -0.577724
C64   C     C_3   0.265659 0.233001 0.438453 -0.147610
H29   H     H_    0.189669 0.214523 0.398854 0.119101
H30   H     H_    0.212247 0.292354 0.435999 0.144472
H31   H     H_    0.228843 0.189421 0.490666 0.158245
O37   O     O_3   0.286490 0.338317 0.726809 -0.510162
C65   C     C_3   0.307774 0.422072 0.692423 -0.158460
H32   H     H_    0.334798 0.437115 0.636159 0.152300
H33   H     H_    0.422557 0.447408 0.716292 0.104842
H34   H     H_    0.172840 0.451650 0.696688 0.164092
S5    S     S_3+6 0.656432 0.138729 0.891606 0.204689
O38   O     O_2   0.825896 0.156491 0.929143 -0.188492
O39   O     O_2   0.476812 0.143711 0.928477 -0.240372
O40   O     O_3   0.676729 0.045514 0.890370 -0.442200
H35   H     H_    0.565221 0.038832 0.862867 0.319547
S6    S     S_3+6 0.003744 0.169421 0.760849 0.033587
O41   O     O_2   0.112819 0.185416 0.817742 -0.255388
O42   O     O_2   0.962544 0.081095 0.783123 -0.342985
O43   O     O_3   0.123652 0.201562 0.685595 -0.519749
H36   H     H_    0.047040 0.182960 0.653555 0.323397
S7    S     S_3+6 0.727468 0.752651 0.181551 0.000385
O44   O     O_2   0.635417 0.828425 0.180520 -0.315757
O45   O     O_2   0.751306 0.757533 0.108108 -0.369289
O46   O     O_3   0.597194 0.671096 0.225530 -0.474476
H37   H     H_    0.665762 0.625638 0.220015 0.326666
O47   O     O_3   0.929926 0.714179 0.928560 -0.570751
C66   C     C_3   0.789461 0.723672 0.973234 -0.099414
H38   H     H_    0.643304 0.723021 0.951603 0.112849
H39   H     H_    0.818128 0.778966 0.984547 0.186243
H40   H     H_    0.796056 0.672965 0.023666 0.181112

loop_
_geom_bond_atom_site_label_1
_geom_bond_atom_site_label_2
_ccdc_geom_bond_type
C28   H7    S    
C35   C36   A    
C55   C56   S    
O12   V3    S    
H4    C29   S    
O2    C1    A    
C57   C58   S    
C1    O6    A    
O32   H27   S    
C66   H40   S    
S5    O38   D    
C49   C53   S    
O36   C64   S    
C49   C50   S    
S2    O27   D    
C13   C14   S    
C61   H16   S    
C20   C21   A    
C21   C22   A    
C11   C13   S    
C31   C36   A    
C65   H33   S    
O5    C3    A    
C57   H15   S    
S7    O45   D    
C62   H19   S    
C56   C60   S    
V2    O10   S    
C63   H23   S    
C18   C19   A    
C25   C26   A    
C10   C13   S    
S1    O23   D    
C3    C26   S    
S5    O39   D    
O8    V2    S    
C24   C27   A    
C19   C20   A    
S6    O43   S    
C1    C37   S    
S3    O32   S    
C25   C30   A    
C55   S5    S    
O1    V2    S    
C27   S1    S    
H1    C14   S    
O7    V1    S    
C17   O47   S    
C45   O16   A    
O13   C48   A    
C43   O26   S    
C38   C41   A    
C5    S4    S    
C44   O36   S    
C39   C40   A    
C61   H17   S    
O15   C47   A    
O9    C4    A    
S7    O46   S    
O14   C46   A    
C6    O21   S    
C64   H31   S    
C19   H6    S    
O16   V4    S    
C66   H39   S    
S2    O28   D    
C54   C59   S    
C66   H38   S    
C9    S7    S    
C12   C16   S    
C34   S3    S    
C6    C14   S    
C31   C32   A    
C4    C7    S    
O29   H26   S    
C17   C18   A    
O37   C65   S    
C64   H30   S    
C65   H34   S    
C53   C54   S    
O4    C2    A    
C50   H13   S    
C7    C15   T    
C38   C39   A    
O17   V3    S    
C2    C52   S    
C8    C16   T    
C54   C57   S    
O19   C48   A    
C6    C10   S    
C51   C59   T    
O46   H37   S    
S4    O34   D    
C27   C28   A    
C58   O37   S    
C42   C43   A    
O11   V4    S    
V3    O20   S    
C53   C55   S    
C49   C56   S    
C41   H11   S    
C31   S2    S    
V4    O20   S    
O14   V3    S    
C5    C6    S    
C39   C44   A    
C10   C15   S    
C11   C12   S    
C56   C58   S    
C33   H10   S    
S1    O25   S    
O3    C4    A    
C50   C58   S    
C24   C25   A    
C13   H2    S    
C61   H18   S    
C35   C37   A    
S3    O30   D    
S6    O42   D    
O18   C47   A    
S4    O35   S    
C12   C14   S    
O2    V1    S    
C23   C24   A    
S5    O40   S    
C32   C33   A    
O25   H22   S    
C49   H14   S    
C34   C35   A    
C20   O22   S    
O1    C2    A    
C28   C29   A    
C17   C22   A    
C23   C48   S    
C64   H29   S    
O19   V4    S    
C53   S6    S    
O12   C45   A    
O8    C3    A    
S2    O29   S    
C33   C34   A    
O6    V2    S    
O22   C62   S    
C30   H8    S    
C40   C46   S    
C5    C9    S    
S6    O41   D    
C63   H25   S    
C42   H12   S    
C5    C12   S    
O47   C66   S    
O9    V2    S    
S4    O33   D    
O7    V2    S    
C11   H3    S    
O4    V1    S    
C21   C23   A    
O3    V1    S    
C50   C54   S    
C65   H32   S    
O18   V4    S    
C45   C51   S    
C37   C38   A    
O35   H28   S    
C62   H20   S    
C8    C47   S    
O21   C61   S    
C63   H24   S    
O11   C46   A    
C9    C11   S    
O40   H35   S    
C41   C42   A    
S1    O24   D    
O5    V1    S    
C43   C44   A    
C22   C26   A    
C29   C30   A    
C36   C40   A    
C55   C57   S    
O15   V3    S    
S7    O44   D    
S3    O31   D    
O17   V4    S    
C9    C10   S    
V1    O10   S    
C18   H5    S    
O43   H36   S    
C52   C60   T    
O13   V3    S    
C32   H9    S    
O26   C63   S    
C62   H21   S    
