data_mof_unit_46171.cif
_audit_creation_date              2012-12-10T16:51:00-0500
_audit_creation_method            fapswitch 2.2
_symmetry_space_group_name_H-M    P1
_symmetry_Int_Tables_number       1
_space_group_crystal_system       triclinic
_cell_length_a                    7.844048
_cell_length_b                    8.557167
_cell_length_c                    10.5321
_cell_angle_alpha                 90.927915
_cell_angle_beta                  85.644501
_cell_angle_gamma                 93.340068
_cell_volume                      703.65611688

loop_
_atom_site_label
_atom_site_type_symbol
_atom_type_description
_atom_site_fract_x
_atom_site_fract_y
_atom_site_fract_z
_atom_type_partial_charge
Br1   Br    Br    0.244563 0.819732 0.262574 -0.538723
Br2   Br    Br    0.827853 0.823968 0.744854 -0.608326
C1    C     C_R   0.545313 0.794377 0.496937 0.994421
C2    C     C_R   0.979809 0.532893 0.022856 -0.195432
C3    C     C_R   0.064550 0.670618 0.070289 -0.139913
C4    C     C_R   0.982686 0.606611 0.904004 -0.136991
C5    C     C_R   0.214430 0.658283 0.135928 0.262927
C6    C     C_R   0.828684 0.646756 0.857123 0.200268
C7    C     C_R   0.364733 0.609350 0.066872 0.010598
C8    C     C_R   0.673275 0.594786 0.919995 0.067438
C9    C     C_R   0.378803 0.643103 0.936305 0.058937
C10   C     C_R   0.666105 0.538721 0.043930 0.048068
C11   C     C_R   0.506807 0.543153 0.120749 -0.195575
C12   C     C_R   0.454784 0.205741 0.504662 0.978000
C13   C     C_R   0.522306 0.602692 0.862401 -0.181221
C14   C     C_2   0.569165 0.957928 0.495434 -0.303810
C15   C     C_2   0.431277 0.042363 0.510213 -0.340805
C16   C     C_R   0.508087 0.539113 0.733720 0.900373
C17   C     C_R   0.500021 0.506634 0.257383 0.902122
C18   C     C_R   0.256035 0.730726 0.884781 -0.158862
C19   C     C_R   0.820143 0.484120 0.083326 -0.170541
C20   C     C_R   0.091005 0.729513 0.945286 -0.147311
H1    H     H_    0.040099 0.534413 0.827842 0.179372
H2    H     H_    0.987904 0.617919 0.594429 0.229825
H3    H     H_    0.976324 0.740708 0.129039 0.201991
H4    H     H_    0.280121 0.783602 0.791685 0.174297
H5    H     H_    0.819505 0.390629 0.151139 0.177942
H6    H     H_    0.044236 0.845598 0.936173 0.208777
H7    H     H_    0.060201 0.433043 0.022665 0.163740
H8    H     H_    0.699634 0.008247 0.480758 0.198786
H9    H     H_    0.300900 0.992040 0.525641 0.210455
H10   H     H_    0.012717 0.381946 0.404578 0.193442
N1    N     N_2   0.950330 0.457950 0.466250 -0.163800
N2    N     N_2   0.049670 0.542050 0.533750 -0.157508
O1    O     O_R   0.389250 0.738570 0.508280 -0.597422
O2    O     O_R   0.610750 0.261430 0.491720 -0.610682
O3    O     O_R   0.678390 0.711630 0.486650 -0.597646
O4    O     O_R   0.321610 0.288370 0.513350 -0.616336
O5    O     O_R   0.355430 0.513480 0.694040 -0.633985
O6    O     O_R   0.644570 0.486520 0.305960 -0.630014
O7    O     O_R   0.644570 0.486540 0.672410 -0.601499
O8    O     O_R   0.355430 0.513460 0.327590 -0.592879
Zn1   Zn    Zn3+2 0.306940 0.517990 0.514440 0.978367
Zn2   Zn    Zn3+2 0.693060 0.482010 0.485560 0.979134

loop_
_geom_bond_atom_site_label_1
_geom_bond_atom_site_label_2
_ccdc_geom_bond_type
C13   C16   S    
C4    C6    A    
C16   O5    A    
C12   O4    A    
O1    Zn1   S    
C2    H7    S    
C17   O8    A    
C1    O1    A    
H10   N1    S    
O3    Zn2   S    
N1    N2    D    
C19   H5    S    
O4    Zn1   S    
C20   H6    S    
C2    C19   A    
C7    C9    A    
C12   C15   S    
C8    C10   A    
C3    H3    S    
C4    H1    S    
C2    C4    A    
C18   C20   A    
C3    C5    A    
C8    C13   A    
N2    Zn1   S    
C12   O2    A    
C15   H9    S    
O7    Zn2   S    
Br2   C6    S    
C9    C18   A    
O2    Zn2   S    
C17   O6    A    
C1    C14   S    
C14   H8    S    
C4    C20   A    
O6    Zn2   S    
C10   C11   A    
C1    O3    A    
C6    C8    A    
O8    Zn1   S    
C16   O7    A    
C5    C7    A    
C7    C11   A    
C2    C3    A    
C11   C17   S    
O5    Zn1   S    
Br1   C5    S    
N1    Zn2   S    
C9    C13   A    
C10   C19   A    
H2    N2    S    
C3    C20   A    
C14   C15   D    
C18   H4    S    
