data_mof_unit_61888.cif
_audit_creation_date              2012-12-10T17:06:39-0500
_audit_creation_method            fapswitch 2.2
_symmetry_space_group_name_H-M    P1
_symmetry_Int_Tables_number       1
_space_group_crystal_system       triclinic
_cell_length_a                    14.150858
_cell_length_b                    10.741257
_cell_length_c                    10.083565
_cell_angle_alpha                 89.970792
_cell_angle_beta                  89.797449
_cell_angle_gamma                 90.255389
_cell_volume                      1532.65672386

loop_
_atom_site_label
_atom_site_type_symbol
_atom_type_description
_atom_site_fract_x
_atom_site_fract_y
_atom_site_fract_z
_atom_type_partial_charge
C1    C     C_R   0.494648 0.263169 0.500290 0.934503
C2    C     C_R   0.500924 0.737291 0.499502 0.850584
C3    C     C_R   0.670670 0.500063 0.499781 0.884236
C4    C     C_1   0.227825 0.500199 0.500516 -0.191964
C5    C     C_1   0.142556 0.500298 0.500433 -0.003350
C6    C     C_1   0.042643 0.500370 0.500101 0.015697
C7    C     C_1   0.957374 0.500380 0.499770 0.018024
C8    C     C_1   0.857459 0.500324 0.499470 0.003180
C9    C     C_3   0.397174 0.755320 0.863590 -0.726385
C10   C     C_3   0.427058 0.305091 0.100530 -0.703017
C11   C     C_1   0.772185 0.500222 0.499431 -0.181600
C12   C     C_2   0.462672 0.933094 0.400778 0.418569
C13   C     C_2   0.510144 0.870054 0.495266 0.220835
C14   C     C_2   0.474092 0.066982 0.391982 -0.250075
C15   C     C_2   0.474591 0.133447 0.502911 -0.282509
C16   C     C_2   0.509086 0.599221 0.926507 0.192229
C17   C     C_2   0.534557 0.588870 0.070859 0.440778
C18   C     C_R   0.329328 0.500068 0.500208 0.882154
H1    H     H_    0.482530 0.109121 0.294852 0.163456
H2    H     H_    0.616938 0.651577 0.208714 0.374345
H3    H     H_    0.374164 0.483421 0.041526 0.204350
H4    H     H_    0.410823 0.271029 0.999166 0.202071
H5    H     H_    0.374565 0.264913 0.170656 0.239427
H6    H     H_    0.498999 0.272942 0.127511 0.239221
H7    H     H_    0.458974 0.091342 0.598701 0.186353
H8    H     H_    0.520730 0.418345 0.894575 0.158088
H9    H     H_    0.375668 0.934276 0.251969 0.330571
H10   H     H_    0.605876 0.866274 0.634302 0.344567
H11   H     H_    0.536338 0.788147 0.914235 0.261017
H12   H     H_    0.391646 0.846489 0.812261 0.231535
H13   H     H_    0.366470 0.764083 0.964790 0.226705
H14   H     H_    0.356117 0.685405 0.806263 0.257253
N1    N     N_2   0.500930 0.501330 0.852150 -0.222956
N2    N     N_2   0.500950 0.501360 0.147810 -0.082567
N3    N     N_2   0.495389 0.719539 0.871491 -0.243015
N4    N     N_2   0.421005 0.439242 0.103955 -0.242053
O1    O     O_R   0.499990 0.319060 0.613040 -0.613284
O2    O     O_3   0.574389 0.929235 0.577884 -0.798438
O3    O     O_3   0.595691 0.677932 0.119957 -0.774309
O4    O     O_R   0.500010 0.319100 0.386900 -0.602634
O5    O     O_R   0.373700 0.499980 0.613090 -0.604336
O6    O     O_R   0.373730 0.500020 0.386960 -0.560854
O7    O     O_R   0.499990 0.680900 0.613100 -0.596883
O8    O     O_R   0.500010 0.680940 0.386960 -0.563204
O9    O     O_R   0.626270 0.499980 0.613040 -0.583397
O10   O     O_R   0.626300 0.500020 0.386910 -0.621944
O11   O     O_3   0.404057 0.871799 0.312198 -0.769588
Zn1   Zn    Zn3+2 0.499980 0.499970 0.650990 0.950613
Zn2   Zn    Zn3+2 0.500020 0.500030 0.349010 0.988001

loop_
_geom_bond_atom_site_label_1
_geom_bond_atom_site_label_2
_ccdc_geom_bond_type
O8    Zn2   S    
C6    C7    T    
C1    C15   S    
C1    O1    A    
C16   N1    D    
O7    Zn1   S    
H11   N3    S    
C3    O10   A    
C1    O4    A    
H10   O2    S    
C2    O7    A    
C4    C18   S    
C18   O6    A    
C7    C8    S    
H3    N4    S    
C10   H4    S    
O1    Zn1   S    
N1    Zn1   S    
C2    C13   S    
O10   Zn2   S    
C13   O2    S    
C9    H12   S    
C12   O11   S    
O5    Zn1   S    
C12   C14   S    
N2    N4    S    
C8    C11   T    
C16   N3    S    
C5    C6    S    
C10   H5    S    
C15   H7    S    
C3    C11   S    
C17   N2    D    
C9    H13   S    
O6    Zn2   S    
O4    Zn2   S    
C12   C13   D    
C17   O3    S    
O9    Zn1   S    
H9    O11   S    
C9    N3    S    
H2    O3    S    
C14   C15   D    
C16   C17   S    
N2    Zn2   S    
C10   N4    S    
H8    N1    S    
C9    H14   S    
C10   H6    S    
C14   H1    S    
C3    O9    A    
C18   O5    A    
C2    O8    A    
C4    C5    T    
