data_mof_unit_30500.cif
_audit_creation_date              2012-12-10T17:40:55-0500
_audit_creation_method            fapswitch 2.2
_symmetry_space_group_name_H-M    P1
_symmetry_Int_Tables_number       1
_space_group_crystal_system       triclinic
_cell_length_a                    14.555335
_cell_length_b                    16.013195
_cell_length_c                    10.0158
_cell_angle_alpha                 90.902687
_cell_angle_beta                  93.783619
_cell_angle_gamma                 91.056247
_cell_volume                      2328.63577406

loop_
_atom_site_label
_atom_site_type_symbol
_atom_type_description
_atom_site_fract_x
_atom_site_fract_y
_atom_site_fract_z
_atom_type_partial_charge
C1    C     C_R   0.381418 0.878571 0.496450 0.836557
C2    C     C_R   0.670565 0.252262 0.398658 -0.247120
C3    C     C_R   0.202826 0.271974 0.381489 -0.216905
C4    C     C_R   0.170647 0.752205 0.398636 -0.247160
C5    C     C_R   0.693529 0.818567 0.499865 -0.086474
C6    C     C_R   0.664785 0.204757 0.514026 -0.070313
C7    C     C_R   0.193498 0.318536 0.499839 -0.086467
C8    C     C_R   0.164864 0.704713 0.514018 -0.070140
C9    C     C_R   0.334551 0.982297 0.125460 -0.178044
C10   C     C_R   0.834544 0.482332 0.125459 -0.178322
C11   C     C_R   0.252055 0.968763 0.049568 -0.256082
C12   C     C_R   0.375556 0.115946 0.499087 0.830122
C13   C     C_R   0.752054 0.468757 0.049569 -0.255740
C14   C     C_R   0.251026 0.967205 0.910100 0.584994
C15   C     C_R   0.751022 0.467203 0.910125 0.585045
C16   C     C_R   0.333204 0.977543 0.848246 -0.193348
C17   C     C_R   0.833182 0.477623 0.848232 -0.193882
C18   C     C_R   0.418329 0.988752 0.921473 0.003248
C19   C     C_R   0.918317 0.488804 0.921466 0.003337
C20   C     C_R   0.418601 0.989277 0.064929 0.117928
C21   C     C_R   0.918594 0.489315 0.064926 0.118068
C22   C     C_R   0.579288 0.012906 0.079605 0.089030
C23   C     C_R   0.881397 0.378583 0.496453 0.836488
C24   C     C_R   0.079290 0.512892 0.079607 0.089052
C25   C     C_R   0.612538 0.125945 0.503928 0.891890
C26   C     C_R   0.623116 0.882566 0.501062 0.896205
C27   C     C_R   0.112565 0.625930 0.503930 0.891815
C28   C     C_R   0.123111 0.382560 0.501058 0.896171
C29   C     C_R   0.579078 0.010214 0.933864 0.536940
C30   C     C_R   0.079081 0.510188 0.933868 0.536809
C31   C     C_R   0.302791 0.185326 0.752636 -0.313503
C32   C     C_R   0.380611 0.756078 0.702911 -0.340451
C33   C     C_R   0.803129 0.685554 0.752755 -0.314735
C34   C     C_R   0.875584 0.615972 0.499101 0.830234
C35   C     C_R   0.880482 0.256140 0.702983 -0.340470
C36   C     C_R   0.299973 0.233717 0.868079 0.411416
C37   C     C_R   0.360498 0.749668 0.836001 0.534733
C38   C     C_R   0.800267 0.733982 0.868146 0.411681
C39   C     C_R   0.860345 0.249748 0.836064 0.534680
C40   C     C_R   0.773304 0.816940 0.857312 0.034536
C41   C     C_R   0.767094 0.246918 0.868025 0.042079
C42   C     C_R   0.273152 0.316726 0.857320 0.034562
C43   C     C_R   0.267253 0.746840 0.867995 0.041730
C44   C     C_R   0.757290 0.850557 0.729399 0.525422
C45   C     C_R   0.261981 0.205290 0.381141 -0.217572
C46   C     C_R   0.697930 0.228647 0.762987 0.420244
C47   C     C_R   0.257205 0.350404 0.729440 0.525406
C48   C     C_R   0.198069 0.728586 0.762973 0.419935
C49   C     C_R   0.744340 0.796687 0.617600 -0.100217
C50   C     C_R   0.723374 0.226270 0.628218 -0.038149
C51   C     C_R   0.244240 0.296584 0.617584 -0.100335
C52   C     C_R   0.223488 0.726199 0.628193 -0.038156
C53   C     C_R   0.283640 0.218270 0.624152 -0.032813
C54   C     C_R   0.308743 0.760740 0.603891 -0.048562
C55   C     C_R   0.783820 0.718402 0.624219 -0.032822
C56   C     C_R   0.242249 0.810141 0.391876 -0.233200
C57   C     C_R   0.808635 0.260808 0.603941 -0.048477
C58   C     C_R   0.303624 0.178035 0.501979 -0.045489
C59   C     C_R   0.314534 0.810816 0.491042 -0.018600
C60   C     C_R   0.803711 0.678104 0.502040 -0.045487
C61   C     C_R   0.814463 0.310861 0.491070 -0.018608
C62   C     C_3   0.110278 0.019958 0.849098 -0.425053
C63   C     C_3   0.610760 0.520199 0.847623 -0.424345
C64   C     C_3   0.730571 0.057279 0.911338 -0.134271
C65   C     C_3   0.230588 0.557210 0.911330 -0.134098
C66   C     C_3   0.407676 0.205893 0.033539 -0.345654
C67   C     C_R   0.761997 0.705301 0.381213 -0.217570
C68   C     C_3   0.482824 0.680968 0.928891 -0.441215
C69   C     C_3   0.908010 0.706096 0.033526 -0.345595
C70   C     C_3   0.982650 0.181016 0.928910 -0.441483
C71   C     C_3   0.647929 0.823025 0.994539 -0.664131
C72   C     C_3   0.801227 0.229495 0.111984 -0.722945
C73   C     C_3   0.147842 0.322951 0.994651 -0.664298
C74   C     C_3   0.301397 0.729395 0.111947 -0.722892
C75   C     C_3   0.852548 0.954609 0.668635 -0.425321
C76   C     C_3   0.554967 0.284677 0.768472 -0.299563
C77   C     C_3   0.352513 0.454397 0.668586 -0.425459
C78   C     C_R   0.742172 0.310203 0.391911 -0.233173
C79   C     C_3   0.055195 0.784768 0.768554 -0.299557
C80   C     C_3   0.724193 0.993153 0.229474 -0.658034
C81   C     C_3   0.224207 0.493163 0.229467 -0.658114
C82   C     C_R   0.702828 0.771969 0.381547 -0.216973
H1    H     H_    0.273293 0.173949 0.287141 0.189502
H2    H     H_    0.951187 0.267935 0.679682 0.184647
H3    H     H_    0.664942 0.787080 0.288887 0.170082
H4    H     H_    0.621049 0.243578 0.313706 0.150847
H5    H     H_    0.164986 0.287129 0.288816 0.170086
H6    H     H_    0.121125 0.743525 0.313691 0.150832
H7    H     H_    0.330740 0.989558 0.231272 0.203309
H8    H     H_    0.830735 0.489569 0.231276 0.203312
H9    H     H_    0.188828 0.960918 0.099505 0.135830
H10   H     H_    0.688824 0.460839 0.099479 0.135859
H11   H     H_    0.146103 0.081997 0.847676 0.188311
H12   H     H_    0.242947 0.851656 0.307621 0.163177
H13   H     H_    0.075125 0.012442 0.943440 0.169366
H14   H     H_    0.056545 0.018380 0.765287 0.192424
H15   H     H_    0.646779 0.581923 0.842628 0.187925
H16   H     H_    0.576593 0.514595 0.943093 0.169546
H17   H     H_    0.556221 0.517424 0.764946 0.192045
H18   H     H_    0.767888 0.078753 0.825319 0.172135
H19   H     H_    0.780644 0.022063 0.974858 0.160404
H20   H     H_    0.706176 0.112755 0.962114 0.147173
H21   H     H_    0.267905 0.578662 0.825296 0.172115
H22   H     H_    0.280658 0.521990 0.974857 0.160487
H23   H     H_    0.773260 0.673919 0.287228 0.189491
H24   H     H_    0.206209 0.612704 0.962084 0.147168
H25   H     H_    0.429650 0.272816 0.042925 0.144727
H26   H     H_    0.451467 0.172088 0.964377 0.191046
H27   H     H_    0.418985 0.177973 0.133768 0.208326
H28   H     H_    0.532670 0.685688 0.849995 0.181205
H29   H     H_    0.438736 0.623551 0.911644 0.142672
H30   H     H_    0.521654 0.673263 0.026744 0.203893
H31   H     H_    0.930097 0.772994 0.042779 0.144667
H32   H     H_    0.951699 0.672175 0.964363 0.191092
H33   H     H_    0.919322 0.678225 0.133793 0.208300
H34   H     H_    0.742877 0.351719 0.307660 0.163137
H35   H     H_    0.032445 0.185753 0.849952 0.181169
H36   H     H_    0.938552 0.123602 0.911687 0.142722
H37   H     H_    0.021519 0.173292 0.026727 0.203989
H38   H     H_    0.783138 0.855772 0.053295 0.227810
H39   H     H_    0.617605 0.855664 0.077909 0.222991
H40   H     H_    0.653083 0.756491 0.022573 0.235973
H41   H     H_    0.600018 0.829085 0.904258 0.266178
H42   H     H_    0.673146 0.260709 0.018302 0.235374
H43   H     H_    0.759766 0.210273 0.193802 0.211155
H44   H     H_    0.851454 0.278662 0.150062 0.294811
H45   H     H_    0.326038 0.984399 0.742525 0.196273
H46   H     H_    0.836901 0.172194 0.082783 0.239666
H47   H     H_    0.283101 0.355565 0.053313 0.227727
H48   H     H_    0.117578 0.355645 0.078019 0.223022
H49   H     H_    0.152929 0.256421 0.022726 0.235869
H50   H     H_    0.099917 0.329038 0.904391 0.266208
H51   H     H_    0.173331 0.760677 0.018297 0.235293
H52   H     H_    0.259929 0.710179 0.193770 0.211178
H53   H     H_    0.351643 0.778543 0.150044 0.294778
H54   H     H_    0.337050 0.672090 0.082713 0.239609
H55   H     H_    0.863697 0.924439 0.570286 0.173786
H56   H     H_    0.826008 0.484464 0.742502 0.196254
H57   H     H_    0.907254 0.936450 0.745077 0.155668
H58   H     H_    0.858778 0.023077 0.655308 0.186985
H59   H     H_    0.572288 0.318571 0.676832 0.187165
H60   H     H_    0.561791 0.327394 0.856985 0.196853
H61   H     H_    0.481575 0.265162 0.753710 0.178104
H62   H     H_    0.363423 0.424409 0.570052 0.173851
H63   H     H_    0.407272 0.435983 0.744719 0.155536
H64   H     H_    0.358898 0.522878 0.655615 0.186897
H65   H     H_    0.072583 0.818698 0.676972 0.187376
H66   H     H_    0.062058 0.827433 0.857137 0.196604
H67   H     H_    0.311826 0.120773 0.767696 0.207615
H68   H     H_    0.981777 0.765336 0.753725 0.178187
H69   H     H_    0.658997 0.107832 0.178023 0.222914
H70   H     H_    0.793997 0.005336 0.195501 0.178899
H71   H     H_    0.707505 0.926314 0.216805 0.239853
H72   H     H_    0.727572 0.009291 0.337661 0.244217
H73   H     H_    0.158997 0.607835 0.177994 0.222877
H74   H     H_    0.294012 0.505383 0.195523 0.178943
H75   H     H_    0.207554 0.426320 0.216760 0.239805
H76   H     H_    0.227563 0.509281 0.337661 0.244191
H77   H     H_    0.451307 0.767899 0.679590 0.184595
H78   H     H_    0.812278 0.621027 0.767988 0.207665
N1    N     N_R   0.498810 0.000000 0.142780 -0.153539
N2    N     N_2   0.158042 0.544914 0.156794 -0.291212
N3    N     N_R   0.998810 0.500000 0.142780 -0.153502
N4    N     N_R   0.498740 0.000000 0.857170 -0.154549
N5    N     N_R   0.998740 0.500000 0.857170 -0.154542
N6    N     N_2   0.738211 0.857073 0.969447 -0.262628
N7    N     N_2   0.742421 0.261411 0.002492 -0.299254
N8    N     N_2   0.238153 0.356901 0.969492 -0.262576
N9    N     N_2   0.242603 0.761348 0.002470 -0.299316
N10   N     N_2   0.658044 0.044915 0.156795 -0.291237
O1    O     O_R   0.408390 0.908380 0.614690 -0.635550
O2    O     O_R   0.591620 0.908390 0.614640 -0.552958
O3    O     O_R   0.091620 0.591610 0.614640 -0.515841
O4    O     O_R   0.091620 0.408390 0.614640 -0.552891
O5    O     O_R   0.591610 0.091610 0.385310 -0.630405
O6    O     O_R   0.591610 0.908390 0.385310 -0.627348
O7    O     O_R   0.091610 0.591610 0.385310 -0.630409
O8    O     O_R   0.091610 0.408390 0.385310 -0.627338
O9    O     O_3   0.170744 0.953755 0.830483 -0.635717
O10   O     O_3   0.670747 0.453452 0.830667 -0.635862
O11   O     O_3   0.657341 0.005113 0.863272 -0.516256
O12   O     O_R   0.408390 0.091620 0.614690 -0.637204
O13   O     O_3   0.157344 0.505044 0.863289 -0.516274
O14   O     O_3   0.313564 0.197076 0.991640 -0.615873
O15   O     O_3   0.431505 0.754826 0.934291 -0.586915
O16   O     O_3   0.813870 0.697394 0.991751 -0.615684
O17   O     O_3   0.931339 0.254872 0.934374 -0.586887
O18   O     O_3   0.764068 0.935423 0.710991 -0.537579
O19   O     O_3   0.607856 0.212903 0.793147 -0.612540
O20   O     O_3   0.264078 0.435274 0.711138 -0.537520
O21   O     O_3   0.107983 0.712923 0.793142 -0.612555
O22   O     O_R   0.908390 0.408380 0.614690 -0.635472
O23   O     O_R   0.908390 0.591620 0.614690 -0.637287
O24   O     O_R   0.408370 0.908380 0.385360 -0.642689
O25   O     O_R   0.408370 0.091620 0.385360 -0.649280
O26   O     O_R   0.908370 0.408380 0.385360 -0.642653
O27   O     O_R   0.908370 0.591620 0.385360 -0.649207
O28   O     O_R   0.591620 0.091610 0.614640 -0.515762
Zn1   Zn    Zn3+2 0.500010 0.000000 0.653130 1.025754
Zn2   Zn    Zn3+2 0.000010 0.500000 0.653130 1.025702
Zn3   Zn    Zn3+2 0.499980 0.000000 0.346870 0.929037
Zn4   Zn    Zn3+2 0.999980 0.500000 0.346870 0.929081

loop_
_geom_bond_atom_site_label_1
_geom_bond_atom_site_label_2
_ccdc_geom_bond_type
C44   C49   A    
C33   C55   A    
C73   H49   S    
N3    Zn4   S    
C21   N3    A    
C22   C29   A    
C62   H14   S    
C30   O13   S    
C71   H40   S    
C36   C42   A    
C75   O18   S    
C80   N10   S    
C66   H25   S    
C4    C8    A    
C27   O3    A    
C43   N9    S    
H38   N6    S    
C80   H71   S    
C39   C41   A    
C45   H1    S    
O28   Zn1   S    
C56   H12   S    
C69   H31   S    
C81   H74   S    
C29   O11   S    
C72   H46   S    
C77   O20   S    
N1    Zn3   S    
C19   C21   A    
C63   H16   S    
C3    C7    A    
C75   H58   S    
C1    C59   S    
C35   C39   A    
C31   H67   S    
C11   C14   A    
C6    C25   S    
C70   H35   S    
C78   H34   S    
C74   H52   S    
O2    Zn1   S    
C80   H70   S    
C68   H30   S    
H51   N9    S    
C48   O21   S    
C63   H17   S    
C25   O28   A    
C17   C19   A    
C18   N4    A    
C81   N2    S    
C37   O15   S    
C60   C67   A    
C52   C54   A    
C74   N9    S    
C71   N6    S    
C74   H54   S    
C23   O26   A    
O1    Zn1   S    
C41   C46   A    
C17   H56   S    
C36   O14   S    
C43   C48   A    
C8    C52   A    
C40   C44   A    
C40   N6    S    
C14   O9    S    
C33   H78   S    
C32   H77   S    
C39   O17   S    
C76   H59   S    
C73   H50   S    
C26   O2    A    
H73   N2    S    
C79   O21   S    
C15   O10   S    
C4    C56   A    
O3    Zn2   S    
C34   C60   S    
C29   N4    A    
C5    C49   A    
C2    C6    A    
C73   N8    S    
C32   C54   A    
C23   O22   A    
C42   N8    S    
C54   C59   A    
C10   C21   A    
C64   H19   S    
C45   C58   A    
C12   O12   A    
C69   H32   S    
C81   H75   S    
C3    H5    S    
C48   C52   A    
O5    Zn3   S    
C77   H64   S    
C75   H55   S    
N5    Zn2   S    
C9    H7    S    
C62   O9    S    
C22   N1    A    
C67   H23   S    
C79   H65   S    
C38   O16   S    
O24   Zn3   S    
C3    C45   A    
C6    C50   A    
C63   O10   S    
C72   H44   S    
C51   C53   A    
C68   H29   S    
C37   C43   A    
C64   H20   S    
C2    C78   A    
H42   N7    S    
C25   O5    A    
C9    C20   A    
C26   O6    A    
C61   C78   A    
C35   H2    S    
C74   H53   S    
O27   Zn4   S    
C68   H28   S    
C32   C37   A    
C31   C53   A    
C80   H72   S    
C9    C11   A    
C22   N10   S    
C70   O17   S    
C44   O18   S    
C79   H68   S    
C4    H6    S    
C64   O11   S    
C34   O23   A    
C68   O15   S    
O8    Zn4   S    
C13   H10   S    
C72   N7    S    
C14   C16   A    
C24   N3    A    
C65   H21   S    
C46   O19   S    
O26   Zn4   S    
O23   Zn2   S    
C77   H63   S    
C65   H24   S    
C70   H37   S    
C65   O13   S    
C23   C61   S    
C71   H41   S    
C15   C17   A    
C66   O14   S    
C73   H48   S    
C69   H33   S    
C81   H76   S    
H47   N8    S    
C31   C36   A    
C50   C57   A    
O6    Zn3   S    
C71   H39   S    
C24   N2    S    
O12   Zn1   S    
C27   O7    A    
C30   N5    A    
C66   H26   S    
C10   C13   A    
C47   C51   A    
C53   C58   A    
N4    Zn1   S    
C57   C61   A    
C79   H66   S    
O25   Zn3   S    
C82   H3    S    
C46   C50   A    
O4    Zn2   S    
C33   C38   A    
C56   C59   A    
C72   H43   S    
C35   C57   A    
C47   O20   S    
C13   C15   A    
C1    O24   A    
C76   O19   S    
C77   H62   S    
C12   C58   S    
C63   H15   S    
C49   C55   A    
C38   C40   A    
C5    C82   A    
C34   O27   A    
C28   O4    A    
C70   H36   S    
C20   N1    A    
C41   N7    S    
C12   O25   A    
C1    O1    A    
C2    H4    S    
C18   C20   A    
C42   C47   A    
O22   Zn2   S    
C66   H27   S    
C16   H45   S    
C24   C30   A    
C55   C60   A    
C7    C28   S    
C7    C51   A    
C5    C26   S    
C76   H61   S    
C11   H9    S    
C64   H18   S    
C10   H8    S    
C67   C82   A    
C16   C18   A    
C62   H11   S    
H69   N10   S    
C8    C27   S    
O7    Zn4   S    
C75   H57   S    
C19   N5    A    
C65   H22   S    
C62   H13   S    
C28   O8    A    
C69   O16   S    
C76   H60   S    
