data_mof_unit_14899.cif
_audit_creation_date              2012-12-10T16:58:28-0500
_audit_creation_method            fapswitch 2.2
_symmetry_space_group_name_H-M    P1
_symmetry_Int_Tables_number       1
_space_group_crystal_system       triclinic
_cell_length_a                    7.842872
_cell_length_b                    8.672375
_cell_length_c                    22.716002
_cell_angle_alpha                 93.42614
_cell_angle_beta                  85.22703
_cell_angle_gamma                 93.410055
_cell_volume                      1534.63994177

loop_
_atom_site_label
_atom_site_type_symbol
_atom_type_description
_atom_site_fract_x
_atom_site_fract_y
_atom_site_fract_z
_atom_type_partial_charge
C1    C     C_R   0.544680 0.794085 0.499620 0.846668
C2    C     C_R   0.455215 0.206051 0.501628 0.928607
C3    C     C_R   0.471018 0.376747 0.767415 0.297777
C4    C     C_R   0.584113 0.672447 0.240282 0.339937
C5    C     C_R   0.448781 0.372895 0.706569 -0.092699
C6    C     C_R   0.584756 0.653472 0.300840 -0.179175
C7    C     C_R   0.502645 0.505320 0.675253 -0.237004
C8    C     C_R   0.505606 0.517417 0.324518 -0.181030
C9    C     C_R   0.549249 0.645450 0.706397 -0.097195
C10   C     C_R   0.423426 0.404897 0.286991 -0.051053
C11   C     C_R   0.563194 0.643450 0.767926 -0.002511
C12   C     C_R   0.429872 0.428332 0.225474 -0.065590
C13   C     C_R   0.574098 0.498749 0.792409 0.005895
C14   C     C_R   0.549440 0.542955 0.202223 0.020474
C15   C     C_2   0.564399 0.956957 0.507699 -0.245480
C16   C     C_2   0.435019 0.043256 0.494062 -0.234718
C17   C     C_R   0.500603 0.500478 0.611070 0.822885
C18   C     C_R   0.500043 0.500158 0.388630 0.925231
C19   C     C_R   0.647504 0.373986 0.116954 0.532942
C20   C     C_R   0.772113 0.597236 0.868320 0.556222
C21   C     C_R   0.736608 0.636597 0.114968 0.566396
C22   C     C_R   0.667893 0.339938 0.868919 0.565396
C23   C     C_R   0.785761 0.618864 0.053393 -0.125311
C24   C     C_R   0.677525 0.334680 0.930378 -0.130933
C25   C     C_R   0.728927 0.480990 0.022986 -0.037239
C26   C     C_R   0.736135 0.471615 0.960901 -0.043577
C27   C     C_R   0.663496 0.353312 0.055037 -0.099196
C28   C     C_R   0.806182 0.597748 0.928585 -0.079415
C29   C     C_R   0.883247 0.734124 0.020907 -0.099868
C30   C     C_R   0.623922 0.202246 0.962185 -0.060896
C31   C     C_R   0.899118 0.719962 0.958296 0.262192
C32   C     C_R   0.610643 0.213248 0.024557 0.242600
N1    N     N_R   0.641808 0.520194 0.143447 -0.337155
N2    N     N_R   0.668576 0.480257 0.844507 -0.333588
N3    N     N_2   0.950330 0.457950 0.484560 0.016763
N4    N     N_2   0.049670 0.542050 0.515440 0.016507
O1    O     O_R   0.389250 0.738570 0.503790 -0.587508
O2    O     O_R   0.610750 0.261430 0.496210 -0.567802
O3    O     O_R   0.678390 0.711620 0.493890 -0.646351
O4    O     O_R   0.321610 0.288380 0.506110 -0.641257
O5    O     O_R   0.355400 0.513520 0.588790 -0.612784
O6    O     O_R   0.644600 0.486480 0.411210 -0.596110
O7    O     O_R   0.644550 0.486570 0.578900 -0.568684
O8    O     O_R   0.355450 0.513430 0.421100 -0.586887
O9    O     O_2   0.645064 0.251047 0.150617 -0.452709
O10   O     O_2   0.839074 0.710786 0.834240 -0.482222
O11   O     O_2   0.785658 0.766597 0.145579 -0.520162
O12   O     O_2   0.664095 0.209213 0.833759 -0.469453
Zn1   Zn    Zn3+2 0.306930 0.518000 0.506610 1.042443
Zn2   Zn    Zn3+2 0.693070 0.482000 0.493390 1.060049
C33   C     C_2   0.974004 0.866373 0.051639 0.589854
H1    H     H_    0.055778 0.845735 0.086304 0.102147
O13   O     O_2   0.954145 0.999241 0.039728 -0.499872
C34   C     C_2   0.564158 0.056239 0.931494 0.551816
H2    H     H_    0.466782 0.056253 0.900439 0.126562
O14   O     O_2   0.624163 0.934406 0.940858 -0.560895
I1    I     I_    0.081732 0.873371 0.911459 -0.158269
I2    I     I_    0.464518 0.030181 0.068940 -0.162559
I3    I     I_    0.277003 0.262703 0.823987 -0.177395
I4    I     I_    0.482907 0.884938 0.220744 -0.026773
C35   C     C_2   0.370830 0.232756 0.675897 0.572655
H3    H     H_    0.320511 0.239593 0.633179 0.041831
O15   O     O_2   0.365948 0.106554 0.697210 -0.470585
C36   C     C_2   0.662924 0.779582 0.338790 0.568823
H4    H     H_    0.633981 0.785307 0.385980 0.056387
O16   O     O_2   0.763900 0.877717 0.317446 -0.488322
C37   C     C_2   0.583252 0.790353 0.674521 0.640834
H5    H     H_    0.522162 0.805439 0.634294 0.017988
O17   O     O_2   0.685152 0.891793 0.691664 -0.430370
C38   C     C_2   0.351069 0.257279 0.310853 0.533722
H6    H     H_    0.227775 0.207453 0.299387 0.151292
O18   O     O_2   0.430852 0.188366 0.343967 -0.540690
C39   C     C_2   0.515164 0.777681 0.808736 0.598863
H7    H     H_    0.503371 0.764587 0.856026 0.062837
O19   O     O_2   0.476945 0.899729 0.790726 -0.456590
C40   C     C_2   0.311115 0.345251 0.184539 0.503509
H8    H     H_    0.302929 0.388108 0.140983 0.055785
O20   O     O_2   0.221548 0.230968 0.197852 -0.530287
C41   C     C_2   0.712365 0.015799 0.541522 0.471452
H9    H     H_    0.839545 0.977980 0.527863 0.084953
O21   O     O_2   0.691753 0.102000 0.585750 -0.529235
C42   C     C_2   0.286612 0.984451 0.460455 0.537188
H10   H     H_    0.158632 0.017609 0.475666 0.064396
O22   O     O_2   0.307591 0.903318 0.414887 -0.539585
I5    I     I_    0.033386 0.295039 0.420635 -0.173940
I6    I     I_    0.963862 0.698275 0.582013 -0.170950

loop_
_geom_bond_atom_site_label_1
_geom_bond_atom_site_label_2
_ccdc_geom_bond_type
O8    Zn1   S    
C22   O12   S    
C11   C13   A    
C39   H7    S    
N3    N4    D    
C32   I2    S    
C14   N1    S    
C9    C37   S    
C30   C34   S    
C23   C29   A    
C24   C26   A    
C18   O6    A    
C21   N1    A    
O4    Zn1   S    
C6    C36   S    
C35   O15   D    
C15   C41   S    
C7    C17   S    
C38   H6    S    
C1    C15   S    
C2    C16   S    
C3    C13   A    
C1    O1    A    
C20   N2    A    
C39   O19   D    
O5    Zn1   S    
C17   O5    A    
C22   N2    A    
C34   O14   D    
C33   H1    S    
C40   H8    S    
C4    C6    A    
C19   N1    A    
C41   O21   D    
C6    C8    A    
C20   C28   A    
N4    I6    S    
C25   C26   A    
C8    C18   S    
C37   H5    S    
C33   O13   D    
C36   O16   D    
C17   O7    A    
C18   O8    A    
O1    Zn1   S    
C2    O2    A    
C4    I4    S    
N3    Zn2   S    
C16   C42   S    
C5    C35   S    
C9    C11   A    
C10   C12   A    
O6    Zn2   S    
C10   C38   S    
C12   C14   A    
C42   O22   D    
C12   C40   S    
C11   C39   S    
C22   C24   A    
C19   C27   A    
C5    C7    A    
C29   C33   S    
C7    C9    A    
C34   H2    S    
C27   C32   A    
C28   C31   A    
C40   O20   D    
C3    C5    A    
C19   O9    S    
O7    Zn2   S    
O2    Zn2   S    
C25   C27   A    
C26   C28   A    
C36   H4    S    
C31   I1    S    
C21   C23   A    
C13   N2    S    
C29   C31   A    
C30   C32   A    
N3    I5    S    
C23   C25   A    
C4    C14   A    
C35   H3    S    
C24   C30   A    
C1    O3    A    
C41   H9    S    
C2    O4    A    
O3    Zn2   S    
C8    C10   A    
C42   H10   S    
C38   O18   D    
C37   O17   D    
C20   O10   S    
N4    Zn1   S    
C15   C16   D    
C21   O11   S    
C3    I3    S    
