data_mof_unit_43128.cif
_audit_creation_date              2012-12-10T18:06:48-0500
_audit_creation_method            fapswitch 2.2
_symmetry_space_group_name_H-M    P1
_symmetry_Int_Tables_number       1
_space_group_crystal_system       triclinic
_cell_length_a                    12.588293
_cell_length_b                    13.148415
_cell_length_c                    15.401091
_cell_angle_alpha                 83.187341
_cell_angle_beta                  98.663765
_cell_angle_gamma                 97.274241
_cell_volume                      2486.84464856

loop_
_atom_site_label
_atom_site_type_symbol
_atom_type_description
_atom_site_fract_x
_atom_site_fract_y
_atom_site_fract_z
_atom_type_partial_charge
C1    C     C_R   0.443403 0.307881 0.511858 0.891351
C2    C     C_R   0.688152 0.540608 0.931124 0.074128
C3    C     C_R   0.581112 0.558519 0.895063 0.093137
C4    C     C_R   0.436507 0.516034 0.335663 0.898026
C5    C     C_R   0.755200 0.503633 0.880116 -0.195163
C6    C     C_R   0.715728 0.477926 0.794982 0.435467
C7    C     C_R   0.543515 0.535609 0.808915 -0.304904
C8    C     C_R   0.727952 0.933828 0.558622 -0.198022
C9    C     C_R   0.596395 0.801440 0.496549 -0.184303
C10   C     C_R   0.296131 0.162563 0.495734 0.466096
C11   C     C_R   0.265220 0.057086 0.491268 -0.253779
C12   C     C_R   0.464015 0.583012 0.096468 0.012787
C13   C     C_R   0.342833 0.988731 0.503557 -0.250029
C14   C     C_R   0.453677 0.023500 0.525030 0.108569
C15   C     C_R   0.482822 0.125793 0.545209 0.002377
C16   C     C_R   0.557737 0.692168 0.490977 0.880244
C17   C     C_R   0.536967 0.960622 0.525967 0.102131
C18   C     C_R   0.644812 0.994519 0.560359 0.071096
C19   C     C_R   0.668393 0.089353 0.594698 -0.211375
C20   C     C_R   0.588264 0.154341 0.587491 -0.162403
C21   C     C_R   0.516214 0.866465 0.490473 -0.310730
C22   C     C_R   0.705348 0.838462 0.524831 0.433107
C23   C     C_R   0.359482 0.610092 0.060980 0.120597
C24   C     C_R   0.406393 0.197354 0.520885 -0.173277
C25   C     C_R   0.139620 0.637646 0.626087 -0.290683
C26   C     C_R   0.756680 0.380691 0.395263 0.026428
C27   C     C_R   0.851783 0.354177 0.373636 -0.254445
C28   C     C_R   0.565241 0.488228 0.664409 0.853266
C29   C     C_R   0.950015 0.398366 0.414321 -0.184705
C30   C     C_R   0.952804 0.469555 0.477077 0.020279
C31   C     C_R   0.853705 0.492953 0.497277 0.192052
C32   C     C_R   0.049202 0.518671 0.520048 -0.021928
C33   C     C_R   0.044855 0.588184 0.583376 0.156180
C34   C     C_R   0.543737 0.583621 0.040687 0.095007
C35   C     C_R   0.946036 0.608204 0.602863 -0.174363
C36   C     C_R   0.851707 0.561679 0.559615 -0.130834
C37   C     C_R   0.150629 0.502413 0.502303 -0.023960
C38   C     C_R   0.237540 0.618032 0.605397 0.008094
C39   C     C_R   0.405484 0.543901 0.241120 -0.099903
C40   C     C_R   0.608944 0.496849 0.757815 -0.182803
C41   C     C_R   0.279890 0.608697 0.116783 0.448692
C42   C     C_R   0.304105 0.575998 0.207202 -0.309759
C43   C     C_R   0.483525 0.546969 0.185558 -0.266824
C44   C     C_R   0.511555 0.589917 0.948634 0.098762
C45   C     C_R   0.409557 0.623114 0.914248 -0.266295
C46   C     C_R   0.335785 0.635288 0.969909 -0.168134
C47   C     C_R   0.653599 0.574459 0.073888 -0.220915
C48   C     C_R   0.725213 0.555036 0.019154 -0.204209
H1    H     H_    0.257983 0.659354 0.940712 0.200731
H2    H     H_    0.162831 0.451681 0.455675 0.154325
H3    H     H_    0.021538 0.375018 0.395422 0.151151
H4    H     H_    0.849450 0.299770 0.325665 0.154237
H5    H     H_    0.778176 0.582280 0.575263 0.238427
H6    H     H_    0.808048 0.545170 0.047107 0.154186
H7    H     H_    0.558921 0.517211 0.212312 0.171841
H8    H     H_    0.385355 0.641561 0.844450 0.147569
H9    H     H_    0.776307 0.751302 0.466003 0.344977
H10   H     H_    0.810953 0.960935 0.582614 0.161778
H11   H     H_    0.148199 0.195013 0.457488 0.322225
H12   H     H_    0.836846 0.489094 0.908176 0.168772
H13   H     H_    0.609877 0.227200 0.615230 0.156833
H14   H     H_    0.941491 0.661169 0.650720 0.180742
H15   H     H_    0.679609 0.346915 0.364117 0.143171
H16   H     H_    0.738183 0.377975 0.719629 0.337057
H17   H     H_    0.133542 0.631976 0.129567 0.332073
H18   H     H_    0.243889 0.575370 0.250701 0.158261
H19   H     H_    0.686067 0.582557 0.142048 0.148197
H20   H     H_    0.749567 0.114816 0.624463 0.152462
H21   H     H_    0.436592 0.840267 0.459095 0.172742
H22   H     H_    0.313478 0.908788 0.497681 0.157785
H23   H     H_    0.181087 0.028103 0.474277 0.148606
H24   H     H_    0.312471 0.654844 0.637626 0.132560
H25   H     H_    0.460890 0.544052 0.781488 0.182285
H26   H     H_    0.137873 0.690646 0.674533 0.148459
N1    N     N_R   0.239390 0.551900 0.544730 -0.106585
N2    N     N_R   0.759950 0.448600 0.455730 -0.134174
O1    O     O_R   0.374950 0.371210 0.521360 -0.542158
O2    O     O_3   0.220642 0.232442 0.473849 -0.771987
O3    O     O_3   0.782885 0.432738 0.751926 -0.760750
O4    O     O_3   0.179323 0.637998 0.081734 -0.787815
O5    O     O_R   0.542050 0.338030 0.492790 -0.629434
O6    O     O_R   0.368720 0.526070 0.390200 -0.613256
O7    O     O_R   0.535820 0.492890 0.361630 -0.626817
O8    O     O_R   0.457950 0.661970 0.507210 -0.612606
O9    O     O_R   0.625050 0.628790 0.478640 -0.634815
O10   O     O_R   0.464180 0.507110 0.638370 -0.612697
O11   O     O_R   0.631280 0.473930 0.609800 -0.629593
O12   O     O_3   0.791029 0.784443 0.521683 -0.791692
Zn1   Zn    Zn3+2 0.388420 0.522150 0.519080 0.964203
Zn2   Zn    Zn3+2 0.611580 0.477850 0.480920 0.924601

loop_
_geom_bond_atom_site_label_1
_geom_bond_atom_site_label_2
_ccdc_geom_bond_type
C27   C29   A    
C1    O1    A    
C41   C42   A    
C19   C20   A    
C41   O4    S    
C10   O2    S    
C7    H25   S    
C45   C46   A    
C27   H4    S    
C48   H6    S    
C46   H1    S    
O1    Zn1   S    
C26   C27   A    
O6    Zn1   S    
C9    C16   S    
C18   C19   A    
C12   C43   A    
C3    C7    A    
C5    C6    A    
C11   H23   S    
C9    C22   A    
C13   H22   S    
C28   C40   S    
C1    O5    A    
C16   O8    A    
C25   H26   S    
C20   H13   S    
C36   H5    S    
C8    H10   S    
C35   C36   A    
C45   H8    S    
C26   N2    A    
C7    C40   A    
C22   O12   S    
C37   N1    A    
H17   O4    S    
C13   C14   A    
C14   C17   A    
H11   O2    S    
C47   H19   S    
C39   C42   A    
C38   N1    A    
C15   C20   A    
C38   H24   S    
C3    C44   A    
C34   C44   A    
C39   C43   A    
C10   C24   A    
C8    C18   A    
C21   H21   S    
C26   H15   S    
C29   C30   A    
C25   C38   A    
C8    C22   A    
C47   C48   A    
C12   C23   A    
C4    C39   S    
C28   O11   A    
C17   C18   A    
C19   H20   S    
C32   C37   A    
O5    Zn2   S    
C43   H7    S    
C15   C24   A    
C23   C46   A    
C28   O10   A    
C16   O9    A    
H16   O3    S    
C6    C40   A    
C2    C5    A    
O8    Zn1   S    
C12   C34   A    
C44   C45   A    
C29   H3    S    
O7    Zn2   S    
C5    H12   S    
C14   C15   A    
O10   Zn1   S    
O9    Zn2   S    
C23   C41   A    
H9    O12   S    
C2    C48   A    
C32   C33   A    
C2    C3    A    
C30   C32   A    
C37   H2    S    
C11   C13   A    
C9    C21   A    
C31   N2    A    
C30   C31   A    
C4    O7    A    
C33   C35   A    
C35   H14   S    
C17   C21   A    
C10   C11   A    
N1    Zn1   S    
C6    O3    S    
C4    O6    A    
C1    C24   S    
O11   Zn2   S    
C25   C33   A    
C42   H18   S    
C31   C36   A    
C34   C47   A    
N2    Zn2   S    
