data_mof_unit_23844.cif
_audit_creation_date              2012-12-10T17:02:45-0500
_audit_creation_method            fapswitch 2.2
_symmetry_space_group_name_H-M    P1
_symmetry_Int_Tables_number       1
_space_group_crystal_system       triclinic
_cell_length_a                    18.852751
_cell_length_b                    18.840186
_cell_length_c                    18.746775
_cell_angle_alpha                 109.21185
_cell_angle_beta                  108.912605
_cell_angle_gamma                 109.167541
_cell_volume                      5195.54827506

loop_
_atom_site_label
_atom_site_type_symbol
_atom_type_description
_atom_site_fract_x
_atom_site_fract_y
_atom_site_fract_z
_atom_type_partial_charge
C1    C     C_R   0.376230 0.380992 0.495329 0.761071
C2    C     C_3   0.810532 0.496201 0.805891 0.080559
C3    C     C_3   0.845211 0.530645 0.752100 -0.422724
C4    C     C_3   0.777274 0.556578 0.846299 -0.082203
C5    C     C_R   0.345038 0.407667 0.644911 0.428219
C6    C     C_R   0.311992 0.436976 0.697808 -0.217955
C7    C     C_R   0.236524 0.379450 0.688286 0.121371
C8    C     C_R   0.192630 0.294433 0.621290 -0.175523
C9    C     C_R   0.219398 0.269596 0.558998 0.000306
C10   C     C_R   0.289770 0.330956 0.563612 -0.026724
C11   C     C_R   0.179993 0.184265 0.494982 -0.080741
C12   C     C_R   0.619797 0.499313 0.618811 0.754508
C13   C     C_R   0.191243 0.163249 0.421234 0.015873
C14   C     C_R   0.243308 0.228610 0.410602 0.012971
C15   C     C_R   0.302288 0.312794 0.488844 -0.153479
C16   C     C_R   0.147313 0.076811 0.356648 -0.230662
C17   C     C_R   0.141189 0.051794 0.275801 0.081121
C18   C     C_R   0.174917 0.115370 0.254421 0.299309
C19   C     C_R   0.229544 0.204332 0.322275 -0.020754
C20   C     C_R   0.215119 0.441440 0.361817 -0.201172
C21   C     C_R   0.135048 0.415377 0.357917 0.223001
C22   C     C_R   0.073457 0.423923 0.301523 -0.153162
C23   C     C_R   0.618969 0.618304 0.499848 0.798273
C24   C     C_R   0.090392 0.454449 0.247335 -0.164405
C25   C     C_R   0.168189 0.472824 0.243413 0.098137
C26   C     C_R   0.233272 0.470658 0.305693 0.038433
C27   C     C_R   0.184943 0.498725 0.184030 -0.169989
C28   C     C_R   0.270232 0.531268 0.194818 -0.088137
C29   C     C_R   0.335288 0.531976 0.259737 -0.046891
C30   C     C_R   0.315940 0.500001 0.313152 -0.130712
C31   C     C_R   0.297100 0.570859 0.148318 0.437355
C32   C     C_R   0.380671 0.639570 0.191735 -0.219946
C33   C     C_R   0.443276 0.643265 0.259655 -0.255325
C34   C     C_R   0.383843 0.502521 0.380848 0.773884
C35   C     C_R   0.420683 0.572887 0.273954 0.370515
C36   C     C_R   0.600566 0.760193 0.484575 -0.223759
C37   C     C_R   0.596529 0.834645 0.492208 -0.210792
C38   C     C_R   0.668201 0.906567 0.512274 0.436436
C39   C     C_R   0.742057 0.901450 0.518563 -0.250286
C40   C     C_R   0.745480 0.824315 0.505336 0.006310
C41   C     C_R   0.676770 0.755646 0.496130 0.088681
C42   C     C_R   0.815607 0.814465 0.501041 -0.160875
C43   C     C_R   0.820765 0.739534 0.495162 0.057449
C44   C     C_R   0.759098 0.677678 0.500971 0.078071
C45   C     C_3   0.665218 0.399795 0.666693 -0.020081
C46   C     C_R   0.685745 0.684548 0.498674 -0.128996
C47   C     C_R   0.886171 0.724431 0.483541 -0.157140
C48   C     C_R   0.895232 0.654878 0.486517 -0.124508
C49   C     C_R   0.840045 0.599272 0.501472 -0.140420
C50   C     C_R   0.772765 0.610302 0.508805 -0.140771
C51   C     C_R   0.997970 0.381659 0.879137 0.840995
C52   C     C_R   0.878797 0.499535 0.877211 0.743449
C53   C     C_R   0.995631 0.618062 0.115918 0.754952
C54   C     C_R   0.116771 0.498909 0.116225 0.823299
C55   C     C_R   0.002765 0.883474 0.382781 0.749863
C56   C     C_3   0.735815 0.400981 0.741290 -0.024790
C57   C     C_R   0.117291 0.118068 0.499108 0.761067
C58   C     C_R   0.999479 0.119228 0.617320 0.756064
C59   C     C_R   0.881928 0.881454 0.500374 0.759342
C60   C     C_R   0.976160 0.383886 0.720401 -0.167383
C61   C     C_R   0.970809 0.389050 0.646721 -0.148280
C62   C     C_R   0.978732 0.330351 0.586484 -0.148951
C63   C     C_R   0.989229 0.264579 0.598316 -0.149036
C64   C     C_R   0.990973 0.255098 0.671065 0.091791
C65   C     C_R   0.988471 0.318464 0.735072 0.065418
C66   C     C_R   0.994961 0.184643 0.681503 -0.155704
C67   C     C_3   0.776334 0.539443 0.688254 -0.390951
C68   C     C_R   0.989769 0.174366 0.751348 0.079877
C69   C     C_R   0.997181 0.242292 0.819561 0.023904
C70   C     C_R   0.997106 0.314509 0.811383 -0.131266
C71   C     C_R   0.973953 0.096176 0.753273 -0.187309
C72   C     C_R   0.969656 0.087367 0.822875 -0.211865
C73   C     C_R   0.983990 0.156915 0.893458 0.426213
C74   C     C_R   0.001350 0.234581 0.893349 -0.180642
C75   C     C_R   0.158541 0.754042 0.276243 0.190329
C76   C     C_R   0.234559 0.834629 0.323927 0.190537
C77   C     C_R   0.233319 0.906863 0.374874 -0.228603
C78   C     C_3   0.700078 0.547185 0.774785 -0.404270
C79   C     C_R   0.158514 0.899114 0.377664 -0.211442
C80   C     C_R   0.079295 0.822218 0.318905 0.041581
C81   C     C_R   0.078286 0.751904 0.259992 0.009144
C82   C     C_R   0.001928 0.813569 0.318857 -0.151273
C83   C     C_R   0.924814 0.734954 0.263095 0.038134
C84   C     C_R   0.920610 0.669321 0.195119 0.077553
C85   C     C_R   0.997849 0.680715 0.190434 -0.184528
C86   C     C_R   0.851986 0.720291 0.275446 -0.164983
C87   C     C_R   0.774200 0.644283 0.218958 0.180413
C88   C     C_R   0.768082 0.581753 0.148654 -0.170459
C89   C     C_3   0.688434 0.495345 0.684221 0.066944
C90   C     C_R   0.839279 0.593953 0.136347 -0.205520
Cu1   Cu    Cu3+1 0.500360 0.438220 0.438540 0.973083
Cu2   Cu    Cu3+1 0.499640 0.561780 0.561460 1.006494
Cu3   Cu    Cu3+1 0.935530 0.438290 0.997340 0.966811
Cu4   Cu    Cu3+1 0.059130 0.561800 0.997250 1.022215
Cu5   Cu    Cu3+1 0.937870 0.000030 0.437890 0.955774
Cu6   Cu    Cu3+1 0.062130 0.000000 0.562130 0.977036
H1    H     H_    0.829959 0.623479 0.875424 0.149688
H2    H     H_    0.797124 0.608960 0.710590 0.163739
H3    H     H_    0.903945 0.594782 0.795072 0.191306
H4    H     H_    0.353045 0.498874 0.756236 0.180497
H5    H     H_    0.137801 0.248400 0.618176 0.124704
H6    H     H_    0.113681 0.026486 0.367538 0.143404
H7    H     H_    0.609039 0.377254 0.676313 0.139236
H8    H     H_    0.509836 0.684441 0.280780 0.176875
H9    H     H_    0.262859 0.438861 0.410101 0.131776
H10   H     H_    0.012415 0.408681 0.300587 0.135271
H11   H     H_    0.042378 0.467084 0.213193 0.171033
H12   H     H_    0.400886 0.677160 0.162136 0.184241
H13   H     H_    0.848678 0.546692 0.506371 0.127879
H14   H     H_    0.705426 0.382118 0.778309 0.177531
H15   H     H_    0.542822 0.706270 0.468475 0.164017
H16   H     H_    0.537712 0.836589 0.483825 0.177071
H17   H     H_    0.796635 0.958564 0.534616 0.186498
H18   H     H_    0.930692 0.765278 0.471324 0.150124
H19   H     H_    0.946136 0.644912 0.478503 0.136583
H20   H     H_    0.732523 0.565642 0.521267 0.131681
H21   H     H_    0.969149 0.431356 0.764488 0.131448
H22   H     H_    0.961527 0.439532 0.636931 0.130870
H23   H     H_    0.976998 0.335843 0.530305 0.139972
H24   H     H_    0.997502 0.223422 0.549914 0.158243
H25   H     H_    0.960540 0.039553 0.699510 0.166643
H26   H     H_    0.954688 0.026027 0.821117 0.175752
H27   H     H_    0.015788 0.287477 0.951252 0.200901
H28   H     H_    0.708115 0.522310 0.103597 0.138887
H29   H     H_    0.291428 0.968598 0.416258 0.162171
H30   H     H_    0.163643 0.955410 0.424020 0.167357
H31   H     H_    0.772233 0.513696 0.624044 0.174875
H32   H     H_    0.855011 0.766619 0.330468 0.141341
H33   H     H_    0.827125 0.541314 0.080564 0.186523
H34   H     H_    0.863693 0.486792 0.716081 0.167027
H35   H     H_    0.710367 0.612865 0.787785 0.189600
H36   H     H_    0.640696 0.514670 0.776387 0.256326
O1    O     O_R   0.410140 0.357660 0.448100 -0.603718
O2    O     O_R   0.049980 0.462000 0.907580 -0.514177
O3    O     O_R   0.854480 0.447890 0.906670 -0.594766
O4    O     O_R   0.958860 0.552200 0.906600 -0.605008
O5    O     O_R   0.944670 0.538090 0.087010 -0.608989
O6    O     O_R   0.049050 0.642400 0.086940 -0.578667
O7    O     O_R   0.035800 0.447890 0.088000 -0.587431
O8    O     O_R   0.140170 0.552200 0.087920 -0.554522
O9    O     O_R   0.948030 0.909890 0.357850 -0.590568
O10   O     O_R   0.052970 0.909860 0.462770 -0.585974
O11   O     O_R   0.037700 0.090200 0.447550 -0.591216
O12   O     O_R   0.409530 0.462000 0.551910 -0.562140
O13   O     O_R   0.142640 0.090170 0.552470 -0.569731
O14   O     O_R   0.947030 0.090160 0.537260 -0.577237
O15   O     O_R   0.051970 0.090130 0.642170 -0.579463
O16   O     O_R   0.857360 0.909860 0.447560 -0.589633
O17   O     O_R   0.962300 0.909830 0.552480 -0.583032
O18   O     O_R   0.590960 0.447830 0.538760 -0.615260
O19   O     O_R   0.590350 0.552170 0.642570 -0.533590
O20   O     O_R   0.590470 0.538000 0.448090 -0.535191
O21   O     O_R   0.589860 0.642340 0.551900 -0.596488
O22   O     O_R   0.409650 0.447830 0.357430 -0.537814
O23   O     O_R   0.409040 0.552170 0.461240 -0.606564
O24   O     O_R   0.945600 0.357690 0.907660 -0.594459
C91   C     C_3   0.630322 0.328240 0.572392 -0.314556
C92   C     C_3   0.684266 0.344653 0.527260 -0.780515
H37   H     H_    0.671190 0.383135 0.496317 0.254846
H38   H     H_    0.754063 0.377543 0.571334 0.230112
H39   H     H_    0.666614 0.282047 0.474946 0.241227
H40   H     H_    0.619409 0.266653 0.571978 0.211679
H41   H     H_    0.564364 0.312916 0.530178 0.210816
S1    S     S_3+6 0.142923 0.078582 0.140821 0.034455
O25   O     O_2   0.048905 0.014246 0.087927 -0.211817
O26   O     O_2   0.156783 0.147074 0.114780 -0.202744
O27   O     O_3   0.196934 0.028669 0.113246 -0.514797
H42   H     H_    0.242205 0.041450 0.168244 0.305976
S2    S     S_3+6 0.451306 0.432980 0.705261 -0.015013
O28   O     O_2   0.509842 0.522518 0.727858 -0.313197
O29   O     O_2   0.464201 0.431057 0.787942 -0.265021
O30   O     O_3   0.471666 0.359564 0.649552 -0.569792
H43   H     H_    0.489466 0.379985 0.612960 0.326022
C93   C     C_3   0.209303 0.406737 0.755335 -0.409592
C94   C     C_3   0.215478 0.359087 0.807145 -0.638379
H44   H     H_    0.177542 0.288371 0.764364 0.220239
H45   H     H_    0.283514 0.377094 0.845545 0.280576
H46   H     H_    0.189647 0.376720 0.851544 0.292367
H47   H     H_    0.250073 0.476960 0.801327 0.230541
H48   H     H_    0.143197 0.395479 0.723566 0.217753
C95   C     C_3   0.095241 0.955353 0.213732 -0.368252
C96   C     C_3   0.998827 0.912827 0.183119 -0.722222
H49   H     H_    0.986528 0.919795 0.238200 0.244923
H50   H     H_    0.968235 0.942162 0.149901 0.288043
H51   H     H_    0.968368 0.843076 0.137600 0.228170
H52   H     H_    0.105104 0.938875 0.156827 0.258635
H53   H     H_    0.123645 0.924755 0.246271 0.196491
C97   C     C_3   0.258599 0.269769 0.293627 -0.311244
C98   C     C_3   0.321191 0.261746 0.258619 -0.530701
H54   H     H_    0.389245 0.300974 0.308547 0.247310
H55   H     H_    0.311132 0.195566 0.229469 0.216866
H56   H     H_    0.312781 0.282460 0.208945 0.272342
H57   H     H_    0.201045 0.262718 0.244231 0.240288
H58   H     H_    0.284876 0.335356 0.343127 0.167675
C99   C     C_3   0.116027 0.379134 0.414488 -0.418800
C100  C     C_3   0.168028 0.447593 0.509688 -0.833077
H59   H     H_    0.237809 0.471434 0.533110 0.254427
H60   H     H_    0.154938 0.502414 0.519315 0.257107
H61   H     H_    0.149529 0.419326 0.548526 0.245149
H62   H     H_    0.046710 0.352160 0.395534 0.202870
H63   H     H_    0.131025 0.325498 0.405639 0.211669
S3    S     S_3+6 0.255161 0.510933 0.035608 0.020043
O31   O     O_2   0.225909 0.558335 0.992732 -0.264961
O32   O     O_2   0.324521 0.501195 0.017664 -0.260017
O33   O     O_3   0.173407 0.412693 0.995000 -0.580275
H64   H     H_    0.199963 0.382524 0.018766 0.362739
S4    S     S_3+6 0.465065 0.508500 0.236826 0.009703
O34   O     O_2   0.556099 0.545506 0.303594 -0.319418
O35   O     O_2   0.413141 0.416767 0.213584 -0.285277
O36   O     O_3   0.465732 0.509575 0.147691 -0.493308
H65   H     H_    0.483805 0.467120 0.125489 0.370892
S5    S     S_3+6 0.663915 0.001996 0.526372 -0.012916
O37   O     O_2   0.625041 0.021594 0.583751 -0.272176
O38   O     O_2   0.752151 0.076373 0.566464 -0.308930
O39   O     O_3   0.601498 0.987821 0.429851 -0.517948
H66   H     H_    0.628343 0.971908 0.394142 0.339428
S6    S     S_3+6 0.972429 0.146081 0.979253 0.054409
O40   O     O_2   0.051474 0.215874 0.063179 -0.226375
O41   O     O_2   0.896726 0.156014 0.980053 -0.297846
O42   O     O_3   0.957023 0.049212 0.968268 -0.437611
H67   H     H_    0.895882 0.008688 0.924536 0.341606
C101  C     C_3   0.767321 0.333894 0.713351 -0.431118
C102  C     C_3   0.717915 0.250534 0.712405 -0.696404
H68   H     H_    0.730534 0.263934 0.778864 0.247355
H69   H     H_    0.647820 0.220648 0.670282 0.249312
H70   H     H_    0.739813 0.204235 0.688405 0.299387
H71   H     H_    0.765371 0.317639 0.650612 0.241469
H72   H     H_    0.835545 0.359372 0.758031 0.190964
C103  C     C_3   0.167810 0.676829 0.275180 -0.414172
C104  C     C_3   0.199548 0.686216 0.365772 -0.835386
H73   H     H_    0.261062 0.746593 0.413468 0.254951
H74   H     H_    0.150910 0.686324 0.386924 0.258856
H75   H     H_    0.210353 0.631847 0.365602 0.251574
H76   H     H_    0.105977 0.616569 0.233221 0.188861
H77   H     H_    0.213139 0.669662 0.251600 0.205908
C105  C     C_3   0.318367 0.843636 0.326247 -0.413907
C106  C     C_3   0.311863 0.822184 0.237632 -0.790196
H78   H     H_    0.261731 0.754608 0.188999 0.253308
H79   H     H_    0.296002 0.866017 0.216252 0.254177
H80   H     H_    0.374321 0.830418 0.241492 0.253837
H81   H     H_    0.371569 0.910582 0.372921 0.231199
H82   H     H_    0.337137 0.801574 0.348367 0.211833
C107  C     C_3   0.698426 0.629987 0.234708 -0.373587
C108  C     C_3   0.665140 0.691229 0.222864 -0.744147
H83   H     H_    0.714334 0.759071 0.271724 0.243296
H84   H     H_    0.647539 0.683310 0.157086 0.258375
H85   H     H_    0.607281 0.676513 0.230960 0.271281
H86   H     H_    0.645276 0.562816 0.189477 0.225649
H87   H     H_    0.717527 0.639886 0.301316 0.226209
C109  C     C_3   0.762417 0.557137 0.923266 -0.397097
C110  C     C_3   0.693318 0.473188 0.906745 -0.742588
H88   H     H_    0.635348 0.439250 0.842925 0.278126
H89   H     H_    0.719183 0.429291 0.912911 0.243480
H90   H     H_    0.672480 0.488177 0.956157 0.239844
H91   H     H_    0.824398 0.578577 0.978167 0.189848
H92   H     H_    0.744442 0.607784 0.945092 0.224681

loop_
_geom_bond_atom_site_label_1
_geom_bond_atom_site_label_2
_ccdc_geom_bond_type
C8    C9    A    
C47   H18   S    
C66   C68   A    
C23   O20   A    
Cu5   O11   S    
C91   C92   S    
C107  H87   S    
C57   O13   A    
C3    H34   S    
Cu4   O8    S    
C73   C74   A    
Cu5   Cu6   S    
C17   C95   S    
C88   H28   S    
C49   C50   A    
C95   H53   S    
C27   C54   S    
C110  H88   S    
C94   H45   S    
C95   C96   S    
C108  H83   S    
S6    O42   S    
Cu6   O13   S    
C28   C29   A    
C37   C38   A    
S3    O32   D    
C55   O9    A    
C5    C6    A    
C36   C37   A    
C99   H62   S    
C10   C15   A    
O36   H65   S    
Cu1   O20   S    
C51   O2    A    
C100  H59   S    
C110  H89   S    
C5    C10   A    
C65   C70   A    
C33   H8    S    
C7    C93   S    
C67   C89   S    
C105  C106  S    
C104  H75   S    
Cu3   O24   S    
C18   C19   A    
S2    O28   D    
C105  H82   S    
C103  H76   S    
C75   C103  S    
C78   H36   S    
C93   C94   S    
C31   S3    S    
C45   H7    S    
C92   H39   S    
Cu4   O2    S    
C96   H49   S    
C90   H33   S    
C18   S1    S    
C84   C85   A    
C58   C66   S    
C54   O8    A    
C83   C84   A    
C45   C56   S    
C16   C17   A    
C39   H17   S    
S3    O33   S    
C107  C108  S    
S4    O36   S    
Cu4   O4    S    
C41   C46   A    
Cu2   O21   S    
C1    C15   S    
C51   C70   S    
Cu2   O23   S    
C29   C30   A    
C45   C89   S    
C8    H5    S    
C91   H41   S    
C50   H20   S    
C67   H2    S    
C69   C70   A    
C59   O16   A    
C40   C42   A    
C74   H27   S    
C97   H58   S    
O27   H42   S    
C23   C46   S    
C13   C14   A    
C92   H38   S    
S2    O29   D    
C12   O19   A    
C36   C41   A    
C101  C102  S    
Cu5   O14   S    
C84   C90   A    
C36   H15   S    
C100  H61   S    
C1    O1    A    
C56   H14   S    
O42   H67   S    
C103  C104  S    
C44   C46   A    
C94   H46   S    
C96   H50   S    
C59   O17   A    
C78   C89   S    
C109  H92   S    
C51   O24   A    
C102  H70   S    
S3    O31   D    
C57   O11   A    
C86   H32   S    
S4    O34   D    
C47   C48   A    
C12   O18   A    
C12   C89   S    
C7    C8    A    
C45   C91   S    
C24   C25   A    
C102  H68   S    
C80   C82   A    
Cu1   Cu2   S    
C30   C34   S    
C58   O15   A    
C72   C73   A    
C110  H90   S    
C99   C100  S    
C52   O4    A    
C25   C26   A    
C34   O23   A    
C21   C99   S    
C53   O6    A    
C97   C98   S    
C96   H51   S    
C64   C66   A    
C105  H81   S    
C103  H77   S    
C98   H56   S    
C2    C4    S    
C75   C76   A    
C28   C31   A    
C4    C78   S    
C62   C63   A    
Cu3   O7    S    
C67   H31   S    
C19   C97   S    
C87   C107  S    
C31   C32   A    
Cu1   O1    S    
S5    O39   S    
C101  H72   S    
Cu2   O19   S    
C102  H69   S    
C17   C18   A    
C77   C79   A    
C73   S6    S    
C69   C74   A    
C76   C105  S    
C24   H11   S    
C11   C57   S    
C76   C77   A    
C55   C82   S    
C104  H74   S    
C9    C11   A    
C62   H23   S    
C2    C52   S    
Cu1   O22   S    
C48   H19   S    
C16   H6    S    
C40   C41   A    
S6    O40   D    
C79   H30   S    
C88   C90   A    
C60   C65   A    
C82   C83   A    
C34   O22   A    
C106  H79   S    
C43   C44   A    
C60   H21   S    
C92   H37   S    
Cu4   O6    S    
S2    O30   S    
C53   O5    A    
C79   C80   A    
C106  H80   S    
S6    O41   D    
C42   C43   A    
C4    H1    S    
C93   H48   S    
C39   C40   A    
C77   H29   S    
O30   H43   S    
C49   H13   S    
C20   H9    S    
C9    C10   A    
C44   C50   A    
C98   H54   S    
Cu6   O15   S    
O33   H64   S    
S1    O25   D    
C72   H26   S    
C61   H22   S    
C86   C87   A    
C14   C19   A    
C68   C69   A    
C78   H35   S    
C3    C67   S    
Cu5   O16   S    
S5    O38   D    
C80   C81   A    
Cu3   O3    S    
C42   C59   S    
C97   H57   S    
Cu1   O18   S    
C53   C85   S    
C95   H52   S    
C58   O14   A    
Cu5   O9    S    
C6    C7    A    
C99   H63   S    
C6    H4    S    
C75   C81   A    
C25   C27   A    
Cu3   Cu4   S    
C29   C35   A    
C108  H85   S    
C32   C33   A    
C23   O21   A    
C2    C3    S    
C109  C110  S    
C4    C109  S    
C104  H73   S    
C1    O12   A    
C22   H10   S    
C64   C65   A    
C56   C101  S    
C63   H24   S    
C11   C13   A    
C38   C39   A    
C20   C26   A    
C101  H71   S    
C68   C71   A    
C48   C49   A    
Cu6   O17   S    
C93   H47   S    
S1    O26   D    
C33   C35   A    
C108  H84   S    
C54   O7    A    
C94   H44   S    
C22   C24   A    
S1    O27   S    
O39   H66   S    
C61   C62   A    
Cu2   O12   S    
C106  H78   S    
C100  H60   S    
Cu3   O5    S    
Cu6   O10   S    
C63   C64   A    
C3    H3    S    
C35   S4    S    
C83   C86   A    
C71   C72   A    
C20   C21   A    
C87   C88   A    
C107  H86   S    
C32   H12   S    
C13   C16   A    
C71   H25   S    
S4    O35   D    
C52   O3    A    
C5    S2    S    
C14   C15   A    
C60   C61   A    
C2    C56   S    
C38   S5    S    
C21   C22   A    
C43   C47   A    
C91   H40   S    
C81   C85   A    
C37   H16   S    
C109  H91   S    
S5    O37   D    
C98   H55   S    
C27   C28   A    
C26   C30   A    
C55   O10   A    
