data_mof_unit_32704.cif
_audit_creation_date              2012-12-10T17:41:01-0500
_audit_creation_method            fapswitch 2.2
_symmetry_space_group_name_H-M    P1
_symmetry_Int_Tables_number       1
_space_group_crystal_system       triclinic
_cell_length_a                    14.567053
_cell_length_b                    15.564021
_cell_length_c                    9.894293
_cell_angle_alpha                 88.957315
_cell_angle_beta                  91.232173
_cell_angle_gamma                 88.601815
_cell_volume                      2241.67324667

loop_
_atom_site_label
_atom_site_type_symbol
_atom_type_description
_atom_site_fract_x
_atom_site_fract_y
_atom_site_fract_z
_atom_type_partial_charge
C1    C     C_R   0.379363 0.878931 0.499170 0.876795
C2    C     C_R   0.747677 0.186621 0.382648 -0.255786
C3    C     C_R   0.247147 0.311631 0.377554 -0.239060
C4    C     C_R   0.247680 0.686619 0.382648 -0.255787
C5    C     C_R   0.715863 0.839355 0.502176 -0.188779
C6    C     C_R   0.711146 0.160175 0.504617 -0.164214
C7    C     C_R   0.215863 0.339355 0.502175 -0.188778
C8    C     C_R   0.211147 0.660174 0.504617 -0.164215
C9    C     C_R   0.333011 0.004016 0.136954 -0.185604
C10   C     C_R   0.833011 0.504017 0.136954 -0.185613
C11   C     C_R   0.250002 0.008726 0.064994 -0.238352
C12   C     C_R   0.395295 0.130439 0.498130 0.896309
C13   C     C_R   0.750002 0.508727 0.064993 -0.238360
C14   C     C_R   0.249691 0.016535 0.925622 -0.204010
C15   C     C_R   0.749691 0.516536 0.925622 -0.204005
C16   C     C_R   0.332266 0.014994 0.857396 -0.172422
C17   C     C_R   0.832266 0.514994 0.857396 -0.172419
C18   C     C_R   0.417449 0.006010 0.926025 0.172654
C19   C     C_R   0.917449 0.506010 0.926025 0.172651
C20   C     C_R   0.417561 0.003385 0.070518 0.170358
C21   C     C_R   0.917561 0.503385 0.070518 0.170366
C22   C     C_R   0.579009 0.995947 0.074617 -0.130439
C23   C     C_R   0.879363 0.378932 0.499170 0.876794
C24   C     C_R   0.079009 0.495948 0.074617 -0.130442
C25   C     C_R   0.629395 0.109352 0.501200 0.855414
C26   C     C_R   0.628703 0.887467 0.501636 0.871425
C27   C     C_R   0.129396 0.609351 0.501200 0.855417
C28   C     C_R   0.128703 0.387467 0.501636 0.871422
C29   C     C_R   0.578765 0.995160 0.931854 -0.120430
C30   C     C_R   0.078765 0.495161 0.931855 -0.120430
C31   C     C_R   0.406653 0.254092 0.726291 -0.147925
C32   C     C_R   0.269530 0.826633 0.735249 -0.122213
C33   C     C_R   0.906646 0.754087 0.726301 -0.147920
C34   C     C_R   0.895295 0.630439 0.498131 0.896310
C35   C     C_R   0.769528 0.326635 0.735248 -0.122209
C36   C     C_R   0.397617 0.305318 0.839477 -0.152862
C37   C     C_R   0.251103 0.789787 0.861251 -0.145957
C38   C     C_R   0.897607 0.805309 0.839490 -0.152873
C39   C     C_R   0.751101 0.289790 0.861250 -0.145960
C40   C     C_R   0.829692 0.869506 0.841050 -0.160932
C41   C     C_R   0.738130 0.201804 0.871634 -0.171548
C42   C     C_R   0.329698 0.369512 0.841044 -0.160936
C43   C     C_R   0.238132 0.701801 0.871634 -0.171548
C44   C     C_R   0.770188 0.881975 0.729875 -0.160973
C45   C     C_R   0.321452 0.255213 0.370909 0.164813
C46   C     C_R   0.732892 0.154234 0.754000 -0.125349
C47   C     C_R   0.270192 0.381978 0.729873 -0.160977
C48   C     C_R   0.232894 0.654232 0.754000 -0.125346
C49   C     C_R   0.774570 0.827995 0.617420 0.114315
C50   C     C_R   0.743138 0.194466 0.626236 0.107028
C51   C     C_R   0.274572 0.327997 0.617417 0.114317
C52   C     C_R   0.243139 0.694464 0.626236 0.107031
C53   C     C_R   0.344953 0.264306 0.614157 0.074476
C54   C     C_R   0.278783 0.776320 0.619700 0.052867
C55   C     C_R   0.844950 0.764304 0.614162 0.074477
C56   C     C_R   0.307726 0.754361 0.378163 0.161334
C57   C     C_R   0.778782 0.276321 0.619699 0.052871
C58   C     C_R   0.355460 0.217542 0.493765 -0.204439
C59   C     C_R   0.318470 0.805025 0.497053 -0.182229
C60   C     C_R   0.855460 0.717542 0.493768 -0.204438
C61   C     C_R   0.818468 0.305027 0.497052 -0.182234
C62   C     C_3   0.366061 0.245279 0.234473 -0.399675
C63   C     C_3   0.299097 0.212018 0.127851 -0.818034
C64   C     C_3   0.356214 0.767900 0.244840 -0.371867
C65   C     C_3   0.457187 0.738857 0.255441 -0.782490
C66   C     C_3   0.866063 0.745280 0.234477 -0.399681
C67   C     C_R   0.821454 0.755214 0.370912 0.164812
C68   C     C_3   0.799101 0.712016 0.127856 -0.818021
C69   C     C_3   0.856201 0.267910 0.244833 -0.371843
C70   C     C_3   0.957179 0.238871 0.255420 -0.782438
C71   C     C_R   0.807721 0.254365 0.378160 0.161322
C72   C     C_R   0.747149 0.811633 0.377555 -0.239059
H1    H     H_    0.185089 0.021611 0.869519 0.153168
H2    H     H_    0.769402 0.394475 0.724741 0.136108
H3    H     H_    0.445818 0.297488 0.923886 0.139846
H4    H     H_    0.246889 0.829140 0.950004 0.148326
H5    H     H_    0.945805 0.797476 0.923902 0.139848
H6    H     H_    0.746887 0.329145 0.950002 0.148326
H7    H     H_    0.825349 0.911909 0.926344 0.125633
H8    H     H_    0.726993 0.171447 0.969014 0.123416
H9    H     H_    0.325356 0.411915 0.926339 0.125632
H10   H     H_    0.226996 0.671443 0.969014 0.123416
H11   H     H_    0.726505 0.938222 0.727855 0.135736
H12   H     H_    0.685089 0.521612 0.869518 0.153167
H13   H     H_    0.720551 0.086564 0.762570 0.127753
H14   H     H_    0.226507 0.438224 0.727855 0.135736
H15   H     H_    0.220554 0.586561 0.762568 0.127749
H16   H     H_    0.714222 0.834440 0.284062 0.184804
H17   H     H_    0.729157 0.153989 0.290433 0.158359
H18   H     H_    0.214219 0.334438 0.284060 0.184806
H19   H     H_    0.229161 0.653987 0.290433 0.158357
H20   H     H_    0.643637 0.992742 0.130682 0.133238
H21   H     H_    0.143637 0.492744 0.130682 0.133239
H22   H     H_    0.328349 0.001855 0.244225 0.212402
H23   H     H_    0.326030 0.016445 0.750660 0.198679
H24   H     H_    0.828349 0.501856 0.244225 0.212402
H25   H     H_    0.185752 0.008791 0.118005 0.151871
H26   H     H_    0.685752 0.508792 0.118004 0.151872
H27   H     H_    0.253338 0.164220 0.173601 0.270739
H28   H     H_    0.255628 0.265629 0.084214 0.241643
H29   H     H_    0.337682 0.182490 0.044368 0.265611
H30   H     H_    0.388713 0.309607 0.199949 0.183170
H31   H     H_    0.429801 0.205130 0.238994 0.235225
H32   H     H_    0.493202 0.768490 0.341909 0.273721
H33   H     H_    0.462276 0.667907 0.269410 0.232706
H34   H     H_    0.826030 0.516445 0.750660 0.198679
H35   H     H_    0.492351 0.756868 0.160939 0.241819
H36   H     H_    0.324368 0.729474 0.163507 0.176130
H37   H     H_    0.347633 0.834624 0.206118 0.224062
H38   H     H_    0.753344 0.664215 0.173609 0.270739
H39   H     H_    0.755627 0.765624 0.084221 0.241642
H40   H     H_    0.837687 0.682490 0.044372 0.265608
H41   H     H_    0.888713 0.809608 0.199950 0.183169
H42   H     H_    0.929805 0.705133 0.239000 0.235224
H43   H     H_    0.993195 0.268497 0.341896 0.273714
H44   H     H_    0.962272 0.167920 0.269370 0.232693
H45   H     H_    0.643147 0.991178 0.882423 0.114903
H46   H     H_    0.992340 0.256894 0.160920 0.241812
H47   H     H_    0.824352 0.229486 0.163496 0.176118
H48   H     H_    0.847613 0.334636 0.206119 0.224052
H49   H     H_    0.143148 0.491181 0.882424 0.114902
H50   H     H_    0.465848 0.210970 0.724753 0.177575
H51   H     H_    0.269405 0.894473 0.724744 0.136112
H52   H     H_    0.965841 0.710965 0.724767 0.177577
N1    N     N_R   0.498810 0.000000 0.142780 -0.120051
N2    N     N_R   0.998810 0.500000 0.142780 -0.120050
N3    N     N_R   0.498740 0.000000 0.857170 -0.119272
N4    N     N_R   0.998740 0.500000 0.857170 -0.119272
O1    O     O_R   0.408390 0.908380 0.614690 -0.616464
O2    O     O_R   0.591620 0.908390 0.614640 -0.613255
O3    O     O_R   0.091620 0.591610 0.614640 -0.642236
O4    O     O_R   0.091620 0.408390 0.614640 -0.613254
O5    O     O_R   0.591610 0.091610 0.385310 -0.630541
O6    O     O_R   0.591610 0.908390 0.385310 -0.623541
O7    O     O_R   0.091610 0.591610 0.385310 -0.630541
O8    O     O_R   0.091610 0.408390 0.385310 -0.623545
O9    O     O_R   0.408390 0.091620 0.614690 -0.649413
O10   O     O_R   0.908390 0.408380 0.614690 -0.616462
O11   O     O_R   0.908390 0.591620 0.614690 -0.649416
O12   O     O_R   0.408370 0.908380 0.385360 -0.626586
O13   O     O_R   0.408370 0.091620 0.385360 -0.629251
O14   O     O_R   0.908370 0.408380 0.385360 -0.626585
O15   O     O_R   0.908370 0.591620 0.385360 -0.629248
O16   O     O_R   0.591620 0.091610 0.614640 -0.642237
Zn1   Zn    Zn3+2 0.500010 0.000000 0.653130 0.920333
Zn2   Zn    Zn3+2 0.000010 0.500000 0.653130 0.920333
Zn3   Zn    Zn3+2 0.499980 0.000000 0.346870 0.911433
Zn4   Zn    Zn3+2 0.999980 0.500000 0.346870 0.911431

loop_
_geom_bond_atom_site_label_1
_geom_bond_atom_site_label_2
_ccdc_geom_bond_type
C44   C49   A    
C33   C55   A    
C66   C68   S    
C35   H2    S    
C66   H41   S    
C27   O3    A    
C34   O11   A    
C23   O10   A    
C36   C42   A    
C63   H29   S    
C44   H11   S    
C41   H8    S    
C39   C41   A    
O6    Zn3   S    
C62   C63   S    
C17   H34   S    
C3    H18   S    
O9    Zn1   S    
C22   C29   A    
O10   Zn2   S    
C5    C72   A    
C3    C7    A    
C1    C59   S    
C11   C14   A    
C6    C25   S    
C45   C62   S    
C12   O13   A    
O3    Zn2   S    
C15   C17   A    
C67   C72   A    
C68   H40   S    
C32   C54   A    
C13   H26   S    
C69   C71   S    
C63   H27   S    
C19   N4    A    
C60   C67   A    
C33   H52   S    
C41   C46   A    
C56   C64   S    
C23   O14   A    
O5    Zn3   S    
C25   O5    A    
C43   C48   A    
C8    C52   A    
C31   C36   A    
O1    Zn1   S    
C26   O2    A    
C4    C8    A    
C4    H19   S    
C12   C58   S    
C61   C71   A    
C66   C67   S    
C55   C60   A    
C4    C56   A    
O2    Zn1   S    
C34   C60   S    
C32   H51   S    
C5    C49   A    
C2    C6    A    
C42   H9    S    
C39   H6    S    
O12   Zn3   S    
C65   H33   S    
C72   H16   S    
C52   C54   A    
C64   H36   S    
C54   C59   A    
C10   C21   A    
O15   Zn4   S    
C34   O15   A    
C30   N4    A    
C45   C58   A    
C48   H15   S    
C47   H14   S    
O14   Zn4   S    
O11   Zn2   S    
N1    Zn3   S    
N2    Zn4   S    
C22   N1    A    
C47   C51   A    
C70   H44   S    
C49   C55   A    
C29   H45   S    
C3    C45   A    
C31   C53   A    
C7    C28   S    
C51   C53   A    
C68   H39   S    
C37   C43   A    
C2    H17   S    
C35   C39   A    
C14   H1    S    
C63   H28   S    
C26   O6    A    
C36   H3    S    
C18   N3    A    
C9    C20   A    
C30   H49   S    
C10   H24   S    
C40   H7    S    
C68   H38   S    
C32   C37   A    
C6    C50   A    
C9    C11   A    
O8    Zn4   S    
C1    O12   A    
N3    Zn1   S    
C37   H4    S    
C29   N3    A    
C14   C16   A    
C25   O16   A    
C2    C71   A    
C62   H31   S    
C23   C61   S    
C24   N2    A    
C16   H23   S    
C66   H42   S    
C19   C21   A    
C28   O8    A    
C50   C57   A    
C31   H50   S    
O16   Zn1   S    
C10   C13   A    
C53   C58   A    
C57   C61   A    
C15   H12   S    
C38   H5    S    
C70   H43   S    
C46   C50   A    
C69   H48   S    
C1    O1    A    
C33   C38   A    
C56   C59   A    
C11   H25   S    
C35   C57   A    
C27   O7    A    
C64   C65   S    
C46   H13   S    
C13   C15   A    
O4    Zn2   S    
C20   N1    A    
C24   H21   S    
C38   C40   A    
N4    Zn2   S    
C64   H37   S    
C70   H46   S    
C17   C19   A    
C69   H47   S    
C18   C20   A    
C42   C47   A    
C69   C70   S    
C24   C30   A    
O13   Zn3   S    
C7    C51   A    
C5    C26   S    
C40   C44   A    
C16   C18   A    
O7    Zn4   S    
C8    C27   S    
C22   H20   S    
C12   O9    A    
C65   H32   S    
C28   O4    A    
C21   N2    A    
C48   C52   A    
C9    H22   S    
C65   H35   S    
C43   H10   S    
C62   H30   S    
