data_mof_unit_43441.cif
_audit_creation_date              2012-12-10T20:27:56-0500
_audit_creation_method            fapswitch 2.2
_symmetry_space_group_name_H-M    P1
_symmetry_Int_Tables_number       1
_space_group_crystal_system       triclinic
_cell_length_a                    12.891601
_cell_length_b                    10.611348
_cell_length_c                    9.926538
_cell_angle_alpha                 88.849891
_cell_angle_beta                  95.394435
_cell_angle_gamma                 90.672307
_cell_volume                      1351.57064493

loop_
_atom_site_label
_atom_site_type_symbol
_atom_type_description
_atom_site_fract_x
_atom_site_fract_y
_atom_site_fract_z
_atom_type_partial_charge
C1    C     C_R   0.499303 0.260527 0.501013 0.885898
C2    C     C_R   0.592834 0.936824 0.481691 -0.219091
C3    C     C_R   0.499935 0.871118 0.495813 -0.044478
C4    C     C_R   0.297552 0.498583 0.475369 0.938259
C5    C     C_R   0.406244 0.933133 0.501878 0.062564
C6    C     C_3   0.332985 0.923824 0.610891 -0.326043
C7    C     C_3   0.328493 0.067796 0.604000 -0.322778
C8    C     C_R   0.447671 0.408884 0.066284 0.157366
C9    C     C_R   0.543003 0.597602 0.074605 -0.143090
C10   C     C_R   0.544441 0.596989 0.930461 0.436053
C11   C     C_R   0.445026 0.410980 0.924339 0.100857
C12   C     C_R   0.024098 0.438324 0.566643 0.071885
C13   C     C_3   0.457625 0.272407 0.919881 -0.537241
C14   C     C_3   0.466481 0.270154 0.073796 0.286974
C15   C     C_R   0.500218 0.739322 0.498950 0.879192
C16   C     C_R   0.700270 0.486429 0.525382 0.877863
C17   C     C_R   0.808991 0.451548 0.540613 -0.165171
C18   C     C_R   0.184148 0.482868 0.463232 -0.247943
C19   C     C_R   0.024186 0.441722 0.319644 -0.217548
C20   C     C_R   0.129262 0.478904 0.332520 0.422792
C21   C     C_R   0.131476 0.458283 0.580823 -0.124925
C22   C     C_2   0.226197 0.124850 0.547596 0.983870
C23   C     C_R   0.970059 0.439539 0.436169 0.024087
C24   C     C_2   0.589556 0.705466 0.149138 1.001609
C25   C     C_3   0.690145 0.707993 0.875850 0.118613
C26   C     C_3   0.724488 0.844945 0.862976 -0.785935
C27   C     C_3   0.582658 0.111597 0.135587 0.145164
C28   C     C_3   0.697587 0.083781 0.169510 -0.748084
C29   C     C_2   0.806293 0.388020 0.789021 0.934113
C30   C     C_2   0.975805 0.388394 0.190119 0.969571
C31   C     C_3   0.158361 0.620582 0.160213 0.139271
C32   C     C_3   0.259021 0.694834 0.147509 -0.697413
C33   C     C_2   0.185068 0.461827 0.720045 0.978306
C34   C     C_R   0.862497 0.450704 0.424932 -0.139879
C35   C     C_2   0.231938 0.855088 0.572129 1.009693
C36   C     C_R   0.860943 0.420136 0.668102 -0.050017
C37   C     C_R   0.968526 0.419233 0.681003 -0.152070
C38   C     C_R   0.405884 0.062839 0.501136 0.070403
C39   C     C_R   0.499910 0.128480 0.501703 -0.082264
C40   C     C_R   0.593066 0.066969 0.486521 -0.196797
H1    H     H_    0.821340 0.468666 0.326282 0.209268
H2    H     H_    0.139950 0.202787 0.388084 0.345843
H3    H     H_    0.708097 0.771417 0.276411 0.314901
H4    H     H_    0.720705 0.655956 0.792989 0.195636
H5    H     H_    0.726934 0.668850 0.973459 0.150698
H6    H     H_    0.695056 0.900598 0.944527 0.262480
H7    H     H_    0.810885 0.851375 0.871474 0.228455
H8    H     H_    0.693319 0.885124 0.763373 0.261921
H9    H     H_    0.557337 0.066563 0.037275 0.164960
H10   H     H_    0.537354 0.068875 0.214935 0.184003
H11   H     H_    0.708499 0.981812 0.191514 0.211035
H12   H     H_    0.372916 0.886981 0.707834 0.180981
H13   H     H_    0.741060 0.110494 0.081807 0.252168
H14   H     H_    0.729220 0.137598 0.259186 0.277558
H15   H     H_    0.781182 0.430970 0.979733 0.342439
H16   H     H_    0.875212 0.262100 0.100829 0.353450
H17   H     H_    0.105245 0.677794 0.216468 0.117192
H18   H     H_    0.119513 0.609373 0.056495 0.210641
H19   H     H_    0.312559 0.640425 0.090279 0.225833
H20   H     H_    0.241444 0.785654 0.093113 0.225130
H21   H     H_    0.298585 0.715078 0.248765 0.286196
H22   H     H_    0.247729 0.568152 0.872890 0.330075
H23   H     H_    0.361663 0.112009 0.698348 0.151152
H24   H     H_    0.138369 0.766465 0.430338 0.328776
H25   H     H_    0.384785 0.226182 0.877463 0.201875
H26   H     H_    0.529649 0.244833 0.874892 0.252097
H27   H     H_    0.403330 0.217239 0.120605 0.114779
H28   H     H_    0.007641 0.404630 0.781366 0.201945
H29   H     H_    0.665285 0.119341 0.481418 0.165314
H30   H     H_    0.665060 0.887605 0.473664 0.142455
N1    N     N_R   0.499290 0.499140 0.142710 -0.152977
N2    N     N_R   0.499290 0.499180 0.857070 -0.132856
O1    O     O_R   0.500010 0.316790 0.614690 -0.616340
O2    O     O_R   0.212869 0.170308 0.413897 -0.799158
O3    O     O_2   0.548513 0.808682 0.134703 -0.663536
O4    O     O_R   0.682774 0.690596 0.231263 -0.810357
O5    O     O_3   0.579998 0.701926 0.862877 -0.584237
O6    O     O_3   0.568868 0.243387 0.129420 -0.575438
O7    O     O_2   0.740990 0.303265 0.784325 -0.628146
O8    O     O_R   0.828630 0.455633 0.907501 -0.813376
O9    O     O_2   0.009443 0.415876 0.082240 -0.576249
O10   O     O_R   0.896129 0.298210 0.193213 -0.817995
O11   O     O_3   0.181117 0.499065 0.217342 -0.562918
O12   O     O_R   0.500000 0.316760 0.385350 -0.588517
O13   O     O_2   0.206833 0.363470 0.781964 -0.612993
O14   O     O_R   0.209702 0.577931 0.779378 -0.764563
O15   O     O_2   0.169315 0.840339 0.656374 -0.557045
O16   O     O_R   0.209173 0.809413 0.441803 -0.837979
O17   O     O_R   0.346360 0.499990 0.595720 -0.619732
O18   O     O_R   0.346350 0.499960 0.366370 -0.566195
O19   O     O_R   0.500000 0.683240 0.614650 -0.567421
O20   O     O_R   0.499990 0.683210 0.385310 -0.618714
O21   O     O_R   0.653650 0.500040 0.633630 -0.627166
O22   O     O_R   0.653640 0.500010 0.404280 -0.568808
O23   O     O_2   0.154772 0.130702 0.619881 -0.565213
Zn1   Zn    Zn3+2 0.500010 0.500020 0.653130 1.016943
Zn2   Zn    Zn3+2 0.499990 0.499980 0.346870 1.028100

loop_
_geom_bond_atom_site_label_1
_geom_bond_atom_site_label_2
_ccdc_geom_bond_type
C18   C21   A    
C22   O23   D    
C19   C20   A    
C27   O6    S    
C13   H25   S    
C1    O12   A    
N1    Zn2   S    
C12   C23   A    
C16   O21   A    
C25   O5    S    
O12   Zn2   S    
C31   H18   S    
C36   C37   A    
C32   H21   S    
C38   C39   A    
C28   H11   S    
C21   C33   S    
C37   H28   S    
C31   O11   S    
C6    C35   S    
C12   C37   A    
C33   O13   D    
O19   Zn1   S    
C35   O15   D    
C16   C17   S    
C29   O7    D    
C14   H27   S    
C17   C36   A    
C13   C14   S    
C9    C10   A    
O18   Zn2   S    
C27   H10   S    
C26   H8    S    
C4    C18   S    
C15   O20   A    
C5    C38   A    
C34   H1    S    
C25   H4    S    
C10   O5    S    
O20   Zn2   S    
C4    O18   A    
C13   H26   S    
H2    O2    S    
C40   H29   S    
C39   C40   A    
C28   H14   S    
C11   N2    A    
C24   O4    S    
O22   Zn2   S    
C25   C26   S    
C12   C21   A    
C30   O10   S    
C19   C23   A    
C33   O14   S    
H22   O14   S    
C35   O16   S    
C1    C39   S    
C31   C32   S    
C29   C36   S    
C23   C34   A    
C24   O3    D    
C7    H23   S    
C26   H7    S    
O21   Zn1   S    
C17   C34   A    
C32   H20   S    
C25   H5    S    
C3    C15   S    
C4    O17   A    
H3    O4    S    
C8    N1    A    
C8    C14   S    
C9    N1    A    
C3    C5    A    
C28   H13   S    
C9    C24   S    
H16   O10   S    
C6    C7    S    
C7    C22   S    
C16   O22   A    
O1    Zn1   S    
C1    O1    A    
C31   H17   S    
C30   O9    D    
C2    C3    A    
H15   O8    S    
C11   C13   S    
C5    C6    S    
C29   O8    S    
O17   Zn1   S    
C8    C11   A    
C7    C38   S    
C18   C20   A    
C14   O6    S    
C26   H6    S    
C15   O19   A    
N2    Zn1   S    
C2    C40   A    
C20   O11   S    
C27   C28   S    
C22   O2    S    
C32   H19   S    
C6    H12   S    
C2    H30   S    
C19   C30   S    
H24   O16   S    
C27   H9    S    
C10   N2    A    
