data_mof_unit_64562.cif
_audit_creation_date              2012-12-10T19:16:37-0500
_audit_creation_method            fapswitch 2.2
_symmetry_space_group_name_H-M    P1
_symmetry_Int_Tables_number       1
_space_group_crystal_system       triclinic
_cell_length_a                    44.258594
_cell_length_b                    38.901005
_cell_length_c                    21.28014
_cell_angle_alpha                 90.00793
_cell_angle_beta                  61.545796
_cell_angle_gamma                 89.983653
_cell_volume                      32212.1473498

loop_
_atom_site_label
_atom_site_type_symbol
_atom_type_description
_atom_site_fract_x
_atom_site_fract_y
_atom_site_fract_z
_atom_type_partial_charge
C1    C     C_R   0.067226 0.499956 0.432506 0.903832
C2    C     C_R   0.622902 0.499035 0.935013 -0.192066
C3    C     C_R   0.567271 0.499978 0.932922 0.872314
C4    C     C_R   0.932732 0.999982 0.067059 0.873018
C5    C     C_R   0.067268 0.999985 0.932940 0.873018
C6    C     C_R   0.500002 0.567152 0.000002 0.869449
C7    C     C_R   0.000005 0.067160 0.000013 0.869510
C8    C     C_R   0.497289 0.622787 0.059517 -0.190180
C9    C     C_R   0.502758 0.622775 0.940457 -0.189886
C10   C     C_R   0.999251 0.122724 0.058021 -0.189705
C11   C     C_R   0.000893 0.122903 0.942344 -0.190153
C12   C     C_R   0.497261 0.658488 0.059519 -0.177249
C13   C     C_R   0.877264 0.998374 0.064513 -0.189908
C14   C     C_R   0.502817 0.658476 0.940427 -0.177310
C15   C     C_R   0.999279 0.158421 0.058186 -0.177632
C16   C     C_R   0.000980 0.158615 0.942504 -0.177194
C17   C     C_R   0.500045 0.676514 0.999967 0.116018
C18   C     C_R   0.000152 0.176531 0.000441 0.115576
C19   C     C_R   0.500015 0.604704 0.999995 -0.036137
C20   C     C_R   0.000041 0.104726 0.000107 -0.036519
C21   C     C_R   0.480409 0.732169 0.975105 -0.183462
C22   C     C_R   0.519694 0.732160 0.024808 -0.183517
C23   C     C_R   0.977296 0.232081 0.062246 -0.183854
C24   C     C_R   0.122744 0.998418 0.935466 -0.189942
C25   C     C_R   0.023148 0.232196 0.939419 -0.183894
C26   C     C_3   0.984521 0.471035 0.785812 -0.266311
C27   C     C_3   0.000632 0.467453 0.228227 -0.257407
C28   C     C_3   0.505277 0.968021 0.765964 -0.248975
C29   C     C_3   0.494717 0.968018 0.234023 -0.248946
C30   C     C_R   0.977314 0.267783 0.062491 -0.184296
C31   C     C_R   0.023219 0.267899 0.939718 -0.184092
C32   C     C_R   0.480431 0.767866 0.975047 -0.183572
C33   C     C_R   0.519672 0.767859 0.024862 -0.183562
C34   C     C_R   0.000278 0.285855 0.001232 0.105709
C35   C     C_R   0.341458 0.496866 0.100435 -0.208832
C36   C     C_R   0.500050 0.785890 0.999958 0.105789
C37   C     C_R   0.500050 0.714131 0.999959 0.106441
C38   C     C_R   0.000192 0.214124 0.000689 0.105823
C39   C     C_R   0.031309 0.341512 0.973530 -0.177065
C40   C     C_R   0.969031 0.341404 0.029078 -0.178520
C41   C     C_R   0.531009 0.841520 0.975958 -0.174065
C42   C     C_R   0.469061 0.841526 0.024001 -0.174070
C43   C     C_R   0.031255 0.377214 0.973208 -0.193503
C44   C     C_R   0.968950 0.377107 0.028733 -0.193278
C45   C     C_R   0.531011 0.877214 0.975915 -0.197293
C46   C     C_R   0.658612 0.498790 0.899723 -0.207522
C47   C     C_R   0.469038 0.877219 0.024056 -0.197251
C48   C     C_R   0.000070 0.395239 0.000674 -0.033159
C49   C     C_R   0.500019 0.895278 0.999987 -0.031651
C50   C     C_R   0.000207 0.323447 0.001373 0.115296
C51   C     C_R   0.500040 0.823498 0.999974 0.115538
C52   C     C_R   0.488281 0.377138 0.958778 -0.191652
C53   C     C_R   0.511693 0.377128 0.041224 -0.191470
C54   C     C_R   0.998480 0.876904 0.944468 -0.191199
C55   C     C_R   0.001460 0.876852 0.055421 -0.191369
C56   C     C_R   0.487995 0.341408 0.959247 -0.175343
C57   C     C_R   0.841574 0.998011 0.099456 -0.209187
C58   C     C_R   0.511952 0.341397 0.040780 -0.175370
C59   C     C_R   0.998436 0.841173 0.944465 -0.177634
C60   C     C_R   0.001458 0.841118 0.055337 -0.177501
C61   C     C_R   0.499966 0.323233 0.000022 0.118827
C62   C     C_R   0.999935 0.823070 0.999878 0.118333
C63   C     C_3   0.999872 0.500050 0.810869 -0.043390
C64   C     C_3   0.000172 0.500424 0.188959 -0.039555
C65   C     C_3   0.499705 0.000515 0.811207 -0.039535
C66   C     C_3   0.500295 0.000508 0.188793 -0.039531
C67   C     C_R   0.499993 0.395164 0.999996 -0.032242
C68   C     C_R   0.158434 0.998085 0.900510 -0.209186
C69   C     C_R   0.999981 0.894993 0.999965 -0.037744
C70   C     C_R   0.491396 0.267265 0.063380 -0.193397
C71   C     C_R   0.508503 0.267244 0.936702 -0.193319
C72   C     C_R   0.979423 0.767300 0.063103 -0.193039
C73   C     C_R   0.020384 0.767300 0.936495 -0.192959
C74   C     C_R   0.979445 0.731571 0.063075 -0.181831
C75   C     C_R   0.020356 0.731570 0.936447 -0.181562
C76   C     C_R   0.491673 0.231536 0.063213 -0.180553
C77   C     C_R   0.508219 0.231515 0.936887 -0.180557
C78   C     C_R   0.999907 0.713521 0.999749 0.175104
C79   C     C_R   0.323419 0.499485 0.175035 0.133336
C80   C     C_R   0.499946 0.213594 0.000053 0.173910
C81   C     C_R   0.499953 0.285426 0.000036 0.107500
C82   C     C_R   0.999912 0.785378 0.999823 0.106058
C83   C     C_R   0.997603 0.657802 0.945278 -0.266880
C84   C     C_R   0.002417 0.657905 0.054234 -0.268078
C85   C     C_R   0.480225 0.158204 0.975434 -0.270180
C86   C     C_R   0.519690 0.158207 0.024670 -0.270102
C87   C     C_R   0.998322 0.621927 0.944266 0.465295
C88   C     C_R   0.001771 0.622027 0.055394 0.464826
C89   C     C_R   0.480336 0.122364 0.974669 0.475997
C90   C     C_R   0.676626 0.499347 0.824943 0.136341
C91   C     C_R   0.519604 0.122368 0.025406 0.475973
C92   C     C_R   0.000004 0.604186 0.999928 -0.258061
C93   C     C_R   0.499978 0.104420 0.000027 -0.275872
C94   C     C_R   0.999956 0.675864 0.999767 -0.041645
C95   C     C_R   0.499952 0.176094 0.000056 -0.048049
C96   C     C_3   0.032787 0.500886 0.738572 -0.138143
C97   C     C_3   0.971498 0.516135 0.257586 -0.138356
C98   C     C_3   0.524879 0.021252 0.745927 -0.134171
C99   C     C_3   0.475124 0.021268 0.254081 -0.134214
C100  C     C_3   0.015938 0.528805 0.713690 -0.239151
C101  C     C_R   0.823388 0.999107 0.174192 0.133001
C102  C     C_3   0.999468 0.532982 0.271325 -0.220686
C103  C     C_3   0.494228 0.032615 0.734963 -0.239115
C104  C     C_3   0.505778 0.032600 0.265049 -0.239065
C105  C     C_3   0.983035 0.528182 0.787187 -0.241971
C106  C     C_3   0.028206 0.517482 0.201385 -0.239633
C107  C     C_3   0.468921 0.012084 0.801673 -0.274557
C108  C     C_3   0.531081 0.012045 0.198332 -0.274539
C109  C     C_3   0.968401 0.499225 0.760718 0.548714
C110  C     C_3   0.028120 0.484812 0.241896 0.544319
C111  C     C_3   0.474957 0.979998 0.755297 0.556208
C112  C     C_R   0.932782 0.499978 0.567637 0.911952
C113  C     C_R   0.176613 0.999192 0.825776 0.132997
C114  C     C_3   0.525039 0.979964 0.244695 0.556169
C115  C     C_3   0.294367 0.423456 0.246828 0.081357
C116  C     C_3   0.266497 0.395707 0.278096 -0.358478
C117  C     C_3   0.277762 0.362856 0.233609 -0.959958
C118  C     C_3   0.706886 0.421382 0.763985 0.088127
C119  C     C_3   0.734143 0.393098 0.731766 -0.361266
C120  C     C_3   0.724971 0.362140 0.781532 -0.970820
C121  C     C_3   0.794464 0.921868 0.237931 0.081153
C122  C     C_3   0.766431 0.894206 0.265111 -0.358174
C123  C     C_3   0.778101 0.862324 0.217641 -0.960960
C124  C     C_R   0.341305 0.502684 0.214119 -0.109855
C125  C     C_3   0.205611 0.921959 0.761944 0.081158
C126  C     C_3   0.233667 0.894297 0.734705 -0.358200
C127  C     C_3   0.222035 0.862418 0.782143 -0.960850
C128  C     C_3   0.184773 0.432403 0.233503 0.073019
C129  C     C_3   0.158445 0.409780 0.225738 -0.345918
C130  C     C_3   0.170022 0.401355 0.147531 -0.975631
C131  C     C_3   0.824922 0.432676 0.768980 0.067621
C132  C     C_3   0.797355 0.406148 0.812330 -0.313493
C133  C     C_3   0.797744 0.397197 0.881730 -0.977962
C134  C     C_3   0.683524 0.934562 0.225696 0.069287
C135  C     C_R   0.658725 0.500459 0.785630 -0.108983
C136  C     C_3   0.655131 0.916069 0.217120 -0.347094
C137  C     C_3   0.665902 0.909440 0.138599 -0.978185
C138  C     C_3   0.316475 0.934672 0.774299 0.069294
C139  C     C_3   0.344863 0.916168 0.782902 -0.347096
C140  C     C_3   0.334082 0.909566 0.861430 -0.978171
C141  C     C_3   0.027724 0.603701 0.829508 -0.342234
C142  C     C_3   0.973155 0.604235 0.170591 -0.339795
C143  C     C_3   0.479265 0.100546 0.877057 -0.316526
C144  C     C_3   0.520683 0.100547 0.122998 -0.316442
C145  C     C_3   0.909678 0.494077 0.836787 0.076903
C146  C     C_R   0.841121 0.000881 0.213806 -0.109393
C147  C     C_3   0.893230 0.458769 0.843519 -0.339605
C148  C     C_3   0.863658 0.452892 0.918628 -0.980774
C149  C     C_3   0.078369 0.454945 0.169925 0.068131
C150  C     C_3   0.076076 0.415689 0.173634 -0.329352
C151  C     C_3   0.095669 0.399644 0.099436 -0.978149
C152  C     C_3   0.431212 0.941493 0.822113 0.061999
C153  C     C_3   0.440143 0.903197 0.811129 -0.331683
C154  C     C_3   0.425168 0.884042 0.882263 -0.974967
C155  C     C_3   0.568780 0.941419 0.177862 0.062005
C156  C     C_3   0.559845 0.903131 0.188823 -0.331670
C157  C     C_R   0.158871 0.000951 0.786177 -0.109392
C158  C     C_3   0.574829 0.883963 0.117679 -0.975001
C159  C     C_R   0.377011 0.502831 0.178922 -0.219379
C160  C     C_R   0.623018 0.500679 0.820833 -0.218759
C161  C     C_R   0.876841 0.001190 0.178918 -0.220130
C162  C     C_R   0.123152 0.001230 0.821076 -0.220111
C163  C     C_R   0.395172 0.499998 0.104191 -0.036678
C164  C     C_R   0.567220 0.999951 0.432518 0.899539
C165  C     C_R   0.604858 0.499914 0.895786 -0.037552
C166  C     C_R   0.895150 0.999877 0.104012 -0.037428
C167  C     C_R   0.104850 0.999903 0.895980 -0.037428
C168  C     C_R   0.267614 0.475840 0.269089 0.471500
C169  C     C_R   0.732429 0.474306 0.734179 0.467283
C170  C     C_R   0.767512 0.974201 0.265239 0.472264
C171  C     C_R   0.232510 0.974298 0.734686 0.472268
C172  C     C_R   0.231864 0.477104 0.305531 -0.205291
C173  C     C_R   0.768167 0.475638 0.697226 -0.194448
C174  C     C_R   0.731750 0.975384 0.301454 -0.204246
C175  C     C_R   0.432780 0.999964 0.567484 0.899546
C176  C     C_R   0.268270 0.975483 0.698471 -0.204209
C177  C     C_R   0.214139 0.499354 0.282796 0.049364
C178  C     C_R   0.785892 0.499668 0.716375 0.065478
C179  C     C_R   0.714101 0.998842 0.280874 0.049079
C180  C     C_R   0.285900 0.998944 0.719077 0.049090
C181  C     C_R   0.000320 0.499991 0.621312 0.920246
C182  C     C_R   0.000136 0.500006 0.378204 0.912145
C183  C     C_R   0.499683 0.000014 0.621982 0.904067
C184  C     C_R   0.500317 0.000010 0.378018 0.904067
C185  C     C_R   0.232295 0.521484 0.225005 -0.214115
C186  C     C_3   0.000618 0.500028 0.688495 -0.028447
C187  C     C_R   0.767738 0.523433 0.770928 -0.209753
C188  C     C_R   0.732343 0.022142 0.225432 -0.213832
C189  C     C_R   0.267639 0.022250 0.774535 -0.213855
C190  C     C_R   0.267974 0.521330 0.190015 -0.251229
C191  C     C_R   0.732046 0.523114 0.806318 -0.252131
C192  C     C_R   0.768023 0.021999 0.190739 -0.250400
C193  C     C_R   0.231959 0.022106 0.809229 -0.250439
C194  C     C_R   0.285840 0.498813 0.212028 -0.027598
C195  C     C_R   0.714201 0.498834 0.787907 -0.028922
C196  C     C_R   0.785811 0.998359 0.210712 -0.027719
C197  C     C_3   0.000077 0.500180 0.310741 -0.041053
C198  C     C_R   0.214191 0.998457 0.789238 -0.027722
C199  C     C_R   0.158220 0.468195 0.330259 0.499872
C200  C     C_R   0.841653 0.469115 0.674599 0.481337
C201  C     C_R   0.657979 0.968244 0.325948 0.502031
C202  C     C_R   0.342026 0.968321 0.674046 0.502006
C203  C     C_R   0.122492 0.468616 0.368795 -0.260939
C204  C     C_R   0.877490 0.469311 0.636903 -0.288746
C205  C     C_R   0.622284 0.968719 0.365459 -0.264454
C206  C     C_R   0.377721 0.968773 0.634547 -0.264406
C207  C     C_R   0.104769 0.499775 0.393440 -0.100984
C208  C     C_3   0.499608 0.000229 0.689592 -0.032361
C209  C     C_R   0.895251 0.499911 0.606710 -0.085730
C210  C     C_R   0.604745 0.999712 0.393064 -0.103847
C211  C     C_R   0.395255 0.999752 0.606941 -0.103838
C212  C     C_R   0.123126 0.530662 0.379977 -0.199644
C213  C     C_R   0.876940 0.530420 0.614389 -0.193560
C214  C     C_R   0.623255 0.030354 0.381911 -0.199994
C215  C     C_R   0.376741 0.030405 0.618090 -0.200031
C216  C     C_R   0.158806 0.530353 0.343283 -0.241595
C217  C     C_R   0.841253 0.530223 0.650552 -0.251320
C218  C     C_R   0.658933 0.029918 0.344634 -0.240209
C219  C     C_3   0.500392 0.000218 0.310408 -0.032366
C220  C     C_R   0.341062 0.029991 0.655356 -0.240230
C221  C     C_R   0.176554 0.499228 0.319104 0.013942
C222  C     C_R   0.823468 0.499601 0.679848 0.032069
C223  C     C_R   0.676507 0.998940 0.317348 0.013997
C224  C     C_R   0.323493 0.999025 0.682633 0.013990
C225  C     C_R   0.000013 0.432790 0.000168 0.856661
C226  C     C_R   0.500006 0.932803 0.999995 0.852832
C227  C     C_3   0.017424 0.472092 0.712308 -0.219564
C228  C     C_3   0.972103 0.483352 0.298134 -0.214579
C229  C     C_3   0.530285 0.988878 0.699381 -0.208676
C230  C     C_R   0.377156 0.497125 0.065148 -0.191667
C231  C     C_3   0.469713 0.988898 0.300614 -0.208659
C232  C     C_R   0.999929 0.500079 0.878366 0.919060
C233  C     C_R   0.000070 0.500370 0.121589 0.918280
C234  C     C_R   0.499910 0.000401 0.878447 0.885886
C235  C     C_R   0.500089 0.000399 0.121554 0.885846
C236  C     C_R   0.999998 0.567005 0.000023 1.011285
C237  C     C_R   0.499993 0.067086 0.000007 0.954116
C238  C     C_R   0.500000 0.432671 0.999996 0.867430
C239  C     C_R   0.999998 0.932612 0.999993 0.869286
C240  C     C_R   0.432740 0.500000 0.067072 0.872077
H1    H     H_    0.971625 0.447783 0.817464 0.135740
H2    H     H_    0.782110 0.457595 0.654169 0.170897
H3    H     H_    0.171892 0.996544 0.931655 0.135631
H4    H     H_    0.327619 0.505230 0.271764 0.158549
H5    H     H_    0.672409 0.501360 0.727770 0.156829
H6    H     H_    0.827305 0.002203 0.271622 0.158198
H7    H     H_    0.172681 0.002281 0.728363 0.158185
H8    H     H_    0.318251 0.413225 0.244814 0.174374
H9    H     H_    0.300790 0.429102 0.190357 0.124634
H10   H     H_    0.260897 0.389801 0.333709 0.237107
H11   H     H_    0.242541 0.405188 0.279418 0.234173
H12   H     H_    0.282877 0.368105 0.178086 0.261192
H13   H     H_    0.717755 0.957699 0.345177 0.175250
H14   H     H_    0.257050 0.343319 0.257556 0.270517
H15   H     H_    0.301361 0.352338 0.232446 0.265927
H16   H     H_    0.681944 0.410900 0.772039 0.172268
H17   H     H_    0.702947 0.428629 0.818209 0.122964
H18   H     H_    0.736380 0.384764 0.679757 0.235820
H19   H     H_    0.759467 0.403181 0.722005 0.237341
H20   H     H_    0.723292 0.369819 0.833388 0.263126
H21   H     H_    0.745186 0.342160 0.756679 0.269581
H22   H     H_    0.700001 0.351043 0.791184 0.268671
H23   H     H_    0.818024 0.910805 0.236059 0.174344
H24   H     H_    0.282280 0.957794 0.654734 0.175221
H25   H     H_    0.801542 0.929131 0.181822 0.125521
H26   H     H_    0.759996 0.886858 0.320569 0.237718
H27   H     H_    0.742890 0.904472 0.265693 0.233320
H28   H     H_    0.784094 0.869035 0.162159 0.261605
H29   H     H_    0.757250 0.842847 0.238609 0.270414
H30   H     H_    0.801262 0.851010 0.217141 0.265590
H31   H     H_    0.182054 0.910894 0.763833 0.174355
H32   H     H_    0.198542 0.929224 0.818055 0.125509
H33   H     H_    0.240093 0.886946 0.679249 0.237730
H34   H     H_    0.257207 0.904565 0.734102 0.233396
H35   H     H_    0.218831 0.538728 0.206851 0.150152
H36   H     H_    0.216053 0.869133 0.837623 0.261586
H37   H     H_    0.242902 0.842941 0.761132 0.270440
H38   H     H_    0.198876 0.851102 0.782664 0.265605
H39   H     H_    0.210006 0.419027 0.208307 0.164557
H40   H     H_    0.188602 0.456927 0.203276 0.127667
H41   H     H_    0.154991 0.385426 0.255732 0.234282
H42   H     H_    0.133308 0.423285 0.248552 0.218826
H43   H     H_    0.171815 0.425233 0.117317 0.262292
H44   H     H_    0.151089 0.383844 0.144028 0.273588
H45   H     H_    0.195428 0.388327 0.122988 0.266038
H46   H     H_    0.781213 0.542069 0.786270 0.149377
H47   H     H_    0.819495 0.456479 0.802055 0.138665
H48   H     H_    0.850540 0.422333 0.757161 0.144886
H49   H     H_    0.771673 0.416657 0.825278 0.221517
H50   H     H_    0.801759 0.382375 0.780101 0.232963
H51   H     H_    0.822943 0.385908 0.870036 0.265623
H52   H     H_    0.777270 0.378106 0.912111 0.266466
H53   H     H_    0.792943 0.420551 0.915234 0.267781
H54   H     H_    0.707406 0.918974 0.199224 0.166935
H55   H     H_    0.689593 0.959779 0.197177 0.129448
H56   H     H_    0.649278 0.891116 0.245989 0.234745
H57   H     H_    0.718944 0.040335 0.208953 0.150242
H58   H     H_    0.631410 0.931969 0.240525 0.222827
H59   H     H_    0.670786 0.934148 0.109173 0.262417
H60   H     H_    0.645032 0.895581 0.134381 0.267102
H61   H     H_    0.689498 0.893378 0.113744 0.267703
H62   H     H_    0.292594 0.919101 0.800760 0.166935
H63   H     H_    0.310400 0.959898 0.802815 0.129448
H64   H     H_    0.350720 0.891203 0.754043 0.234752
H65   H     H_    0.368584 0.932048 0.759500 0.222819
H66   H     H_    0.329196 0.934285 0.890845 0.262412
H67   H     H_    0.354948 0.895696 0.865667 0.267110
H68   H     H_    0.281023 0.040447 0.791033 0.150216
H69   H     H_    0.310486 0.893524 0.886281 0.267709
H70   H     H_    0.047300 0.590607 0.839843 0.173033
H71   H     H_    0.036402 0.630103 0.808535 0.160755
H72   H     H_    0.025545 0.588988 0.787277 0.193648
H73   H     H_    0.953333 0.590720 0.161727 0.168696
H74   H     H_    0.964491 0.630750 0.190826 0.158725
H75   H     H_    0.975906 0.590113 0.212779 0.191216
H76   H     H_    0.502609 0.084629 0.862269 0.146097
H77   H     H_    0.486459 0.125713 0.848796 0.153398
H78   H     H_    0.463047 0.086737 0.858512 0.195724
H79   H     H_    0.281690 0.538962 0.146042 0.160416
H80   H     H_    0.497354 0.084629 0.137748 0.146038
H81   H     H_    0.513463 0.125711 0.151299 0.153398
H82   H     H_    0.536907 0.086735 0.141533 0.195733
H83   H     H_    0.889752 0.514161 0.849362 0.165750
H84   H     H_    0.918723 0.496716 0.877410 0.135659
H85   H     H_    0.883357 0.456816 0.804437 0.220434
H86   H     H_    0.912885 0.438404 0.830981 0.216538
H87   H     H_    0.872945 0.454746 0.958672 0.268208
H88   H     H_    0.852754 0.426850 0.921974 0.268801
H89   H     H_    0.843063 0.472206 0.931217 0.263245
H90   H     H_    0.718302 0.541966 0.847753 0.160618
H91   H     H_    0.105398 0.462531 0.152668 0.161004
H92   H     H_    0.072217 0.464599 0.127880 0.135644
H93   H     H_    0.086899 0.406075 0.207928 0.227891
H94   H     H_    0.048778 0.407528 0.198054 0.220214
H95   H     H_    0.083797 0.407350 0.065846 0.267891
H96   H     H_    0.094739 0.371195 0.104188 0.267527
H97   H     H_    0.122961 0.407976 0.072976 0.266433
H98   H     H_    0.403183 0.944451 0.841593 0.165886
H99   H     H_    0.436211 0.951904 0.865225 0.136099
H100  H     H_    0.429866 0.891836 0.777214 0.226080
H101  H     H_    0.781803 0.040537 0.148664 0.160744
H102  H     H_    0.468489 0.899866 0.783084 0.222512
H103  H     H_    0.436454 0.893984 0.915469 0.267905
H104  H     H_    0.431289 0.856242 0.872298 0.266854
H105  H     H_    0.396818 0.887154 0.911942 0.262048
H106  H     H_    0.596809 0.944352 0.158387 0.165900
H107  H     H_    0.563783 0.951837 0.134754 0.136065
H108  H     H_    0.570113 0.891760 0.222747 0.226086
H109  H     H_    0.531499 0.899826 0.216848 0.222503
H110  H     H_    0.563555 0.893919 0.084459 0.267914
H111  H     H_    0.568702 0.856170 0.127628 0.266849
H112  H     H_    0.001045 0.441023 0.208231 0.132031
H113  H     H_    0.218162 0.040646 0.851325 0.160725
H114  H     H_    0.603180 0.887047 0.088024 0.262043
H115  H     H_    0.108712 0.444520 0.378555 0.173015
H116  H     H_    0.891274 0.445577 0.631871 0.169265
H117  H     H_    0.608362 0.944825 0.373361 0.175158
H118  H     H_    0.391646 0.944872 0.626652 0.175175
H119  H     H_    0.109966 0.555014 0.398509 0.167553
H120  H     H_    0.890158 0.554332 0.591571 0.166056
H121  H     H_    0.610216 0.054566 0.402812 0.167320
H122  H     H_    0.389776 0.054606 0.597190 0.167288
H123  H     H_    0.172620 0.554364 0.334754 0.158590
H124  H     H_    0.509709 0.941929 0.781030 0.132466
H125  H     H_    0.827463 0.553864 0.654763 0.157835
H126  H     H_    0.672885 0.053683 0.338092 0.158682
H127  H     H_    0.327105 0.053762 0.661893 0.158650
H128  H     H_    0.494994 0.609400 0.106214 0.155517
H129  H     H_    0.505043 0.609381 0.893769 0.155619
H130  H     H_    0.998655 0.109277 0.103157 0.155962
H131  H     H_    0.001455 0.109586 0.897104 0.155701
H132  H     H_    0.031627 0.449510 0.679685 0.158408
H133  H     H_    0.949252 0.469716 0.339575 0.150423
H134  H     H_    0.555235 0.979676 0.655737 0.147183
H135  H     H_    0.490281 0.941931 0.218945 0.132473
H136  H     H_    0.444761 0.979720 0.344255 0.147180
H137  H     H_    0.494666 0.672019 0.106329 0.130439
H138  H     H_    0.505422 0.671996 0.893608 0.130452
H139  H     H_    0.999011 0.171899 0.102998 0.130883
H140  H     H_    0.001298 0.172256 0.897818 0.130837
H141  H     H_    0.464830 0.718653 0.956361 0.131591
H142  H     H_    0.535272 0.718637 0.043556 0.131537
H143  H     H_    0.959210 0.218486 0.109812 0.132358
H144  H     H_    0.041196 0.218687 0.891651 0.132317
H145  H     H_    0.959626 0.281288 0.110617 0.132210
H146  H     H_    0.390340 0.505278 0.210162 0.159119
H147  H     H_    0.040911 0.281499 0.891762 0.132222
H148  H     H_    0.465384 0.781395 0.954990 0.131438
H149  H     H_    0.534717 0.781382 0.044922 0.131418
H150  H     H_    0.055590 0.327997 0.952708 0.131481
H151  H     H_    0.944800 0.327802 0.050094 0.131388
H152  H     H_    0.555219 0.827992 0.956492 0.132001
H153  H     H_    0.444859 0.828003 0.043463 0.132021
H154  H     H_    0.055591 0.390643 0.951666 0.154984
H155  H     H_    0.944567 0.390452 0.050088 0.156184
H156  H     H_    0.555237 0.890611 0.957151 0.155145
H157  H     H_    0.609689 0.501504 0.789393 0.159356
H158  H     H_    0.444804 0.890619 0.042826 0.155170
H159  H     H_    0.478848 0.390657 0.927098 0.150410
H160  H     H_    0.521134 0.390637 0.072897 0.150644
H161  H     H_    0.997198 0.890314 0.901203 0.155242
H162  H     H_    0.002757 0.890224 0.098713 0.155166
H163  H     H_    0.478020 0.328040 0.928403 0.128115
H164  H     H_    0.521918 0.328020 0.071634 0.128241
H165  H     H_    0.996823 0.827680 0.901635 0.130081
H166  H     H_    0.003052 0.827579 0.098136 0.130043
H167  H     H_    0.484088 0.280641 0.113198 0.131891
H168  H     H_    0.890062 0.002514 0.210532 0.158967
H169  H     H_    0.515815 0.280602 0.886877 0.131957
H170  H     H_    0.963074 0.780810 0.112285 0.133072
H171  H     H_    0.036741 0.780811 0.887344 0.133120
H172  H     H_    0.963158 0.718021 0.112228 0.130364
H173  H     H_    0.036654 0.718020 0.887277 0.130489
H174  H     H_    0.484933 0.217855 0.112488 0.133088
H175  H     H_    0.514958 0.217817 0.887617 0.133107
H176  H     H_    0.995041 0.671480 0.903716 0.161844
H177  H     H_    0.005067 0.671674 0.095601 0.161715
H178  H     H_    0.464654 0.172042 0.957051 0.166203
H179  H     H_    0.109925 0.002542 0.789472 0.158979
H180  H     H_    0.535252 0.172049 0.043061 0.166248
H181  H     H_    0.059380 0.501615 0.731073 0.152591
H182  H     H_    0.948175 0.529032 0.262045 0.140980
H183  H     H_    0.545369 0.038278 0.744288 0.140899
H184  H     H_    0.454638 0.038315 0.255727 0.140865
H185  H     H_    0.028951 0.552044 0.682100 0.153710
H186  H     H_    0.998790 0.559607 0.290744 0.163710
H187  H     H_    0.489922 0.058934 0.720650 0.159573
H188  H     H_    0.510088 0.058914 0.279371 0.159589
H189  H     H_    0.968616 0.550649 0.819931 0.174324
H190  H     H_    0.217930 0.460352 0.351031 0.174901
H191  H     H_    0.051182 0.531057 0.160178 0.159722
H192  H     H_    0.443827 0.021191 0.844978 0.156390
H193  H     H_    0.556176 0.021129 0.155031 0.156406
H194  H     H_    0.390595 0.494848 0.007460 0.156439
H195  H     H_    0.609478 0.498408 0.992879 0.156997
H196  H     H_    0.890796 0.997300 0.006676 0.157331
H197  H     H_    0.109216 0.997335 0.993301 0.157318
H198  H     H_    0.327888 0.494203 0.069694 0.135026
H199  H     H_    0.672211 0.497780 0.930633 0.136168
H200  H     H_    0.828123 0.996459 0.068300 0.135637
O1    O     O_R   0.050910 0.528730 0.449120 -0.631609
O2    O     O_R   0.550920 0.499990 0.001630 -0.627276
O3    O     O_R   0.949080 0.999990 0.998370 -0.626433
O4    O     O_R   0.050920 0.999990 0.001630 -0.626438
O5    O     O_R   0.500000 0.550840 0.052620 -0.625438
O6    O     O_R   0.500000 0.550840 0.947380 -0.625081
O7    O     O_R   0.000000 0.050840 0.052620 -0.625332
O8    O     O_R   0.000000 0.050840 0.947380 -0.625103
O9    O     O_R   0.050890 0.471240 0.449130 -0.624885
O10   O     O_R   0.949110 0.471240 0.550870 -0.628380
O11   O     O_R   0.550890 0.971240 0.449130 -0.623914
O12   O     O_R   0.949090 0.528730 0.550880 -0.625665
O13   O     O_R   0.449110 0.971240 0.550870 -0.623896
O14   O     O_R   0.999990 0.528730 0.593030 -0.624819
O15   O     O_R   0.000010 0.528730 0.406970 -0.637244
O16   O     O_R   0.499990 0.028730 0.593030 -0.636168
O17   O     O_R   0.500010 0.028730 0.406970 -0.636169
O18   O     O_R   0.999970 0.471240 0.593040 -0.628586
O19   O     O_R   0.000030 0.471240 0.406960 -0.609071
O20   O     O_R   0.499970 0.971240 0.593040 -0.603801
O21   O     O_R   0.500030 0.971240 0.406960 -0.603798
O22   O     O_R   0.971250 0.449110 0.028730 -0.629627
O23   O     O_R   0.550910 0.028730 0.449120 -0.629953
O24   O     O_R   0.028750 0.449110 0.971270 -0.631395
O25   O     O_R   0.471250 0.949110 0.028730 -0.630038
O26   O     O_R   0.528750 0.949110 0.971270 -0.630045
O27   O     O_R   0.971250 0.500020 0.935710 -0.633433
O28   O     O_R   0.028750 0.500020 0.064290 -0.633997
O29   O     O_R   0.471250 0.000020 0.935710 -0.626617
O30   O     O_R   0.528750 0.000020 0.064290 -0.626623
O31   O     O_R   0.028730 0.500040 0.878250 -0.632027
O32   O     O_R   0.971270 0.500040 0.121750 -0.629438
O33   O     O_R   0.528730 0.000040 0.878250 -0.627296
O34   O     O_R   0.449090 0.028730 0.550880 -0.629971
O35   O     O_R   0.471270 0.000040 0.121750 -0.627282
O36   O     O_R   0.971250 0.550940 0.028740 -0.624154
O37   O     O_R   0.028750 0.550940 0.971260 -0.621757
O38   O     O_R   0.471250 0.050940 0.028740 -0.593511
O39   O     O_R   0.528750 0.050940 0.971260 -0.593482
O40   O     O_R   0.499970 0.449000 0.052430 -0.623302
O41   O     O_R   0.500030 0.449000 0.947570 -0.623614
O42   O     O_R   0.999970 0.949000 0.052430 -0.625142
O43   O     O_R   0.000030 0.949000 0.947570 -0.625209
O44   O     O_3   0.284445 0.452888 0.291416 -0.661546
O45   O     O_R   0.449080 0.499920 0.103410 -0.623348
O46   O     O_3   0.715534 0.449473 0.716118 -0.661551
O47   O     O_3   0.784265 0.950175 0.285538 -0.661215
O48   O     O_3   0.215777 0.950264 0.714370 -0.661205
O49   O     O_3   0.174987 0.437054 0.306729 -0.673236
O50   O     O_3   0.824210 0.438917 0.704335 -0.669526
O51   O     O_3   0.674513 0.937286 0.298906 -0.672347
O52   O     O_3   0.325498 0.937375 0.701082 -0.672363
O53   O     O_3   0.995327 0.604127 0.891260 -0.611517
O54   O     O_3   0.005211 0.604327 0.107979 -0.602967
O55   O     O_3   0.460154 0.104967 0.951697 -0.584355
O56   O     O_R   0.550920 0.499920 0.896590 -0.623360
O57   O     O_3   0.539798 0.104975 0.048366 -0.584324
O58   O     O_3   0.935514 0.499083 0.765403 -0.662031
O59   O     O_3   0.057545 0.469006 0.238663 -0.655534
O60   O     O_3   0.448792 0.958986 0.756007 -0.653132
O61   O     O_3   0.551200 0.958925 0.243978 -0.653126
O62   O     O_R   0.949080 0.999920 0.103410 -0.623819
O63   O     O_R   0.050920 0.999920 0.896590 -0.623821
O64   O     O_R   0.449080 0.499990 0.998370 -0.627277
Zn1   Zn    Zn3+2 0.000000 0.538370 0.500000 0.949059
Zn2   Zn    Zn3+2 0.500020 0.499910 0.929860 0.942804
Zn3   Zn    Zn3+2 0.999980 0.999910 0.070140 0.942263
Zn4   Zn    Zn3+2 0.000020 0.999910 0.929860 0.942342
Zn5   Zn    Zn3+2 0.500000 0.038370 0.500000 0.937810
Zn6   Zn    Zn3+2 0.000000 0.461600 0.500000 0.962116
Zn7   Zn    Zn3+2 0.500000 0.961600 0.500000 0.977507
Zn8   Zn    Zn3+2 0.961610 0.500020 0.038370 0.945493
Zn9   Zn    Zn3+2 0.038390 0.500020 0.961630 0.944242
Zn10  Zn    Zn3+2 0.461610 0.000020 0.038370 0.963217
Zn11  Zn    Zn3+2 0.538390 0.000020 0.961630 0.963230
Zn12  Zn    Zn3+2 0.499980 0.499910 0.070140 0.942843

loop_
_geom_bond_atom_site_label_1
_geom_bond_atom_site_label_2
_ccdc_geom_bond_type
C172  C177  A    
O56   Zn2   S    
C126  C127  S    
C191  H90   S    
C1    O9    A    
C88   O54   S    
C193  H113  S    
C185  C190  A    
C158  H110  S    
C112  O10   A    
O41   Zn2   S    
C79   C194  S    
C125  H31   S    
C153  H102  S    
C148  H89   S    
C218  H126  S    
C185  H35   S    
C225  O22   A    
C226  O25   A    
O37   Zn9   S    
C86   H180  S    
O28   Zn9   S    
C33   C36   A    
C60   C62   A    
C138  H63   S    
C212  H119  S    
C184  O17   A    
C144  H80   S    
C151  H95   S    
C100  H185  S    
C9    C19   A    
C175  O13   A    
C90   C195  S    
C27   C110  S    
C164  C210  S    
O12   Zn1   S    
C168  O44   S    
O24   Zn9   S    
C124  H4    S    
C13   H196  S    
C128  H39   S    
O21   Zn7   S    
O40   Zn12  S    
O19   Zn6   S    
C58   C61   A    
O32   Zn8   S    
C110  C197  S    
C142  H75   S    
C73   C75   A    
C122  H27   S    
C6    O5    A    
C145  O58   S    
C28   C111  S    
C146  C161  A    
C11   C20   A    
C237  O38   A    
C65   C234  S    
C121  H25   S    
C240  O64   A    
O20   Zn7   S    
C96   H181  S    
C179  C188  A    
O26   Zn11  S    
C120  H20   S    
C239  O42   A    
C63   C96   S    
C92   C236  S    
C57   H200  S    
C209  C213  A    
O4    Zn3   S    
C133  H52   S    
C155  H107  S    
C111  O60   S    
C87   O53   S    
C174  H13   S    
C181  O18   A    
C26   C227  S    
C53   C58   A    
C141  H72   S    
C103  C208  S    
C35   H198  S    
C236  O37   A    
C69   C239  S    
C2    C165  A    
C76   H174  S    
O38   Zn10  S    
C123  H30   S    
C64   C97   S    
C200  O50   S    
C58   H164  S    
O30   Zn11  S    
C145  H83   S    
C169  O46   S    
C150  H94   S    
C115  H8    S    
C170  C174  A    
C227  H132  S    
C112  O12   A    
C213  C217  A    
C232  O27   A    
C83   H176  S    
C84   C88   A    
C119  H19   S    
C99   C231  S    
C139  C140  S    
C64   C106  S    
C62   C82   S    
C171  C198  A    
C67   C238  S    
C104  H188  S    
C112  C209  S    
C156  C158  S    
C143  H77   S    
C215  C220  A    
C7    O7    A    
C13   C166  A    
C78   C94   S    
C181  O14   A    
O34   Zn5   S    
C180  C224  S    
C127  H38   S    
C18   C38   S    
C147  H85   S    
C27   C64   S    
C192  H101  S    
C97   C228  S    
C120  H21   S    
C155  C156  S    
C142  H73   S    
C41   C45   A    
C132  H49   S    
C55   H162  S    
C103  C107  S    
C113  C157  A    
C157  C162  A    
C41   C51   A    
C98   C103  S    
C25   C31   A    
C15   C18   A    
C140  H66   S    
C220  H127  S    
C204  H116  S    
C158  H114  S    
C147  C148  S    
C32   H148  S    
O22   Zn8   S    
C128  C129  S    
C218  C223  A    
C169  C195  A    
C6    C19   S    
C4    O62   A    
C133  H51   S    
C180  C189  A    
C175  O34   A    
C13   C57   A    
C2    H195  S    
C21   H141  S    
C115  C116  S    
C3    O2    A    
O3    Zn4   S    
C23   H143  S    
C99   H184  S    
C142  O54   S    
C148  H88   S    
C141  O53   S    
C228  H133  S    
C136  H56   S    
C171  O48   S    
C123  H28   S    
C176  H24   S    
C186  C227  S    
C93   C237  S    
C164  O23   A    
C175  C211  S    
C206  H118  S    
C143  H76   S    
C231  H136  S    
C101  C196  S    
C200  C204  A    
O16   Zn5   S    
C126  H34   S    
C115  O44   S    
C131  O50   S    
C14   C17   A    
C160  H157  S    
C182  C197  S    
C118  O46   S    
C229  H134  S    
C117  H12   S    
C54   C59   A    
O42   Zn3   S    
C164  O11   A    
C8    C19   A    
C30   C34   A    
C33   H149  S    
C24   C167  A    
C72   H170  S    
C189  H68   S    
C214  C218  A    
C102  C197  S    
C10   C20   A    
C154  H103  S    
C161  H168  S    
C12   C17   A    
C26   C63   S    
C134  H54   S    
C104  C219  S    
C130  H43   S    
C25   C38   A    
C89   O55   S    
C26   C109  S    
C8    C12   A    
C125  O48   S    
C239  O43   A    
C119  H18   S    
C31   C34   A    
C80   C95   S    
C47   H158  S    
C55   C69   A    
C52   C67   A    
C15   H139  S    
C4    O3    A    
C201  O51   S    
C63   C105  S    
C201  C223  A    
C71   H169  S    
C71   C77   A    
C234  O33   A    
C3    C165  S    
C129  C130  S    
C238  O41   A    
C216  H123  S    
C105  C109  S    
O5    Zn12  S    
C107  C111  S    
C76   C80   A    
C219  C231  S    
C136  C137  S    
C181  C186  S    
C190  H79   S    
C115  H9    S    
C116  H11   S    
C11   H131  S    
C171  C176  A    
C208  C229  S    
C98   H183  S    
O33   Zn11  S    
C66   C235  S    
C188  C192  A    
C35   C230  A    
C75   H173  S    
C203  H115  S    
O23   Zn5   S    
C61   C81   S    
C42   H153  S    
C170  C196  A    
C85   H178  S    
C226  O26   A    
O25   Zn10  S    
O18   Zn6   S    
C233  O28   A    
C205  C210  A    
C5    O63   A    
C96   C100  S    
C35   C79   A    
C59   H165  S    
C89   C93   A    
C129  H42   S    
C53   C67   A    
C191  C195  A    
C137  H59   S    
C184  O21   A    
O1    Zn1   S    
C182  O19   A    
C197  C228  S    
C189  C193  A    
C176  C180  A    
C152  C153  S    
O13   Zn7   S    
C201  C205  A    
C150  C151  S    
C117  H15   S    
C177  C221  S    
C87   C92   A    
C128  H40   S    
C71   C81   A    
C236  O36   A    
C46   H199  S    
C83   C87   A    
O29   Zn10  S    
C135  H5    S    
C211  C215  A    
O27   Zn8   S    
C149  O59   S    
C163  C230  A    
C170  O47   S    
C6    O6    A    
C26   H1    S    
O63   Zn4   S    
C122  H26   S    
C77   H175  S    
C192  C196  A    
C65   C98   S    
C44   H155  S    
C86   C91   A    
C131  H48   S    
C187  H46   S    
C68   H3    S    
C193  C198  A    
O6    Zn2   S    
C177  C185  A    
C108  C114  S    
C149  H91   S    
C216  C221  A    
C173  H2    S    
O15   Zn1   S    
C182  O15   A    
C141  H71   S    
C204  C209  A    
C31   H147  S    
C113  C198  S    
C137  H61   S    
C1    O1    A    
C114  C219  S    
C97   C102  S    
C68   C113  A    
C123  H29   S    
C56   H163  S    
C99   C104  S    
C16   H140  S    
C55   C60   A    
C144  O57   S    
C199  C203  A    
C109  O58   S    
C28   H124  S    
C145  C147  S    
C152  H99   S    
O64   Zn2   S    
O62   Zn3   S    
C125  H32   S    
C202  O52   S    
C217  H125  S    
C29   C231  S    
C72   C74   A    
C233  O32   A    
C85   C89   A    
C156  H109  S    
O8    Zn4   S    
C83   C94   A    
C41   H152  S    
C84   H177  S    
C102  H186  S    
C9    C14   A    
C202  C224  A    
C151  H96   S    
C91   C93   A    
C11   C16   A    
C45   C49   A    
C134  O51   S    
C29   C66   S    
O35   Zn10  S    
C84   C94   A    
C160  C165  A    
C127  H37   S    
C29   H135  S    
C121  C122  S    
C158  H111  S    
C235  O30   A    
C118  H16   S    
C178  C187  A    
C25   H144  S    
C152  O60   S    
C120  H22   S    
C199  O49   S    
C225  O24   A    
C125  C126  S    
C142  H74   S    
C132  H50   S    
C131  C132  S    
C32   C36   A    
C73   C82   A    
C104  C108  S    
C57   C101  A    
C79   C124  A    
C77   C80   A    
C217  C222  A    
C234  O29   A    
C135  C160  A    
C91   O57   S    
C66   C108  S    
C106  H191  S    
C46   C90   A    
C109  C186  S    
C23   C38   A    
C146  H6    S    
C3    O56   A    
C200  C222  A    
O31   Zn9   S    
C28   C65   S    
C156  H108  S    
C149  C150  S    
C103  H187  S    
C48   C225  S    
C22   C37   A    
O14   Zn1   S    
C54   C69   A    
C116  H10   S    
C40   C50   A    
O36   Zn8   S    
C172  H190  S    
C159  H146  S    
C155  O61   S    
C7    O8    A    
C40   H151  S    
C214  H121  S    
C144  H82   S    
C138  C139  S    
C24   C68   A    
C143  O55   S    
C168  C172  A    
C21   C37   A    
C7    C20   S    
C74   C78   A    
C56   C61   A    
C145  H84   S    
C151  H97   S    
C86   C95   A    
C28   C229  S    
C163  C240  S    
C150  H93   S    
C44   C48   A    
C29   C114  S    
C138  H62   S    
C90   C135  A    
O11   Zn7   S    
C85   C95   A    
C237  O39   A    
C127  H36   S    
C73   H171  S    
C74   H172  S    
C47   C49   A    
C118  H17   S    
C60   H166  S    
C2    C46   A    
C213  H120  S    
C100  C105  S    
C215  H122  S    
C54   H161  S    
C14   H138  S    
C173  C178  A    
C143  H78   S    
C162  H179  S    
C10   C15   A    
C27   C228  S    
O39   Zn11  S    
C88   C92   A    
C124  C159  A    
C116  C117  S    
C154  H104  S    
C128  O49   S    
C70   C81   A    
C134  H55   S    
C147  H86   S    
C130  H44   S    
C24   H197  S    
C118  C119  S    
C206  C211  A    
C184  C219  S    
C70   H167  S    
C140  H69   S    
C4    C166  S    
C132  C133  S    
O7    Zn3   S    
C144  H81   S    
C133  H53   S    
C30   H145  S    
C43   C48   A    
C205  H117  S    
C183  O16   A    
C42   C51   A    
O43   Zn4   S    
C53   H160  S    
C9    H129  S    
C22   H142  S    
C168  C194  A    
C154  H105  S    
C183  C208  S    
C149  H92   S    
C130  H45   S    
C235  O35   A    
C136  H58   S    
C108  H193  S    
C39   C43   A    
C230  H194  S    
C21   C32   A    
C101  C146  A    
C34   C50   S    
C240  O45   A    
C23   C30   A    
C212  C216  A    
C121  O47   S    
C155  H106  S    
O2    Zn12  S    
C152  H98   S    
C134  C136  S    
C5    O4    A    
C210  C214  A    
C203  C207  A    
O10   Zn6   S    
C232  O31   A    
C179  C223  S    
C39   H150  S    
C66   C99   S    
C153  H100  S    
C100  C186  S    
C148  H87   S    
C98   C229  S    
C157  H7    S    
C117  H14   S    
C138  O52   S    
C40   C44   A    
C140  H67   S    
C17   C37   S    
C119  C120  S    
C129  H41   S    
C139  H64   S    
C36   C51   S    
C199  C221  A    
C183  O20   A    
C126  H33   S    
C8    H128  S    
C70   C76   A    
C207  C212  A    
C159  C163  A    
C114  O61   S    
C107  H192  S    
C97   H182  S    
C220  C224  A    
C43   H154  S    
C106  C110  S    
C22   C33   A    
C59   C62   A    
C169  C173  A    
C187  C191  A    
C110  O59   S    
C12   H137  S    
C161  C166  A    
C139  H65   S    
C96   C227  S    
C10   H130  S    
C238  O40   A    
O9    Zn6   S    
C49   C226  S    
C64   C233  S    
C105  H189  S    
C121  H23   S    
C131  H47   S    
C27   H112  S    
O17   Zn5   S    
C111  C208  S    
C65   C107  S    
C102  C106  S    
C42   C47   A    
C5    C167  S    
C1    C207  S    
C75   C78   A    
C52   H159  S    
C188  H57   S    
C190  C194  A    
C162  C167  A    
O45   Zn12  S    
C39   C50   A    
C16   C18   A    
C141  H70   S    
C202  C206  A    
C122  C123  S    
C178  C222  S    
C137  H60   S    
C153  C154  S    
C174  C179  A    
C45   H156  S    
C72   C82   A    
C52   C56   A    
C63   C232  S    
