data_mof_unit_61293.cif
_audit_creation_date              2012-10-26T21:22:16-0400
_audit_creation_method            fapswitch 2.2
_symmetry_space_group_name_H-M    P1
_symmetry_Int_Tables_number       1
_space_group_crystal_system       triclinic
_cell_length_a                    15.99764
_cell_length_b                    14.759282
_cell_length_c                    17.76843
_cell_angle_alpha                 89.999967
_cell_angle_beta                  89.996771
_cell_angle_gamma                 90.000036
_cell_volume                      4195.36939014

loop_
_atom_site_label
_atom_site_type_symbol
_atom_type_description
_atom_site_fract_x
_atom_site_fract_y
_atom_site_fract_z
_atom_type_partial_charge
C1    C     C_R   0.340822 0.500000 0.500012 0.552341
C2    C     C_R   0.526413 0.047908 0.563608 -0.106462
C3    C     C_R   0.500000 0.902869 0.500000 0.002488
C4    C     C_R   0.500000 0.097132 0.500000 0.003395
C5    C     C_1   0.500000 0.802734 0.500000 0.123909
C6    C     C_1   0.500000 0.197267 0.500000 0.124271
C7    C     C_R   0.499996 0.500000 0.355281 0.552010
C8    C     C_R   0.500003 0.500000 0.644719 0.552009
C9    C     C_R   0.472750 0.577967 0.845501 -0.002135
C10   C     C_R   0.472726 0.421996 0.154513 -0.001914
C11   C     C_R   0.527238 0.577970 0.154498 -0.002134
C12   C     C_R   0.659178 0.500000 0.499988 0.552339
C13   C     C_R   0.527272 0.421998 0.845487 -0.001913
C14   C     C_R   0.474640 0.577161 0.766821 -0.159685
C15   C     C_R   0.474614 0.422824 0.233193 -0.159263
C16   C     C_R   0.525351 0.577164 0.233178 -0.159662
C17   C     C_R   0.525387 0.422826 0.766807 -0.159240
C18   C     C_R   0.500010 0.499996 0.727338 -0.002302
C19   C     C_R   0.499987 0.499996 0.272662 -0.002303
C20   C     C_R   0.500005 0.499975 0.885396 0.054133
C21   C     C_R   0.499987 0.499976 0.114603 0.054133
C22   C     C_1   0.499998 0.499964 0.966218 0.183060
C23   C     C_1   0.823341 0.500000 0.499991 -0.052469
C24   C     C_1   0.499993 0.499964 0.033782 0.183060
C25   C     C_R   0.956380 0.582213 0.501628 -0.100670
C26   C     C_R   0.043620 0.417787 0.498374 -0.100656
C27   C     C_R   0.043620 0.582213 0.501634 -0.100667
C28   C     C_R   0.956380 0.417787 0.498369 -0.100658
C29   C     C_R   0.912791 0.500000 0.499995 0.039215
C30   C     C_R   0.087209 0.500000 0.500007 0.039235
C31   C     C_2   0.441292 0.662044 0.882256 0.253174
C32   C     C_2   0.441265 0.337908 0.117777 0.253213
C33   C     C_2   0.558687 0.662051 0.117742 0.253191
C34   C     C_1   0.176659 0.500000 0.500011 -0.052461
C35   C     C_2   0.558737 0.337912 0.882224 0.253230
C36   C     C_1   0.251703 0.500000 0.500012 -0.020225
C37   C     C_1   0.748297 0.500000 0.499988 -0.020227
C38   C     C_R   0.526411 0.952094 0.563608 -0.106964
C39   C     C_R   0.473587 0.047908 0.436392 -0.106478
C40   C     C_R   0.473589 0.952094 0.436392 -0.106947
Cu1   Cu    Cu3+1 0.500000 0.589220 0.500000 0.991435
Cu2   Cu    Cu3+1 0.500000 0.410780 0.500000 0.991739
H1    H     H_    0.454266 0.636595 0.735982 0.119175
H2    H     H_    0.452872 0.916386 0.386508 0.114621
H3    H     H_    0.452868 0.083617 0.386509 0.112893
H4    H     H_    0.547128 0.916386 0.613492 0.114598
H5    H     H_    0.431118 0.722420 0.848557 0.105488
H6    H     H_    0.431039 0.277560 0.151499 0.104595
H7    H     H_    0.568858 0.722426 0.151441 0.105508
H8    H     H_    0.568967 0.277565 0.848503 0.104615
H9    H     H_    0.454241 0.363398 0.264044 0.118323
H10   H     H_    0.545722 0.636598 0.264017 0.119204
H11   H     H_    0.545765 0.363401 0.735957 0.118350
H12   H     H_    0.077013 0.646067 0.502902 0.117797
H13   H     H_    0.922987 0.353933 0.497101 0.117847
H14   H     H_    0.922987 0.646067 0.502891 0.117813
H15   H     H_    0.077013 0.353933 0.497109 0.117798
H16   H     H_    0.547132 0.083617 0.613491 0.112915
N1    N     N_1   0.500000 0.276710 0.500000 -0.193497
N2    N     N_1   0.500000 0.723290 0.500000 -0.193501
O1    O     O_R   0.380310 0.575320 0.500010 -0.488484
O2    O     O_2   0.424486 0.334693 0.050846 -0.470255
O3    O     O_2   0.575521 0.665228 0.050818 -0.470440
O4    O     O_2   0.575516 0.334698 0.949155 -0.470259
O5    O     O_R   0.619690 0.424680 0.499990 -0.488470
O6    O     O_R   0.619690 0.575320 0.499990 -0.488484
O7    O     O_R   0.380310 0.424680 0.500010 -0.488468
O8    O     O_R   0.500000 0.575370 0.391250 -0.496429
O9    O     O_R   0.500000 0.424630 0.608750 -0.496230
O10   O     O_R   0.500000 0.575370 0.608750 -0.496464
O11   O     O_R   0.500000 0.424630 0.391250 -0.496266
O12   O     O_2   0.424455 0.665219 0.949180 -0.470434

loop_
_geom_bond_atom_site_label_1
_geom_bond_atom_site_label_2
_ccdc_geom_bond_type
Cu2   N1    S    
Cu2   O5    S    
C2    C4    A    
C9    C14   A    
C4    C39   A    
C26   C30   A    
C35   O4    D    
C12   C37   S    
C15   H9    S    
C25   C27   A    
C12   O5    A    
C14   C18   A    
C9    C20   A    
C26   C28   A    
C3    C38   A    
C13   C20   A    
C25   H14   S    
Cu1   O1    S    
C39   H3    S    
C2    C38   A    
C14   H1    S    
C35   H8    S    
C2    H16   S    
C17   C18   A    
C27   H12   S    
C32   O2    D    
C10   C32   S    
C31   H5    S    
C27   C30   A    
C15   C19   A    
C32   H6    S    
C8    O9    A    
Cu1   O6    S    
C16   C19   A    
C23   C29   S    
C31   O12   D    
C1    O7    A    
C28   H13   S    
C20   C22   S    
C3    C40   A    
C13   C35   S    
Cu1   O8    S    
C7    C19   S    
C10   C15   A    
C10   C21   A    
C7    O11   A    
Cu2   O7    S    
C26   H15   S    
C22   C24   T    
C33   O3    D    
C38   H4    S    
C11   C16   A    
C30   C34   S    
C33   H7    S    
C13   C17   A    
C39   C40   A    
C17   H11   S    
C11   C33   S    
C8    O10   A    
C34   C36   T    
C25   C29   A    
C4    C6    S    
Cu1   Cu2   S    
C21   C24   S    
C40   H2    S    
C9    C31   S    
C28   C29   A    
C1    C36   S    
C5    N2    T    
C7    O8    A    
C23   C37   T    
C12   O6    A    
C6    N1    T    
C11   C21   A    
Cu2   O9    S    
C8    C18   S    
C16   H10   S    
Cu1   N2    S    
Cu2   O11   S    
Cu1   O10   S    
C3    C5    S    
C1    O1    A    
