data_mof_unit_67899.cif
_audit_creation_date              2012-12-10T17:47:47-0500
_audit_creation_method            fapswitch 2.2
_symmetry_space_group_name_H-M    P1
_symmetry_Int_Tables_number       1
_space_group_crystal_system       triclinic
_cell_length_a                    11.429975
_cell_length_b                    10.924405
_cell_length_c                    10.169161
_cell_angle_alpha                 95.025537
_cell_angle_beta                  91.937888
_cell_angle_gamma                 94.217117
_cell_volume                      1260.43701361

loop_
_atom_site_label
_atom_site_type_symbol
_atom_type_description
_atom_site_fract_x
_atom_site_fract_y
_atom_site_fract_z
_atom_type_partial_charge
C1    C     C_R   0.516672 0.262769 0.498858 1.058336
C2    C     C_R   0.583163 0.085301 0.630065 -0.052092
C3    C     C_R   0.554342 0.135227 0.507103 -0.206032
C4    C     C_R   0.258520 0.505633 0.498328 1.099457
C5    C     C_R   0.558400 0.054447 0.393930 -0.012057
C6    C     C_R   0.496364 0.940931 0.402247 0.378299
C7    C     C_R   0.507526 0.881057 0.519368 -0.159182
C8    C     C_R   0.423098 0.293223 0.114164 0.383976
C9    C     C_R   0.325718 0.217419 0.067407 -0.265556
C10   C     C_R   0.269079 0.246857 0.952587 0.342787
C11   C     C_R   0.337449 0.314918 0.865775 -0.088305
C12   C     C_3   0.880938 0.522030 0.493567 -0.371625
C13   C     C_R   0.427779 0.410030 0.921735 0.031626
C14   C     C_R   0.443460 0.405597 0.062943 -0.012520
C15   C     C_R   0.563940 0.583895 0.081788 0.490775
C16   C     C_R   0.499113 0.742056 0.506186 1.015746
C17   C     C_R   0.574048 0.575350 0.941765 -0.051142
C18   C     C_R   0.742361 0.512814 0.500182 1.059475
C19   C     C_3   0.060804 0.413519 0.578282 0.531287
C20   C     C_3   0.925660 0.430331 0.595657 0.060326
C21   C     C_3   0.087896 0.649600 0.563704 0.028124
C22   C     C_3   0.067687 0.503377 0.340348 -0.353692
C23   C     C_3   0.947118 0.663168 0.529527 -0.335880
C24   C     C_3   0.122408 0.517472 0.494253 -0.382145
C25   C     C_2   0.925097 0.746462 0.417995 1.056208
C26   C     C_2   0.680914 0.037625 0.354394 1.058155
C27   C     C_2   0.801076 0.137657 0.925062 1.123524
C28   C     C_2   0.665856 0.922541 0.985623 1.012242
C29   C     C_2   0.295536 0.101112 0.127864 1.101349
C30   C     C_2   0.335780 0.234804 0.741772 1.096473
C31   C     C_2   0.673360 0.642065 0.890563 1.041318
C32   C     C_2   0.860471 0.302265 0.593793 1.135846
C33   C     C_2   0.123473 0.667651 0.713636 1.169083
C34   C     C_3   0.927043 0.474696 0.347646 0.539702
C35   C     C_2   0.887981 0.746487 0.631228 0.992164
C36   C     C_2   0.108183 0.616906 0.264347 1.021645
C37   C     C_2   0.111568 0.401757 0.243660 1.014525
C38   C     C_R   0.647440 0.150728 0.743313 0.385644
C39   C     C_R   0.698821 0.083874 0.838007 -0.253459
C40   C     C_R   0.646531 0.968395 0.856031 -0.188517
C41   C     C_R   0.559853 0.913608 0.763549 0.494394
C42   C     C_R   0.552177 0.956444 0.636703 -0.069046
Cl1   Cl    Cl    0.124141 0.408854 0.741752 -0.436651
Cl2   Cl    Cl    0.134231 0.164959 0.897186 -0.315454
Cl3   Cl    Cl    0.891655 0.489746 0.759670 -0.427119
Cl4   Cl    Cl    0.885792 0.313704 0.307213 -0.516429
Cl5   Cl    Cl    0.850397 0.518710 0.203355 -0.309420
Cl6   Cl    Cl    0.186366 0.771458 0.510330 -0.479845
Cl7   Cl    Cl    0.667246 0.309773 0.786108 -0.502652
Cl8   Cl    Cl    0.436315 0.837304 0.825870 -0.461177
Cl9   Cl    Cl    0.420050 0.871344 0.259370 -0.452666
Cl10  Cl    Cl    0.642449 0.700316 0.180319 -0.437433
Cl11  Cl    Cl    0.085378 0.260745 0.505913 -0.416558
Cl12  Cl    Cl    0.551093 0.218941 0.136496 -0.445253
H1    H     H_    0.964483 0.905120 0.333855 0.379348
H2    H     H_    0.900744 0.902904 0.753712 0.385070
H3    H     H_    0.240770 0.703596 0.174621 0.380598
H4    H     H_    0.151572 0.231034 0.239028 0.364362
H5    H     H_    0.810422 0.072909 0.231328 0.368833
H6    H     H_    0.877948 0.281761 0.039367 0.427179
H7    H     H_    0.787495 0.880753 0.121680 0.395252
H8    H     H_    0.222072 0.926128 0.105390 0.382005
H9    H     H_    0.338664 0.059951 0.660979 0.385381
H10   H     H_    0.844600 0.702727 0.911014 0.413044
H11   H     H_    0.866244 0.130195 0.650579 0.354089
H12   H     H_    0.251562 0.669541 0.854588 0.379021
N1    N     N_R   0.498810 0.498800 0.142780 -0.138660
N2    N     N_R   0.498760 0.498720 0.857170 -0.118549
O1    O     O_R   0.500000 0.316780 0.614690 -0.627638
O2    O     O_R   0.994776 0.855499 0.405804 -0.653819
O3    O     O_2   0.744294 0.978598 0.420157 -0.624947
O4    O     O_R   0.725498 0.089866 0.245011 -0.666428
O5    O     O_2   0.889923 0.082504 0.928679 -0.525174
O6    O     O_R   0.797673 0.250094 0.000668 -0.610357
O7    O     O_2   0.586045 0.919240 0.061680 -0.487215
O8    O     O_R   0.778838 0.896323 0.025533 -0.770491
O9    O     O_2   0.313003 0.097857 0.246704 -0.553854
O10   O     O_R   0.246100 0.996459 0.050934 -0.654746
O11   O     O_2   0.295124 0.266464 0.639677 -0.517451
O12   O     O_R   0.499990 0.316750 0.385360 -0.568059
O13   O     O_R   0.361832 0.112183 0.746583 -0.761192
O14   O     O_2   0.658229 0.693992 0.793003 -0.592211
O15   O     O_R   0.783908 0.649548 0.954974 -0.629366
O16   O     O_2   0.771461 0.273184 0.525963 -0.660717
O17   O     O_R   0.903095 0.216804 0.674801 -0.660550
O18   O     O_2   0.053032 0.682413 0.799738 -0.531610
O19   O     O_R   0.240824 0.669635 0.755077 -0.689704
O20   O     O_2   0.781859 0.749345 0.622134 -0.606395
O21   O     O_R   0.952463 0.846756 0.701554 -0.671148
O22   O     O_2   0.039400 0.675503 0.206117 -0.519666
O23   O     O_R   0.314800 0.499990 0.614670 -0.548874
O24   O     O_R   0.227190 0.642670 0.243148 -0.726409
O25   O     O_2   0.078436 0.394270 0.127042 -0.537637
O26   O     O_R   0.182466 0.313871 0.283541 -0.730511
O27   O     O_R   0.314790 0.499970 0.385330 -0.575564
O28   O     O_R   0.500010 0.683250 0.614640 -0.551439
O29   O     O_R   0.500000 0.683220 0.385310 -0.538280
O30   O     O_R   0.685210 0.500030 0.614670 -0.541483
O31   O     O_R   0.685200 0.500010 0.385330 -0.521844
O32   O     O_2   0.831041 0.733371 0.357328 -0.512413
Zn1   Zn    Zn3+2 0.500010 0.500020 0.653130 1.126015
Zn2   Zn    Zn3+2 0.499990 0.499980 0.346870 1.163627

loop_
_geom_bond_atom_site_label_1
_geom_bond_atom_site_label_2
_ccdc_geom_bond_type
H3    O24   S    
C26   O4    S    
C41   C42   A    
C19   C20   S    
C38   Cl7   S    
C12   C23   S    
C31   O14   D    
H9    O13   S    
C38   C39   A    
C4    C24   S    
C16   O29   A    
C21   C33   S    
C28   C40   S    
C31   O15   S    
C7    C42   A    
C29   O10   S    
C11   C30   S    
C27   C39   S    
C8    C9    A    
C14   N1    A    
C34   Cl4   S    
C6    Cl9   S    
C27   O6    S    
C9    C10   A    
C20   Cl3   S    
O27   Zn2   S    
C9    C29   S    
H5    O4    S    
C21   Cl6   S    
C19   Cl11  S    
C13   C14   A    
C26   O3    D    
O23   Zn1   S    
C32   O16   D    
C19   Cl1   S    
H7    O8    S    
C22   C34   S    
C16   O28   A    
C10   Cl2   S    
N2    Zn1   S    
C8    Cl12  S    
C39   C40   A    
C22   C37   S    
C1    O1    A    
O12   Zn2   S    
C1    C3    S    
C33   O18   D    
H10   O15   S    
C4    O27   A    
C35   O20   D    
C2    C38   A    
C25   O32   D    
C15   N1    A    
C12   C20   S    
C37   O25   D    
C15   Cl10  S    
C30   O11   D    
C35   O21   S    
C7    C16   S    
C23   C35   S    
C21   C23   S    
C17   C31   S    
C22   C24   S    
C18   O31   A    
C12   C34   S    
C28   O8    S    
C41   Cl8   S    
H12   O19   S    
C20   C32   S    
C36   O22   D    
C15   C17   A    
H2    O21   S    
C40   C41   A    
C17   N2    A    
C8    C14   A    
H8    O10   S    
O29   Zn2   S    
C3    C5    A    
H11   O17   S    
C6    C7    A    
C34   Cl5   S    
O1    Zn1   S    
O30   Zn1   S    
C22   C36   S    
C4    O23   A    
C30   O13   S    
C2    C3    A    
H4    O26   S    
C27   O5    D    
C11   C13   A    
C36   O24   S    
C5    C6    A    
C2    C42   A    
C32   O17   S    
H6    O6    S    
C37   O26   S    
C19   C24   S    
C23   C25   S    
C33   O19   S    
H1    O2    S    
C10   C11   A    
C5    C26   S    
O31   Zn2   S    
C29   O9    D    
C21   C24   S    
C12   C18   S    
C1    O12   A    
C25   O2    S    
C18   O30   A    
O28   Zn1   S    
C28   O7    D    
N1    Zn2   S    
C13   N2    A    
