data_mof_unit_43434.cif
_audit_creation_date              2012-12-10T16:58:29-0500
_audit_creation_method            fapswitch 2.2
_symmetry_space_group_name_H-M    P1
_symmetry_Int_Tables_number       1
_space_group_crystal_system       triclinic
_cell_length_a                    7.749017
_cell_length_b                    8.579186
_cell_length_c                    22.992182
_cell_angle_alpha                 90.872942
_cell_angle_beta                  85.871602
_cell_angle_gamma                 93.145133
_cell_volume                      1522.16592238

loop_
_atom_site_label
_atom_site_type_symbol
_atom_type_description
_atom_site_fract_x
_atom_site_fract_y
_atom_site_fract_z
_atom_type_partial_charge
C1    C     C_R   0.544693 0.794509 0.498621 0.933465
C2    C     C_R   0.405104 0.434788 0.291007 -0.240029
C3    C     C_R   0.625307 0.718599 0.745258 0.157039
C4    C     C_R   0.407685 0.466686 0.231389 0.147950
C5    C     C_R   0.522465 0.633231 0.788223 0.282163
C6    C     C_R   0.502007 0.602384 0.209876 0.288127
C7    C     C_2   0.562410 0.954796 0.488313 0.085302
C8    C     C_2   0.437926 0.045204 0.512006 0.086887
C9    C     C_R   0.502643 0.502729 0.610865 0.875985
C10   C     C_R   0.498186 0.501507 0.389153 0.874213
C11   C     C_R   0.664354 0.597813 0.117086 0.497911
C12   C     C_R   0.455361 0.205477 0.501520 0.945522
C13   C     C_R   0.398836 0.725259 0.880787 0.500222
C14   C     C_R   0.382569 0.700251 0.124354 0.498444
C15   C     C_R   0.678901 0.619121 0.874216 0.487130
C16   C     C_R   0.388953 0.719294 0.063891 -0.017462
C17   C     C_R   0.684886 0.626504 0.934721 -0.008327
C18   C     C_R   0.536324 0.672905 0.029828 -0.024730
C19   C     C_R   0.540506 0.679269 0.968689 -0.021401
C20   C     C_R   0.677158 0.615002 0.056674 -0.011463
C21   C     C_R   0.397505 0.732432 0.941645 -0.017629
C22   C     C_R   0.250093 0.778183 0.036637 -0.176083
C23   C     C_R   0.412794 0.506461 0.772406 -0.126102
C24   C     C_R   0.827783 0.575699 0.961994 -0.168796
C25   C     C_R   0.254408 0.784828 0.975998 -0.180927
C26   C     C_R   0.824058 0.570216 0.022517 -0.187410
C27   C     C_3   0.735087 0.863672 0.759682 -0.383679
C28   C     C_3   0.658839 0.010472 0.736827 -0.387765
C29   C     C_3   0.765923 0.157864 0.752473 -0.770186
C30   C     C_3   0.317660 0.350822 0.191776 -0.453565
C31   C     C_3   0.120268 0.348905 0.203547 -0.287326
C32   C     C_3   0.029635 0.237004 0.161818 -0.777755
C33   C     C_R   0.593398 0.700781 0.247254 -0.117212
C34   C     C_R   0.406065 0.461988 0.714294 -0.226944
C35   C     C_R   0.593582 0.665317 0.305796 -0.194028
C36   C     C_R   0.514041 0.540645 0.671984 -0.049297
C37   C     C_R   0.499290 0.532837 0.327599 -0.045176
C38   C     C_R   0.623001 0.668090 0.687254 -0.217007
Cl1   Cl    Cl    0.724127 0.012791 0.432681 -0.611891
Cl2   Cl    Cl    0.276934 0.987200 0.567867 -0.610097
H1    H     H_    0.136049 0.815542 0.061944 0.194060
H2    H     H_    0.334492 0.331432 0.308602 0.149663
H3    H     H_    0.013949 0.381793 0.456624 0.216631
H4    H     H_    0.986041 0.618187 0.543386 0.214692
H5    H     H_    0.766485 0.171712 0.800580 0.268263
H6    H     H_    0.901289 0.152105 0.733388 0.270058
H7    H     H_    0.708810 0.261582 0.734799 0.261418
H8    H     H_    0.655410 0.003015 0.688609 0.241603
H9    H     H_    0.523972 0.019695 0.756147 0.249385
H10   H     H_    0.744507 0.877946 0.807402 0.219036
H11   H     H_    0.869016 0.852332 0.739813 0.232112
H12   H     H_    0.941020 0.536524 0.936714 0.198390
H13   H     H_    0.058538 0.275353 0.116038 0.258167
H14   H     H_    0.072969 0.116719 0.166372 0.264449
H15   H     H_    0.887327 0.235478 0.172130 0.268676
H16   H     H_    0.082925 0.311577 0.249002 0.222125
H17   H     H_    0.075337 0.468214 0.198163 0.295256
H18   H     H_    0.351610 0.377369 0.145129 0.206654
H19   H     H_    0.363352 0.232607 0.199226 0.213194
H20   H     H_    0.143515 0.827074 0.956163 0.193457
H21   H     H_    0.934476 0.526887 0.042328 0.191513
H22   H     H_    0.333914 0.441472 0.805534 0.158126
H23   H     H_    0.667070 0.803369 0.230455 0.157226
H24   H     H_    0.319407 0.365136 0.702425 0.169524
H25   H     H_    0.665831 0.741937 0.334304 0.191769
H26   H     H_    0.702082 0.731326 0.653600 0.151805
N1    N     N_R   0.516833 0.635856 0.149119 -0.359304
N2    N     N_R   0.536195 0.665643 0.848802 -0.361675
N3    N     N_2   0.950330 0.457950 0.484560 -0.149189
N4    N     N_2   0.049670 0.542050 0.515440 -0.149172
O1    O     O_R   0.389250 0.738570 0.503790 -0.576607
O2    O     O_2   0.262718 0.773606 0.853738 -0.548688
O3    O     O_2   0.242917 0.742988 0.158071 -0.561397
O4    O     O_2   0.812199 0.561829 0.840971 -0.553452
O5    O     O_R   0.610750 0.261430 0.496210 -0.578962
O6    O     O_R   0.678390 0.711620 0.493890 -0.600314
O7    O     O_R   0.321610 0.288380 0.506110 -0.596307
O8    O     O_R   0.355400 0.513520 0.588790 -0.588135
O9    O     O_R   0.644600 0.486480 0.411210 -0.593802
O10   O     O_R   0.644550 0.486570 0.578900 -0.633382
O11   O     O_R   0.355450 0.513430 0.421100 -0.625543
O12   O     O_2   0.796404 0.540328 0.143683 -0.576018
Zn1   Zn    Zn3+2 0.306930 0.518000 0.506610 1.026846
Zn2   Zn    Zn3+2 0.693070 0.482000 0.493390 1.019774

loop_
_geom_bond_atom_site_label_1
_geom_bond_atom_site_label_2
_ccdc_geom_bond_type
C24   H12   S    
O10   Zn2   S    
O6    Zn2   S    
C7    C8    D    
C1    O1    A    
C29   H7    S    
C10   C37   S    
C28   C29   S    
C35   C37   A    
C26   H21   S    
C24   C26   A    
O9    Zn2   S    
O5    Zn2   S    
C22   H1    S    
O7    Zn1   S    
C18   C19   A    
C17   C19   A    
O8    Zn1   S    
C23   H22   S    
C38   H26   S    
C3    C38   A    
C11   N1    A    
C22   C25   A    
C9    C36   S    
C14   N1    A    
H4    N4    S    
C25   H20   S    
C31   H16   S    
C32   H15   S    
C34   C36   A    
C27   H10   S    
C33   H23   S    
H3    N3    S    
C30   H19   S    
C5    N2    S    
C32   H14   S    
O11   Zn1   S    
C27   H11   S    
O1    Zn1   S    
C11   O12   S    
C11   C20   A    
C17   C24   A    
C14   O3    S    
C4    C6    A    
C35   H25   S    
C29   H5    S    
C9    O10   A    
C2    C4    A    
C28   H9    S    
C31   C32   S    
C5    C23   A    
C8    C12   S    
C23   C34   A    
C12   O7    A    
C34   H24   S    
C13   C21   A    
N4    Zn1   S    
C6    N1    S    
C14   C16   A    
C32   H13   S    
C15   C17   A    
C21   C25   A    
C28   H8    S    
C16   C22   A    
C19   C21   A    
C1    C7    S    
C1    O6    A    
C3    C5    A    
C10   O9    A    
C13   O2    S    
C10   O11   A    
C6    C33   A    
C29   H6    S    
C31   H17   S    
C3    C27   S    
N3    Zn2   S    
C2    C37   A    
C30   C31   S    
C20   C26   A    
C2    H2    S    
C15   N2    A    
C30   H18   S    
C36   C38   A    
C33   C35   A    
C18   C20   A    
C9    O8    A    
N3    N4    D    
C15   O4    S    
C16   C18   A    
C12   O5    A    
C27   C28   S    
C7    Cl1   S    
C8    Cl2   S    
C4    C30   S    
C13   N2    A    
