data_mof_unit_24509.cif
_audit_creation_date              2012-12-11T15:34:43-0500
_audit_creation_method            fapswitch 2.2
_symmetry_space_group_name_H-M    P1
_symmetry_Int_Tables_number       1
_space_group_crystal_system       triclinic
_cell_length_a                    17.077233
_cell_length_b                    17.131712
_cell_length_c                    17.225792
_cell_angle_alpha                 90.232887
_cell_angle_beta                  89.8887
_cell_angle_gamma                 90.132083
_cell_volume                      5039.55181183

loop_
_atom_site_label
_atom_site_type_symbol
_atom_type_description
_atom_site_fract_x
_atom_site_fract_y
_atom_site_fract_z
_atom_type_partial_charge
C1    C     C_R   0.800659 0.104264 0.401808 -0.127667
C2    C     C_R   0.198871 0.105477 0.399952 -0.157051
C3    C     C_2   0.317129 0.854506 0.075820 0.493731
C4    C     C_2   0.729263 0.550941 0.702579 0.468348
C5    C     C_2   0.255805 0.454937 0.302769 0.431840
C6    C     C_2   0.372486 0.810244 0.765485 0.550229
C7    C     C_2   0.662224 0.167807 0.193692 0.567952
C8    C     C_2   0.145867 0.634908 0.161276 0.646748
C9    C     C_2   0.861447 0.302075 0.934755 0.512084
C10   C     C_2   0.693991 0.864528 0.073547 0.513861
C11   C     C_2   0.459378 0.268137 0.690264 0.479917
C12   C     C_2   0.735388 0.439945 0.289141 0.444358
C13   C     C_R   0.911977 0.180303 0.636859 -0.097187
C14   C     C_2   0.149206 0.684743 0.916762 0.541511
C15   C     C_2   0.460709 0.263161 0.292678 0.526283
C16   C     C_2   0.622972 0.818565 0.775683 0.473782
C17   C     C_2   0.763199 0.941990 0.211412 0.435761
C18   C     C_2   0.354074 0.182856 0.580689 0.533759
C19   C     C_2   0.039386 0.761745 0.207269 0.509788
C20   C     C_2   0.944417 0.232652 0.798743 0.430013
C21   C     C_2   0.353168 0.135222 0.335799 0.649693
C22   C     C_2   0.626848 0.836286 0.602139 0.494817
C23   C     C_2   0.801223 0.361112 0.427163 0.502019
C24   C     C_R   0.084878 0.825673 0.358641 -0.151732
C25   C     C_2   0.043949 0.776235 0.813144 0.487769
C26   C     C_2   0.676176 0.137081 0.711011 0.566141
C27   C     C_2   0.243998 0.954779 0.197330 0.429856
C28   C     C_2   0.133242 0.323295 0.720378 0.602747
C29   C     C_2   0.844144 0.668916 0.293078 0.581352
C30   C     C_2   0.260649 0.951655 0.799066 0.630119
C31   C     C_2   0.630505 0.145321 0.366109 0.603699
C32   C     C_2   0.818598 0.633132 0.578958 0.510120
C33   C     C_2   0.182515 0.354869 0.423578 0.499185
C34   C     C_R   0.196439 0.105816 0.609020 -0.086515
C35   C     C_R   0.814555 0.908267 0.369191 -0.115512
C36   C     C_R   0.076886 0.832344 0.646497 -0.109253
C37   C     C_R   0.889698 0.198318 0.401937 -0.084009
C38   C     C_R   0.304164 0.604436 0.889310 -0.090872
C39   C     C_R   0.686346 0.408156 0.129527 -0.097901
C40   C     C_R   0.423852 0.331813 0.853559 -0.109011
C41   C     C_R   0.170104 0.923466 0.644221 -0.109760
C42   C     C_R   0.610025 0.698887 0.097446 -0.077285
C43   C     C_R   0.698942 0.389302 0.902850 -0.084924
C44   C     C_R   0.301078 0.605265 0.099743 -0.158761
C45   C     C_R   0.582193 0.674455 0.858994 -0.007987
C46   C     C_R   0.415252 0.326131 0.141327 -0.150728
C47   C     C_R   0.328805 0.422714 0.144433 -0.107983
C48   C     C_R   0.679629 0.587525 0.862608 -0.115819
C49   C     C_R   0.392538 0.696579 0.106646 -0.058569
C50   C     C_R   0.605079 0.300476 0.902202 -0.127581
C51   C     C_R   0.699366 0.605533 0.097901 -0.127912
C52   C     C_R   0.906345 0.816069 0.368280 -0.049512
C53   C     C_R   0.331117 0.422821 0.854694 -0.116254
C54   C     C_R   0.594112 0.315825 0.130530 -0.061441
C55   C     C_R   0.394696 0.696922 0.894575 -0.124166
C56   C     C_R   0.239613 0.244605 0.651976 0.032655
C57   C     C_R   0.808250 0.808715 0.256857 0.064194
C58   C     C_R   0.813869 0.181273 0.751763 0.077181
C59   C     C_R   0.161114 0.838896 0.230577 -0.108502
C60   C     C_R   0.748176 0.754848 0.619571 0.212549
C61   C     C_R   0.249476 0.240106 0.359178 0.062542
C62   C     C_R   0.164245 0.845509 0.769024 -0.135361
C63   C     C_R   0.105821 0.197699 0.604141 -0.130016
C64   C     C_R   0.745695 0.237092 0.373471 0.214944
C65   C     C_R   0.754048 0.740871 0.121229 0.210301
C66   C     C_R   0.341621 0.345211 0.728150 -0.130128
C67   C     C_R   0.250294 0.739861 0.139964 0.066336
C68   C     C_R   0.739317 0.244228 0.880413 0.226244
C69   C     C_R   0.338876 0.339434 0.269239 -0.107114
C70   C     C_R   0.678556 0.682539 0.745759 0.065640
C71   C     C_R   0.694927 0.306643 0.238238 0.072494
C72   C     C_R   0.263836 0.741278 0.841691 0.010947
C73   C     C_R   0.810033 0.183133 0.391767 0.092539
C74   C     C_R   0.171303 0.922520 0.355660 -0.106247
C75   C     C_R   0.135168 0.867969 0.691418 0.057874
C76   C     C_R   0.839159 0.841477 0.330360 0.078363
C77   C     C_R   0.182367 0.183946 0.626557 0.074182
C78   C     C_R   0.139541 0.862926 0.310877 0.067370
C79   C     C_R   0.849143 0.150206 0.679346 0.060063
C80   C     C_R   0.187245 0.182494 0.380004 0.087414
C81   C     C_R   0.811166 0.813262 0.606370 0.097920
C82   C     C_R   0.319174 0.681727 0.870240 0.084344
C83   C     C_R   0.662261 0.340932 0.167137 0.085301
C84   C     C_R   0.367072 0.367192 0.807616 0.056194
C85   C     C_R   0.824624 0.082896 0.640752 -0.023661
C86   C     C_R   0.689748 0.684858 0.106798 0.085586
C87   C     C_R   0.684260 0.309567 0.893237 0.098825
C88   C     C_R   0.312619 0.682470 0.119486 0.089409
C89   C     C_R   0.648874 0.649630 0.819744 0.056542
C90   C     C_R   0.360554 0.363405 0.189091 0.065817
C91   C     C_R   0.268596 0.372223 0.704216 -0.058497
C92   C     C_R   0.819148 0.709580 0.158563 -0.228251
C93   C     C_R   0.708317 0.177823 0.844277 -0.215987
C94   C     C_R   0.266783 0.821116 0.138112 -0.056619
C95   C     C_R   0.726299 0.637209 0.694668 -0.130063
C96   C     C_R   0.107376 0.196397 0.393107 -0.060306
C97   C     C_R   0.273894 0.370643 0.309409 -0.076224
C98   C     C_R   0.293498 0.808252 0.803134 -0.028609
C99   C     C_R   0.677134 0.227654 0.254827 -0.149528
C100  C     C_R   0.174090 0.716261 0.164931 -0.077334
C101  C     C_R   0.819544 0.259177 0.871659 -0.118143
C102  C     C_R   0.736925 0.820061 0.134109 -0.138534
C103  C     C_R   0.373325 0.280346 0.688604 -0.097982
C104  C     C_R   0.731658 0.353849 0.296548 -0.127700
C105  C     C_R   0.181337 0.735024 0.854550 -0.044266
C106  C     C_R   0.374385 0.272554 0.299408 -0.068480
C107  C     C_R   0.890947 0.800843 0.597247 -0.099781
C108  C     C_R   0.655570 0.758739 0.722152 -0.145211
C109  C     C_R   0.768483 0.856264 0.201312 -0.109941
C110  C     C_R   0.322098 0.234198 0.642501 -0.049191
C111  C     C_R   0.125543 0.771841 0.200060 -0.060257
C112  C     C_R   0.858671 0.224683 0.807317 -0.102496
C113  C     C_R   0.325622 0.216717 0.333855 -0.078151
C114  C     C_R   0.677306 0.783471 0.648475 -0.204857
C115  C     C_R   0.761481 0.316951 0.363697 -0.122885
C116  C     C_R   0.130714 0.783233 0.810648 -0.102733
C117  C     C_R   0.735127 0.161349 0.769965 -0.190462
C118  C     C_R   0.800604 0.892842 0.597678 -0.123935
C119  C     C_R   0.225963 0.870375 0.190367 -0.076569
C120  C     C_R   0.212773 0.315540 0.685923 -0.071198
C121  C     C_R   0.828768 0.731274 0.235607 -0.156641
C122  C     C_R   0.240760 0.867909 0.787316 -0.046008
C123  C     C_R   0.684315 0.203743 0.331196 -0.246540
C124  C     C_R   0.766019 0.675715 0.633330 -0.118983
C125  C     C_R   0.233016 0.321350 0.361357 -0.059129
C126  C     C_2   0.255155 0.457150 0.693136 0.631579
C127  C     C_2   0.871472 0.652559 0.119306 0.568726
C128  C     C_2   0.653353 0.124487 0.885060 0.532491
H1    H     H_    0.747191 0.071701 0.407642 0.132021
H2    H     H_    0.252989 0.077097 0.414011 0.142632
H3    H     H_    0.944728 0.233237 0.647572 0.130751
H4    H     H_    0.058713 0.769531 0.349685 0.128253
H5    H     H_    0.252379 0.076768 0.609693 0.103192
H6    H     H_    0.761598 0.941277 0.360357 0.135365
H7    H     H_    0.038721 0.784931 0.662819 0.117854
H8    H     H_    0.917418 0.255010 0.404911 0.114284
H9    H     H_    0.248109 0.575307 0.888104 0.102138
H10   H     H_    0.739531 0.441228 0.138244 0.130754
H11   H     H_    0.461816 0.284234 0.837853 0.112060
H12   H     H_    0.219790 0.959689 0.657000 0.093242
H13   H     H_    0.581968 0.755187 0.093674 0.116064
H14   H     H_    0.755793 0.416753 0.907144 0.132651
H15   H     H_    0.247127 0.576464 0.085258 0.139312
H16   H     H_    0.540643 0.718050 0.841492 0.078951
H17   H     H_    0.441655 0.270308 0.150310 0.126436
H18   H     H_    0.281743 0.461723 0.159071 0.108761
H19   H     H_    0.732269 0.554459 0.851634 0.143780
H20   H     H_    0.422409 0.752154 0.108675 0.097984
H21   H     H_    0.572932 0.246730 0.907744 0.137344
H22   H     H_    0.753088 0.573405 0.092695 0.124486
H23   H     H_    0.937446 0.762835 0.357901 0.117534
H24   H     H_    0.281759 0.458722 0.840577 0.095191
H25   H     H_    0.562890 0.262513 0.140744 0.116822
H26   H     H_    0.421326 0.753822 0.901855 0.140236
H27   H     H_    0.298969 0.499054 0.712084 -0.052744
H28   H     H_    0.909463 0.614513 0.152055 0.086353
H29   H     H_    0.623853 0.077725 0.854223 0.018438
H30   H     H_    0.349584 0.908115 0.084121 0.100986
H31   H     H_    0.675386 0.518768 0.712659 0.023354
H32   H     H_    0.303104 0.496501 0.294250 0.028030
H33   H     H_    0.408002 0.758107 0.761531 -0.045006
H34   H     H_    0.078794 0.254040 0.595867 0.138556
H35   H     H_    0.628503 0.115775 0.206111 0.069605
H36   H     H_    0.169681 0.591943 0.200664 0.020004
H37   H     H_    0.920987 0.322338 0.927988 0.106495
H38   H     H_    0.671844 0.922617 0.084554 0.106946
H39   H     H_    0.497996 0.317964 0.698163 0.037670
H40   H     H_    0.682364 0.472560 0.277288 0.032001
H41   H     H_    0.097975 0.648670 0.907544 0.113516
H42   H     H_    0.497958 0.314590 0.294085 -0.000545
H43   H     H_    0.576461 0.857174 0.757334 0.029964
H44   H     H_    0.815897 0.975728 0.222508 0.032468
H45   H     H_    0.218453 0.961578 0.341189 0.108688
H46   H     H_    0.406478 0.148690 0.589258 0.114458
H47   H     H_    0.001828 0.812770 0.206083 0.002843
H48   H     H_    0.979567 0.182284 0.783043 0.004611
H49   H     H_    0.327688 0.092544 0.296709 0.017245
H50   H     H_    0.577059 0.865540 0.628104 0.035787
H51   H     H_    0.822531 0.419948 0.418627 0.103919
H52   H     H_    0.008340 0.827770 0.803839 0.031700
H53   H     H_    0.627857 0.099052 0.726343 0.018582
H54   H     H_    0.196740 0.996098 0.206534 0.025809
H55   H     H_    0.098544 0.271678 0.731177 0.003135
H56   H     H_    0.779552 0.042347 0.658152 0.077030
H57   H     H_    0.880546 0.619229 0.278716 0.068973
H58   H     H_    0.217532 0.996299 0.786517 -0.053854
H59   H     H_    0.596228 0.106003 0.330391 0.076541
H60   H     H_    0.848252 0.580186 0.595706 0.110572
H61   H     H_    0.149837 0.408115 0.415180 0.101211
H62   H     H_    0.077453 0.251781 0.390936 0.097030
H63   H     H_    0.920403 0.745324 0.593625 0.125681
H64   H     H_    0.746051 0.923857 0.593714 0.131012
N1    N     N_R   0.868470 0.074730 0.422590 -0.056246
N2    N     N_R   0.131530 0.074730 0.422590 -0.051860
N3    N     N_R   0.925270 0.131530 0.577410 -0.051072
N4    N     N_R   0.074730 0.868470 0.422590 -0.045487
N5    N     N_R   0.131530 0.074730 0.577410 -0.049993
N6    N     N_R   0.868470 0.925270 0.422590 -0.050549
N7    N     N_R   0.074730 0.868470 0.577410 -0.046388
N8    N     N_R   0.925270 0.131530 0.422590 -0.055636
N9    N     N_R   0.368470 0.574730 0.922590 -0.049480
N10   N     N_R   0.631530 0.425270 0.077410 -0.052029
N11   N     N_R   0.425270 0.368470 0.922590 -0.045778
N12   N     N_R   0.131530 0.925270 0.577410 -0.045020
N13   N     N_R   0.574730 0.631530 0.077410 -0.056169
N14   N     N_R   0.631530 0.425270 0.922590 -0.059421
N15   N     N_R   0.368470 0.574730 0.077410 -0.051588
N16   N     N_R   0.574730 0.631530 0.922590 -0.049983
N17   N     N_R   0.425270 0.368470 0.077410 -0.044858
N18   N     N_R   0.368470 0.425270 0.077410 -0.044844
N19   N     N_R   0.631530 0.574730 0.922590 -0.050902
N20   N     N_R   0.425270 0.631530 0.077410 -0.051128
N21   N     N_R   0.574730 0.368470 0.922590 -0.056950
N22   N     N_R   0.631530 0.574730 0.077410 -0.055857
N23   N     N_R   0.925270 0.868470 0.422590 -0.052472
N24   N     N_R   0.368470 0.425270 0.922590 -0.044310
N25   N     N_R   0.574730 0.368470 0.077410 -0.051687
N26   N     N_R   0.425270 0.631530 0.922590 -0.057545
N27   N     N_R   0.074730 0.131530 0.577410 -0.054161
N28   N     N_R   0.131530 0.925270 0.422590 -0.044768
N29   N     N_R   0.868470 0.074730 0.577410 -0.047302
N30   N     N_R   0.074730 0.131530 0.422590 -0.050605
N31   N     N_R   0.925270 0.868470 0.577410 -0.057214
N32   N     N_R   0.868470 0.925270 0.577410 -0.057900
Ni1   Ni    Ni4+2 0.869670 0.000000 0.500000 0.249576
Ni2   Ni    Ni4+2 0.130330 0.000000 0.500000 0.234907
Ni3   Ni    Ni4+2 1.000000 0.869670 0.500000 0.241247
Ni4   Ni    Ni4+2 0.000000 0.130330 0.500000 0.238648
Ni5   Ni    Ni4+2 0.369670 0.500000 0.000000 0.234087
Ni6   Ni    Ni4+2 0.630330 0.500000 0.000000 0.242309
Ni7   Ni    Ni4+2 0.500000 0.369670 0.000000 0.240937
Ni8   Ni    Ni4+2 0.500000 0.630330 0.000000 0.244518
O1    O     O_2   0.197835 0.481074 0.658389 -0.519399
O2    O     O_2   0.829781 0.313534 0.997436 -0.563141
O3    O     O_2   0.684232 0.836770 0.008868 -0.520119
O4    O     O_2   0.487838 0.202936 0.687429 -0.585407
O5    O     O_2   0.797874 0.474514 0.292262 -0.595030
O6    O     O_2   0.179941 0.684335 0.980554 -0.563904
O7    O     O_2   0.490500 0.199769 0.280284 -0.624549
O8    O     O_2   0.650880 0.827711 0.840276 -0.496814
O9    O     O_2   0.699897 0.974875 0.211566 -0.607916
O10   O     O_2   0.322373 0.180088 0.517410 -0.566434
O11   O     O_2   0.010157 0.698115 0.219856 -0.634521
O12   O     O_2   0.873784 0.648894 0.048502 -0.532552
O13   O     O_2   0.975931 0.296231 0.805443 -0.557779
O14   O     O_2   0.403332 0.115089 0.381957 -0.503208
O15   O     O_2   0.638352 0.844662 0.532645 -0.540292
O16   O     O_2   0.809172 0.332246 0.491402 -0.550258
O17   O     O_2   0.011278 0.713421 0.821450 -0.561885
O18   O     O_2   0.678390 0.163483 0.645282 -0.495550
O19   O     O_2   0.311364 0.978630 0.196737 -0.601253
O20   O     O_2   0.107382 0.386164 0.741849 -0.485734
O21   O     O_2   0.811939 0.670321 0.356304 -0.495673
O22   O     O_2   0.323242 0.971611 0.827048 -0.527660
O23   O     O_2   0.643620 0.129753 0.955157 -0.521428
O24   O     O_2   0.622133 0.142319 0.436484 -0.512982
O25   O     O_2   0.829055 0.657085 0.513168 -0.524681
O26   O     O_2   0.179185 0.323945 0.487210 -0.573103
O27   O     O_2   0.320583 0.823006 0.012214 -0.572161
O28   O     O_2   0.791274 0.515707 0.702712 -0.555105
O29   O     O_2   0.188404 0.478400 0.302774 -0.601559
O30   O     O_2   0.397098 0.868874 0.733497 -0.558388
O31   O     O_2   0.690943 0.174511 0.129064 -0.505518
O32   O     O_2   0.096677 0.615321 0.113621 -0.514319

loop_
_geom_bond_atom_site_label_1
_geom_bond_atom_site_label_2
_ccdc_geom_bond_type
C95   C124  A    
C55   H26   S    
C11   H39   S    
C71   C104  A    
C13   C79   A    
N19   Ni6   S    
N29   Ni1   S    
N14   Ni6   S    
C32   C124  S    
C105  C116  A    
C60   C114  A    
N31   N32   A    
C34   N5    A    
C26   C117  S    
C39   C83   A    
C22   H50   S    
N32   Ni1   S    
C54   H25   S    
C81   C107  A    
C25   H52   S    
C65   C86   S    
C72   C98   A    
C101  C112  A    
C10   O3    D    
N13   Ni8   S    
C63   H34   S    
C7    C99   S    
C31   O24   D    
C103  C110  A    
C58   C112  A    
C6    C98   S    
C57   C76   S    
C99   C123  A    
C32   O25   D    
C91   C126  S    
C28   H55   S    
N9    N26   A    
C12   C104  S    
C1    H1    S    
C44   H15   S    
C34   C77   A    
N17   Ni7   S    
C22   O15   D    
N20   Ni8   S    
C93   C128  S    
N31   Ni3   S    
C67   C94   A    
C4    H31   S    
C24   N4    A    
C61   C80   S    
C96   H62   S    
C104  C115  A    
C40   H11   S    
C15   O7    D    
C128  O23   D    
C59   C78   S    
C42   N13   A    
C33   H61   S    
N8    Ni4   S    
C37   N8    A    
C63   N27   A    
C23   O16   D    
C60   C124  A    
C126  O1    D    
C40   C84   A    
C52   N23   A    
C41   H12   S    
C27   O19   D    
C26   O18   D    
C33   C125  S    
C20   C112  S    
C118  H64   S    
N18   Ni5   S    
C14   C105  S    
C57   C109  A    
C30   C122  S    
C51   H22   S    
C38   N9    A    
C29   C121  S    
C33   O26   D    
C53   H24   S    
C59   C111  A    
C64   C73   S    
C36   N7    A    
C7    O31   D    
C42   C86   A    
C16   O8    D    
C29   O21   D    
N27   Ni4   S    
C8    O32   D    
C45   C89   A    
C71   C83   S    
N21   Ni7   S    
N6    Ni1   S    
C19   O11   D    
N2    N30   A    
C126  H27   S    
C18   O10   D    
N9    Ni5   S    
C39   H10   S    
C17   O9    D    
C4    O28   D    
C64   C115  A    
C38   C82   A    
C43   N14   A    
C5    O29   D    
C56   C120  A    
C49   C88   A    
N1    Ni1   S    
C93   C117  A    
C65   C102  A    
C14   H41   S    
N6    N23   A    
C51   C86   A    
C56   C110  A    
C54   C83   A    
N4    N28   A    
C128  H29   S    
N24   Ni5   S    
C55   N26   A    
C107  N31   A    
C3    H30   S    
C35   C76   A    
C17   H44   S    
C32   H60   S    
C106  C113  A    
C118  N32   A    
C45   H16   S    
N11   N24   A    
C10   C102  S    
C68   C101  A    
C92   C127  S    
C74   H45   S    
C21   C113  S    
C8    H36   S    
C25   C116  S    
C14   O6    D    
C85   N29   A    
N15   Ni5   S    
C50   N21   A    
C71   C99   A    
C81   C118  A    
C44   N15   A    
C56   C77   S    
C49   H20   S    
C41   N12   A    
C66   C84   S    
C108  C114  A    
C28   O20   D    
C62   C116  A    
C94   C119  A    
C36   C75   A    
C41   C75   A    
C4    C95   S    
C19   C111  S    
C60   C81   S    
C24   H4    S    
N10   N25   A    
C48   N19   A    
C35   H6    S    
C10   H38   S    
C5    H32   S    
C25   O17   D    
C42   H13   S    
C30   O22   D    
N17   N18   A    
C13   H3    S    
C37   H8    S    
N28   Ni2   S    
C6    O30   D    
C55   C82   A    
N26   Ni8   S    
C74   N28   A    
C21   O14   D    
C6    H33   S    
N16   N19   A    
C58   C79   S    
N16   Ni8   S    
C102  C109  A    
C67   C100  A    
C51   N22   A    
C97   C125  A    
C12   O5    D    
C5    C97   S    
N13   N22   A    
C85   H56   S    
C96   N30   A    
C48   C89   A    
C53   C84   A    
C28   C120  S    
N15   N20   A    
C72   C82   S    
C47   C90   A    
C62   C75   S    
C39   N10   A    
C70   C89   S    
C80   C96   A    
C107  H63   S    
C69   C90   S    
N22   Ni6   S    
C36   H7    S    
C18   H46   S    
C62   C122  A    
C15   C106  S    
C54   N25   A    
N3    N29   A    
C63   C77   A    
C24   C78   A    
C11   O4    D    
C98   C122  A    
C37   C73   A    
C20   O13   D    
C59   C119  A    
C9    O2    D    
C91   C120  A    
C23   H51   S    
C66   C103  A    
C50   C87   A    
C127  O12   D    
C18   C110  S    
N14   N21   A    
C52   C76   A    
C57   C121  A    
C17   C109  S    
C127  H28   S    
C12   H40   S    
C61   C125  A    
C69   C106  A    
C67   C88   S    
C66   C91   A    
C46   C90   A    
C27   C119  S    
C45   N16   A    
N1    N8    A    
N3    Ni4   S    
C74   C78   A    
C40   N11   A    
C68   C93   A    
C34   H5    S    
C16   H43   S    
N10   Ni6   S    
C79   C85   A    
C43   C87   A    
N2    Ni2   S    
C9    H37   S    
C70   C95   A    
C46   N17   A    
C27   H54   S    
C31   C123  S    
C70   C108  A    
C92   C121  A    
N5    Ni2   S    
C61   C113  A    
C50   H21   S    
N7    Ni3   S    
C20   H48   S    
C64   C123  A    
C7    H35   S    
N7    N12   A    
C52   H23   S    
C3    O27   D    
C49   N20   A    
C21   H49   S    
C2    H2    S    
C38   H9    S    
C29   H57   S    
N11   Ni7   S    
C3    C94   S    
N23   Ni3   S    
C58   C117  A    
C8    C100  S    
N5    N27   A    
C19   H47   S    
C53   N24   A    
C47   H18   S    
C2    C80   A    
C16   C108  S    
C23   C115  S    
C65   C92   A    
C46   H17   S    
C26   H53   S    
C22   C114  S    
C72   C105  A    
C15   H42   S    
C100  C111  A    
C9    C101  S    
N30   Ni4   S    
C13   N3    A    
C47   N18   A    
C31   H59   S    
C30   H58   S    
C68   C87   S    
N4    Ni3   S    
C1    N1    A    
C43   H14   S    
C11   C103  S    
C2    N2    A    
C44   C88   A    
N12   Ni2   S    
C1    C73   A    
N25   Ni7   S    
C35   N6    A    
C48   H19   S    
C69   C97   A    
