data_mof_unit_64457.cif
_audit_creation_date              2013-03-05T16:45:09-0500
_audit_creation_method            fapswitch 2.2
_symmetry_space_group_name_H-M    P1
_symmetry_Int_Tables_number       1
_space_group_crystal_system       triclinic
_cell_length_a                    14.354162
_cell_length_b                    15.822709
_cell_length_c                    17.114211
_cell_angle_alpha                 96.380874
_cell_angle_beta                  90.361247
_cell_angle_gamma                 92.255081
_cell_volume                      3859.71464328

loop_
_atom_site_label
_atom_site_type_symbol
_atom_site_description
_atom_site_fract_x
_atom_site_fract_y
_atom_site_fract_z
_atom_type_partial_charge
O1    O     O_R   0.496120 0.420530 0.382500 -0.539559
O2    O     O_R   0.503880 0.579470 0.617500 -0.539547
O3    O     O_R   0.503120 0.563720 0.388950 -0.550413
O4    O     O_R   0.496880 0.436280 0.611050 -0.550432
C1    C     C_R   0.501897 0.489628 0.348692 0.849756
C2    C     C_R   0.498111 0.510372 0.651307 0.849774
O5    O     O_R   0.372550 0.428390 0.496770 -0.488557
O6    O     O_R   0.627450 0.571610 0.503230 -0.488555
O7    O     O_R   0.379550 0.571580 0.503220 -0.585158
O8    O     O_R   0.620450 0.428420 0.496780 -0.585160
C3    C     C_R   0.330911 0.500139 0.499932 0.830328
C4    C     C_R   0.669089 0.499861 0.500068 0.830292
Cu1   Cu    Cu3+1 0.495850 0.415220 0.496180 1.058109
Cu2   Cu    Cu3+1 0.504150 0.584780 0.503820 1.058122
C5    C     C_1   0.228655 0.500395 0.499982 -0.112740
C6    C     C_1   0.771345 0.499605 0.500018 -0.112757
C7    C     C_1   0.143291 0.500336 0.500003 0.047200
C8    C     C_1   0.856709 0.499664 0.499997 0.047192
C9    C     C_1   0.042687 0.500113 0.500003 0.056193
C10   C     C_1   0.957313 0.499887 0.499997 0.056191
C11   C     C_R   0.504203 0.483985 0.262723 -0.161291
C12   C     C_R   0.495825 0.516013 0.737275 -0.161273
C13   C     C_R   0.551770 0.546784 0.223604 0.292036
C14   C     C_R   0.448234 0.453233 0.776398 0.292056
C15   C     C_R   0.544031 0.542913 0.141822 -0.188562
C16   C     C_R   0.455989 0.457093 0.858177 -0.188563
C17   C     C_R   0.491780 0.476107 0.098310 0.321858
C18   C     C_R   0.508289 0.523870 0.901684 0.321858
C19   C     C_R   0.448280 0.412865 0.137489 -0.154749
C20   C     C_R   0.551821 0.587092 0.862500 -0.154742
C21   C     C_R   0.454199 0.416646 0.218932 -0.225792
C22   C     C_R   0.545880 0.583323 0.781060 -0.225805
N1    N     N_2   0.481790 0.469544 0.015340 -0.221518
N2    N     N_2   0.518288 0.530429 0.984654 -0.221522
H1    H     H_    0.419337 0.408753 0.887589 0.199932
H2    H     H_    0.580659 0.591270 0.112414 0.199946
H3    H     H_    0.408440 0.360955 0.104677 0.181694
H4    H     H_    0.591702 0.638978 0.895309 0.181693
H5    H     H_    0.417562 0.367921 0.247940 0.227578
H6    H     H_    0.582543 0.632030 0.752046 0.227570
N3    N     N_R   0.510380 0.712130 0.509560 -0.284727
N4    N     N_R   0.489620 0.287870 0.490440 -0.284729
C23   C     C_R   0.454969 0.751050 0.460541 -0.153368
C24   C     C_R   0.545032 0.248950 0.539458 -0.153381
C25   C     C_R   0.457176 0.840191 0.462286 0.487723
C26   C     C_R   0.542825 0.159809 0.537714 0.487720
C27   C     C_R   0.517828 0.890882 0.515711 0.045054
C28   C     C_R   0.482172 0.109118 0.484288 0.045055
C29   C     C_R   0.573989 0.848742 0.565223 0.417621
C30   C     C_R   0.426012 0.151258 0.434776 0.417620
C31   C     C_R   0.569447 0.759541 0.561356 0.668822
C32   C     C_R   0.430552 0.240459 0.438644 0.668808
N5    N     N_2   0.525687 0.982422 0.522476 -0.024872
N6    N     N_2   0.474314 0.017577 0.477523 -0.024872
H7    H     H_    0.591453 0.287276 0.580391 0.210749
H8    H     H_    0.408547 0.712724 0.419608 0.210748
N7    N     N_R   0.389202 0.387452 0.734767 0.139385
O9    O     O_R   0.329866 0.406245 0.682161 -0.343619
O10   O     O_R   0.384281 0.311688 0.757678 -0.305431
N8    N     N_R   0.610768 0.612591 0.265238 0.139387
O11   O     O_R   0.670093 0.593830 0.317867 -0.343588
O12   O     O_R   0.615694 0.688344 0.242298 -0.305435
F1    F     F_    0.599531 0.124716 0.587911 -0.559849
F2    F     F_    0.400470 0.875284 0.412088 -0.559847
F3    F     F_    0.633399 0.894305 0.617364 -0.532283
F4    F     F_    0.366601 0.105694 0.382636 -0.532284
F5    F     F_    0.624733 0.720532 0.609628 -0.601548
F6    F     F_    0.375267 0.279468 0.390372 -0.601544

loop_
_geom_bond_atom_site_label_1
_geom_bond_atom_site_label_2
_geom_bond_distance
_ccdc_geom_bond_type
O5    C3    1.299668 A    
O7    Cu2   1.792333 S    
O8    Cu1   1.792333 S    
C29   F3    1.357319 S    
C17   C19   1.395015 A    
N3    C23   1.364045 A    
C12   C22   1.402722 A    
C25   F2    1.357083 S    
C16   C18   1.410686 A    
C9    C10   1.225338 T    
C32   F6    1.355300 S    
O6    C4    1.299669 A    
C26   F1    1.357083 S    
C27   N5    1.440044 S    
C23   H8    1.081843 S    
C11   C21   1.402727 A    
C19   C21   1.390375 A    
C28   C30   1.404183 A    
N1    N2    1.246819 D    
C18   N2    1.418159 S    
C18   C20   1.395016 A    
C27   C29   1.404184 A    
C31   F5    1.355300 S    
Cu1   Cu2   2.669440 S    
C17   N1    1.418156 S    
C28   N6    1.440045 S    
C23   C25   1.406546 A    
C30   F4    1.357318 S    
C24   H7    1.081843 S    
N7    O9    1.301598 A    
O2    C2    1.292685 A    
O3    Cu2   1.956960 S    
N4    C24   1.364046 A    
Cu2   N3    2.004912 S    
O1    C1    1.292694 A    
O8    C4    1.300641 A    
N8    O12   1.301566 A    
Cu1   N4    2.004912 S    
C7    C9    1.443957 S    
C14   C16   1.397662 A    
C8    C10   1.443957 S    
C22   H6    1.083460 S    
O7    C3    1.300639 A    
C11   C13   1.414921 A    
C13   N8    1.437779 S    
O2    Cu2   1.956684 S    
C12   C14   1.414889 A    
N7    O10   1.301536 A    
O4    C2    1.291534 A    
C15   C17   1.410680 A    
C15   H2    1.082797 S    
C20   C22   1.390364 A    
C26   C28   1.417504 A    
C4    C6    1.467958 S    
C16   H1    1.082795 S    
O5    Cu1   1.790178 S    
C13   C15   1.397675 A    
O1    Cu1   1.956687 S    
C20   H4    1.083270 S    
C6    C8    1.225295 T    
C25   C27   1.417504 A    
C19   H3    1.083272 S    
C30   C32   1.404496 A    
C5    C7    1.225295 T    
C14   N7    1.437751 S    
O6    Cu2   1.790181 S    
C2    C12   1.464692 S    
C24   C26   1.406546 A    
O3    C1    1.291546 A    
N5    N6    1.251128 D    
C3    C5    1.467958 S    
N3    C31   1.363853 A    
O4    Cu1   1.956960 S    
C21   H5    1.083460 S    
N8    O11   1.301605 A    
C29   C31   1.404496 A    
C1    C11   1.464720 S    
N4    C32   1.363855 A    
