data_mof_unit_40446.cif
_audit_creation_date              2012-12-11T14:35:48-0500
_audit_creation_method            fapswitch 2.2
_symmetry_space_group_name_H-M    P1
_symmetry_Int_Tables_number       1
_space_group_crystal_system       triclinic
_cell_length_a                    14.437201
_cell_length_b                    16.064559
_cell_length_c                    7.031427
_cell_angle_alpha                 90.000021
_cell_angle_beta                  81.092374
_cell_angle_gamma                 90.0
_cell_volume                      1611.11124826

loop_
_atom_site_label
_atom_site_type_symbol
_atom_type_description
_atom_site_fract_x
_atom_site_fract_y
_atom_site_fract_z
_atom_type_partial_charge
O1    O     O_R   0.337460 0.413110 0.524760 -0.550218
O2    O     O_R   0.662540 0.913110 0.475240 -0.550218
O3    O     O_R   0.348690 0.587910 0.191230 -0.538842
O4    O     O_R   0.651310 0.087910 0.808770 -0.538842
O5    O     O_R   0.166530 0.586890 0.082470 -0.542118
O6    O     O_R   0.833470 0.086890 0.917530 -0.542118
C1    C     C_R   0.371058 0.615766 0.353479 0.762805
C2    C     C_R   0.628942 0.115766 0.646521 0.762807
O7    O     O_R   0.348700 0.413830 0.191250 -0.538929
O8    O     O_R   0.651300 0.913830 0.808750 -0.538929
O9    O     O_R   0.166530 0.411570 0.082490 -0.541969
O10   O     O_R   0.833470 0.911570 0.917510 -0.541970
C3    C     C_R   0.371143 0.385704 0.353146 0.673885
C4    C     C_R   0.628857 0.885704 0.646853 0.673889
O11   O     O_R   0.337460 0.588430 0.524740 -0.540334
O12   O     O_R   0.662540 0.088430 0.475260 -0.540335
O13   O     O_3   0.192230 0.499460 0.407330 -0.375787
O14   O     O_3   0.807770 0.999460 0.592670 -0.375787
V1    V     V_3+5 0.263080 0.500100 0.108540 1.389447
V2    V     V_3+5 0.736920 0.000100 0.891460 1.389445
O15   O     O_R   0.155290 0.412090 0.756570 -0.542382
O16   O     O_R   0.844710 0.912090 0.243430 -0.542380
C5    C     C_R   0.131251 0.384298 0.932108 0.645043
C6    C     C_R   0.868749 0.884298 0.067892 0.645043
O17   O     O_R   0.155290 0.586170 0.756550 -0.542910
O18   O     O_R   0.844710 0.086170 0.243450 -0.542910
C7    C     C_R   0.134906 0.616303 0.931341 0.680049
C8    C     C_R   0.865094 0.116303 0.068659 0.680049
V3    V     V_3+5 0.240910 0.499900 0.616030 1.376466
V4    V     V_3+5 0.759090 0.999900 0.383970 1.376467
O19   O     O_3   0.311760 0.500540 0.867100 -0.367359
O20   O     O_3   0.688240 0.000540 0.132900 -0.367360
C9    C     C_3   0.096032 0.750088 0.112527 -0.317301
C10   C     C_3   0.903968 0.250087 0.887472 -0.317299
H1    H     H_    0.112646 0.715539 0.240252 0.156013
H2    H     H_    0.887356 0.215538 0.759747 0.156014
H3    H     H_    0.162689 0.780998 0.048857 0.110081
H4    H     H_    0.837311 0.280997 0.951141 0.110081
C11   C     C_3   0.018848 0.817481 0.171020 0.057048
C12   C     C_3   0.981151 0.317481 0.828980 0.057049
H5    H     H_    0.052698 0.879818 0.156114 0.126670
H6    H     H_    0.947301 0.379818 0.843888 0.126672
H7    H     H_    0.967751 0.627592 0.190394 0.168482
H8    H     H_    0.032249 0.127591 0.809609 0.168484
C13   C     C_3   0.966373 0.654707 0.045146 -0.324209
C14   C     C_3   0.033627 0.154706 0.954856 -0.324209
C15   C     C_3   0.059629 0.738755 0.780829 -0.357006
C16   C     C_3   0.940370 0.238755 0.219171 -0.357006
C17   C     C_3   0.065606 0.688127 0.965584 0.022264
C18   C     C_3   0.934394 0.188127 0.034416 0.022263
H9    H     H_    0.029375 0.698160 0.677896 0.138465
H10   H     H_    0.970624 0.198160 0.322104 0.138466
H11   H     H_    0.131317 0.756495 0.710214 0.154622
H12   H     H_    0.868683 0.256495 0.289785 0.154622
C19   C     C_3   0.941044 0.812996 0.037464 0.043236
C20   C     C_3   0.058956 0.312996 0.962535 0.043231
C21   C     C_3   0.890985 0.725028 0.055689 0.148047
C22   C     C_3   0.109015 0.225028 0.944310 0.148047
C23   C     C_3   0.996196 0.817648 0.828236 -0.038113
C24   C     C_3   0.003804 0.317648 0.171764 -0.038111
H13   H     H_    0.941600 0.816219 0.735375 0.152233
H14   H     H_    0.058400 0.316219 0.264625 0.152233
H15   H     H_    0.947315 0.603591 0.951554 0.100182
H16   H     H_    0.052685 0.103592 0.048451 0.100181
H17   H     H_    0.853760 0.717990 0.928933 0.087236
H18   H     H_    0.146241 0.217991 0.071065 0.087240
H19   H     H_    0.570844 0.802670 0.357656 0.122217
H20   H     H_    0.429154 0.302669 0.642343 0.122217
H21   H     H_    0.431425 0.693986 0.644309 0.196879
H22   H     H_    0.568570 0.193982 0.355690 0.196878
C25   C     C_2   0.441642 0.682583 0.343515 -0.380989
C26   C     C_2   0.558357 0.182583 0.656485 -0.380987
C27   C     C_2   0.464899 0.716277 0.504666 -0.118074
C28   C     C_2   0.535099 0.216275 0.495333 -0.118078
C29   C     C_2   0.556363 0.819685 0.659911 0.123053
C30   C     C_2   0.443637 0.319686 0.340089 0.123051
C31   C     C_2   0.535103 0.783402 0.498289 -0.158169
C32   C     C_2   0.464896 0.283401 0.501710 -0.158164
H23   H     H_    0.474994 0.704196 0.203415 0.152789
H24   H     H_    0.525007 0.204198 0.796584 0.152790
N1    N     N_2   0.509009 0.795101 0.844746 -0.521274
H25   H     H_    0.551640 0.794281 0.949609 0.255854
C33   C     C_3   0.422427 0.839639 0.906482 -0.569421
H26   H     H_    0.387272 0.813897 0.045641 0.192858
H27   H     H_    0.373965 0.832752 0.799164 0.201731
H28   H     H_    0.436996 0.906783 0.926137 0.192896
N2    N     N_2   0.490993 0.295103 0.155253 -0.521277
H29   H     H_    0.448363 0.294285 0.050389 0.255857
C34   C     C_3   0.577575 0.339639 0.093523 -0.569424
H30   H     H_    0.612721 0.313913 0.954340 0.192854
H31   H     H_    0.626042 0.332733 0.200822 0.201736
H32   H     H_    0.563010 0.406786 0.073917 0.192897
C35   C     C_3   0.983276 0.809075 0.383303 -0.815559
H33   H     H_    0.943856 0.750781 0.420525 0.247447
H34   H     H_    0.046387 0.807206 0.452716 0.199439
H35   H     H_    0.943066 0.864124 0.442396 0.240844
C36   C     C_3   0.016723 0.309076 0.616697 -0.815569
H36   H     H_    0.056143 0.250782 0.579474 0.247446
H37   H     H_    0.953612 0.307208 0.547284 0.199442
H38   H     H_    0.056934 0.364125 0.557604 0.240845
N3    N     N_2   0.820984 0.716099 0.228590 -0.516614
H39   H     H_    0.780460 0.768011 0.265526 0.263472
C37   C     C_3   0.762547 0.642411 0.236892 -0.595063
H40   H     H_    0.714464 0.640946 0.376415 0.205777
H41   H     H_    0.805690 0.584943 0.226740 0.208749
H42   H     H_    0.719732 0.643423 0.118467 0.190526
N4    N     N_2   0.179014 0.216098 0.771407 -0.516618
H43   H     H_    0.219533 0.268011 0.734458 0.263477
C38   C     C_3   0.237456 0.142414 0.763113 -0.595071
H44   H     H_    0.285531 0.140943 0.623580 0.205780
H45   H     H_    0.194318 0.084944 0.773296 0.208751
H46   H     H_    0.280281 0.143437 0.881522 0.190527
C39   C     C_3   0.053276 0.899686 0.786288 -0.808852
H47   H     H_    0.072055 0.911601 0.630275 0.210062
H48   H     H_    0.012880 0.954665 0.847946 0.200354
H49   H     H_    0.120059 0.897389 0.845787 0.204271
C40   C     C_3   0.946724 0.399687 0.213710 -0.808848
H50   H     H_    0.927949 0.411604 0.369724 0.210061
H51   H     H_    0.987118 0.454665 0.152045 0.200351
H52   H     H_    0.879939 0.397388 0.154219 0.204271

loop_
_geom_bond_atom_site_label_1
_geom_bond_atom_site_label_2
_ccdc_geom_bond_type
N2    H29   S    
N3    H39   S    
O11   V3    S    
C19   C23   S    
O13   V3    S    
H19   C31   S    
O4    C2    A    
V1    O19   S    
C25   H23   S    
C36   H36   S    
C5    C20   S    
C11   H5    S    
C6    C19   S    
C16   H12   S    
C13   C21   S    
C35   H33   S    
C10   C12   S    
N1    H25   S    
C30   C32   D    
O3    C1    A    
C40   H51   S    
C1    C25   S    
C9    C17   S    
C24   H14   S    
C22   N4    S    
C2    O12   A    
O7    C3    A    
C11   C35   S    
C36   H37   S    
O5    C7    A    
C8    C18   S    
C22   H18   S    
C11   C19   S    
O7    V1    S    
O8    V2    S    
C12   C20   S    
H22   C28   S    
N4    H43   S    
O3    V1    S    
O14   V4    S    
C34   H31   S    
C10   H2    S    
C15   H11   S    
C39   H49   S    
C16   C18   S    
N3    C37   S    
C14   C22   S    
O17   V3    S    
N4    C38   S    
N1    C33   S    
H8    C14   S    
C16   C24   S    
H20   C32   S    
O6    C8    A    
C2    C26   S    
C23   H13   S    
C15   C17   S    
O8    C4    A    
C40   H52   S    
C12   C36   S    
C25   C27   D    
C29   N1    S    
C15   H9    S    
C1    O11   A    
O15   V3    S    
C13   H15   S    
C9    H3    S    
C20   C24   S    
C14   H16   S    
H7    C13   S    
C33   H26   S    
C3    C30   S    
C13   C17   S    
C23   C39   S    
O9    V1    S    
O10   V2    S    
O1    V3    S    
C24   C40   S    
C37   H41   S    
C19   C21   S    
C9    C11   S    
C34   H32   S    
H21   C27   S    
C29   C31   D    
C30   N2    S    
C26   C28   D    
C33   H27   S    
O18   V4    S    
C35   H35   S    
O15   C5    A    
O16   C6    A    
C38   H46   S    
O1    C3    A    
O13   V1    S    
C36   H38   S    
C21   N3    S    
C39   H47   S    
V2    O20   S    
O10   C6    A    
O16   V4    S    
C10   H4    S    
C21   H17   S    
C12   H6    S    
C10   C18   S    
O5    V1    S    
O17   C7    A    
O6    V2    S    
C14   C18   S    
O18   C8    A    
O2    V4    S    
C4    C29   S    
C38   H45   S    
V3    O19   S    
C38   H44   S    
V4    O20   S    
C35   H34   S    
O9    C5    A    
C9    H1    S    
C20   C22   S    
C37   H42   S    
O14   V2    S    
O2    C4    A    
C15   C23   S    
O4    V2    S    
C16   H10   S    
C33   H28   S    
C26   H24   S    
C28   C32   S    
C37   H40   S    
N2    C34   S    
C27   C31   S    
C34   H30   S    
C40   H50   S    
O12   V4    S    
C7    C17   S    
C39   H48   S    
