data_mof_unit_48872.cif
_audit_creation_date              2012-12-10T17:31:57-0500
_audit_creation_method            fapswitch 2.2
_symmetry_space_group_name_H-M    P1
_symmetry_Int_Tables_number       1
_space_group_crystal_system       triclinic
_cell_length_a                    11.988219
_cell_length_b                    11.530599
_cell_length_c                    12.845424
_cell_angle_alpha                 89.966985
_cell_angle_beta                  93.736839
_cell_angle_gamma                 86.498906
_cell_volume                      1768.53964107

loop_
_atom_site_label
_atom_site_type_symbol
_atom_type_description
_atom_site_fract_x
_atom_site_fract_y
_atom_site_fract_z
_atom_type_partial_charge
C1    C     C_R   0.477406 0.504191 0.299571 0.874286
C2    C     C_R   0.977338 0.529413 0.543070 0.010872
C3    C     C_R   0.499665 0.281905 0.500041 0.900395
C4    C     C_R   0.500334 0.718095 0.499957 0.900408
C5    C     C_1   0.499168 0.161535 0.500139 -0.207502
C6    C     C_1   0.500831 0.838465 0.499857 -0.207482
C7    C     C_1   0.499578 0.059332 0.500082 -0.015767
C8    C     C_1   0.500420 0.940668 0.499913 -0.015754
C9    C     C_R   0.537106 0.488285 0.812050 -0.095962
C10   C     C_R   0.462891 0.511694 0.187949 -0.095963
C11   C     C_R   0.365880 0.580647 0.027453 -0.267496
C12   C     C_R   0.522593 0.495804 0.700428 0.874277
C13   C     C_R   0.634110 0.419316 0.972544 -0.267494
C14   C     C_R   0.369987 0.573338 0.135623 -0.012207
C15   C     C_R   0.629996 0.426615 0.864372 -0.012164
C16   C     C_R   0.548740 0.458997 0.133054 -0.288893
C17   C     C_R   0.451261 0.540990 0.866946 -0.288903
C18   C     C_R   0.546003 0.469436 0.026509 0.171564
C19   C     C_R   0.453995 0.530542 0.973490 0.171555
C20   C     C_R   0.719776 0.363869 0.808948 0.141458
C21   C     C_R   0.830184 0.398409 0.820674 -0.173096
C22   C     C_R   0.914545 0.340038 0.767142 -0.147952
C23   C     C_R   0.050430 0.584245 0.616380 -0.102569
C24   C     C_R   0.889251 0.247191 0.701651 -0.113093
C25   C     C_R   0.779762 0.211605 0.690446 -0.117733
C26   C     C_R   0.695295 0.269209 0.744311 -0.102110
C27   C     C_R   0.280174 0.636036 0.191041 0.141523
C28   C     C_R   0.304592 0.730747 0.255637 -0.102145
C29   C     C_R   0.220092 0.788309 0.309490 -0.117774
C30   C     C_R   0.110636 0.752628 0.298316 -0.113042
C31   C     C_R   0.085406 0.659723 0.232871 -0.148003
C32   C     C_R   0.169802 0.601390 0.179354 -0.173100
C33   C     C_R   0.010490 0.648853 0.707975 0.114861
C34   C     C_R   0.949577 0.415718 0.383639 -0.102588
C35   C     C_R   0.051381 0.615360 0.809293 -0.183397
C36   C     C_R   0.014572 0.676562 0.895800 -0.153177
C37   C     C_R   0.937966 0.772462 0.881850 -0.100441
C38   C     C_R   0.898537 0.807766 0.781293 -0.132213
C39   C     C_R   0.935034 0.746704 0.694544 -0.164587
C40   C     C_R   0.989539 0.350960 0.292129 0.114844
C41   C     C_R   0.065002 0.253131 0.305708 -0.164538
C42   C     C_R   0.101472 0.191868 0.219058 -0.132232
C43   C     C_R   0.062008 0.226945 0.118451 -0.100437
C44   C     C_R   0.985408 0.322833 0.104352 -0.153101
C45   C     C_R   0.165838 0.577321 0.602326 -0.026546
C46   C     C_R   0.948629 0.384240 0.190762 -0.183456
C47   C     C_R   0.834167 0.422656 0.397686 -0.026522
C48   C     C_R   0.139559 0.469653 0.446704 -0.037131
C49   C     C_R   0.860440 0.530348 0.553297 -0.037124
C50   C     C_R   0.022662 0.470580 0.456935 0.010838
H1    H     H_    0.380937 0.589451 0.826369 0.155046
H2    H     H_    0.999468 0.367003 0.775935 0.133893
H3    H     H_    0.954529 0.202723 0.659736 0.126233
H4    H     H_    0.760277 0.139477 0.639943 0.128432
H5    H     H_    0.610725 0.240912 0.735006 0.102697
H6    H     H_    0.389137 0.759116 0.264918 0.102722
H7    H     H_    0.239527 0.860479 0.359961 0.128394
H8    H     H_    0.045332 0.797064 0.340221 0.126244
H9    H     H_    0.000509 0.632677 0.224106 0.133909
H10   H     H_    0.149532 0.528693 0.129745 0.139747
H11   H     H_    0.111089 0.541460 0.821305 0.119880
H12   H     H_    0.619070 0.410546 0.173633 0.155039
H13   H     H_    0.045480 0.649687 0.973624 0.131706
H14   H     H_    0.909617 0.819762 0.948928 0.126158
H15   H     H_    0.839901 0.882650 0.770532 0.129548
H16   H     H_    0.904541 0.775510 0.617004 0.126672
H17   H     H_    0.095505 0.224488 0.383291 0.126688
H18   H     H_    0.160102 0.116995 0.229937 0.129531
H19   H     H_    0.090324 0.179475 0.051451 0.126152
H20   H     H_    0.954469 0.349523 0.026487 0.131717
H21   H     H_    0.888918 0.458121 0.178636 0.119845
H22   H     H_    0.295690 0.628064 0.985764 0.142485
H23   H     H_    0.704292 0.371887 0.014232 0.142428
H24   H     H_    0.822430 0.571916 0.618661 0.150095
H25   H     H_    0.177565 0.428093 0.381334 0.150101
H26   H     H_    0.777196 0.381859 0.342227 0.138092
H27   H     H_    0.222812 0.618088 0.657803 0.138096
H28   H     H_    0.850507 0.471054 0.870326 0.139801
N1    N     N_R   0.792200 0.479100 0.480660 -0.104066
N2    N     N_R   0.207800 0.520900 0.519340 -0.104059
O1    O     O_R   0.578300 0.494420 0.341180 -0.631084
O2    O     O_R   0.421700 0.505580 0.658820 -0.631094
O3    O     O_R   0.390690 0.507830 0.353590 -0.611287
O4    O     O_R   0.609310 0.492170 0.646410 -0.611281
O5    O     O_R   0.593810 0.327740 0.493800 -0.610148
O6    O     O_R   0.406190 0.672260 0.506200 -0.610141
O7    O     O_R   0.406190 0.341150 0.506220 -0.612696
O8    O     O_R   0.593810 0.658850 0.493780 -0.612695
Zn1   Zn    Zn3+2 0.625270 0.491050 0.491710 0.947009
Zn2   Zn    Zn3+2 0.374730 0.508950 0.508290 0.947004

loop_
_geom_bond_atom_site_label_1
_geom_bond_atom_site_label_2
_ccdc_geom_bond_type
C23   C45   A    
C3    O5    A    
C41   C42   A    
C35   C36   A    
C47   N1    A    
C26   H5    S    
C17   H1    S    
C28   H6    S    
C7    C8    S    
C41   H17   S    
C40   C46   A    
C11   C19   A    
C29   C30   A    
C13   C18   A    
C34   C40   S    
C36   C37   A    
C47   H26   S    
C30   C31   A    
C11   C14   A    
C4    O6    A    
C1    O1    A    
C12   O4    A    
C18   C19   A    
C31   H9    S    
C2    C50   A    
C17   C19   A    
C23   C33   S    
C21   H28   S    
C44   H20   S    
C14   C27   S    
C36   H13   S    
O1    Zn1   S    
O8    Zn1   S    
C48   C50   A    
C43   H19   S    
C21   C22   A    
C42   H18   S    
C48   H25   S    
C16   H12   S    
C44   C46   A    
C15   C20   S    
C34   C50   A    
C3    O7    A    
C25   H4    S    
C24   H3    S    
C4    C6    S    
C10   C14   A    
C5    C7    T    
O5    Zn1   S    
C11   H22   S    
C6    C8    T    
C25   C26   A    
C49   N1    A    
C43   C44   A    
C37   C38   A    
C2    C49   A    
C31   C32   A    
C38   H15   S    
C12   O2    A    
C35   H11   S    
C33   C39   A    
C24   C25   A    
C46   H21   S    
C9    C17   A    
C40   C41   A    
C29   H7    S    
C13   C15   A    
O6    Zn2   S    
C39   H16   S    
C22   C24   A    
O4    Zn1   S    
C32   H10   S    
C2    C23   A    
C37   H14   S    
C22   H2    S    
O3    Zn2   S    
C28   C29   A    
C27   C32   A    
C1    C10   S    
C13   H23   S    
C3    C5    S    
C4    O8    A    
C1    O3    A    
O2    Zn2   S    
C48   N2    A    
C9    C15   A    
C10   C16   A    
C38   C39   A    
C20   C26   A    
C30   H8    S    
C33   C35   A    
C45   N2    A    
N2    Zn2   S    
C9    C12   S    
N1    Zn1   S    
C20   C21   A    
C16   C18   A    
C42   C43   A    
O7    Zn2   S    
C27   C28   A    
C49   H24   S    
C45   H27   S    
C34   C47   A    
