data_mof_unit_51189.cif
_audit_creation_date              2012-12-10T18:33:11-0500
_audit_creation_method            fapswitch 2.2
_symmetry_space_group_name_H-M    P1
_symmetry_Int_Tables_number       1
_space_group_crystal_system       triclinic
_cell_length_a                    18.316183
_cell_length_b                    18.227042
_cell_length_c                    59.879448
_cell_angle_alpha                 89.99501
_cell_angle_beta                  90.015862
_cell_angle_gamma                 89.990741
_cell_volume                      19990.7428407

loop_
_atom_site_label
_atom_site_type_symbol
_atom_type_description
_atom_site_fract_x
_atom_site_fract_y
_atom_site_fract_z
_atom_type_partial_charge
C1    C     C_R   0.499980 0.000001 0.689425 0.851879
C2    C     C_R   0.997685 0.499744 0.117978 0.261851
C3    C     C_R   0.127865 0.470839 0.976190 -0.291318
C4    C     C_R   0.525543 0.873065 0.976104 -0.287466
C5    C     C_R   0.130593 0.500450 0.024108 -0.291642
C6    C     C_R   0.480443 0.135562 0.975589 -0.286940
C7    C     C_R   0.865593 0.497837 0.023944 -0.292639
C8    C     C_R   0.640873 0.141501 0.750067 1.005498
C9    C     C_R   0.140353 0.357857 0.250341 1.020850
C10   C     C_R   0.359121 0.858508 0.750061 1.002865
C11   C     C_R   0.859115 0.641719 0.250239 1.032988
C12   C     C_R   0.359654 0.141928 0.249718 0.940081
C13   C     C_R   0.501868 0.002948 0.117895 0.262377
C14   C     C_R   0.859724 0.357876 0.749674 0.996235
C15   C     C_R   0.642027 0.859842 0.250443 0.937822
C16   C     C_R   0.140280 0.642112 0.749680 0.991178
C17   C     C_R   0.140824 0.641721 0.250114 0.917122
C18   C     C_R   0.640187 0.857780 0.750385 1.038157
C19   C     C_R   0.857794 0.359789 0.249444 1.026575
C20   C     C_R   0.359820 0.142221 0.750383 1.038055
C21   C     C_R   0.859345 0.641701 0.749846 0.939425
C22   C     C_R   0.359555 0.858176 0.249836 0.988026
C23   C     C_R   0.140651 0.358298 0.749848 0.941289
C24   C     C_R   0.999154 0.499795 0.882140 0.260026
C25   C     C_R   0.640237 0.142073 0.249673 0.990166
C26   C     C_3   0.674873 0.732840 0.736101 -0.337820
C27   C     C_3   0.732159 0.327317 0.262367 -0.377505
C28   C     C_3   0.325098 0.267161 0.736095 -0.337484
C29   C     C_3   0.257741 0.682854 0.267862 -0.359411
C30   C     C_3   0.323173 0.735008 0.265408 -0.343121
C31   C     C_3   0.260112 0.319559 0.733300 -0.367865
C32   C     C_3   0.668928 0.272724 0.259872 -0.318445
C33   C     C_3   0.739849 0.680439 0.733304 -0.366546
C34   C     C_3   0.175753 0.233569 0.235641 -0.342552
C35   C     C_R   0.999984 0.500249 0.381966 0.261680
C36   C     C_3   0.238826 0.820637 0.766243 -0.354934
C37   C     C_3   0.823098 0.764953 0.235664 -0.343647
C38   C     C_3   0.761130 0.179429 0.766281 -0.353200
C39   C     C_3   0.825993 0.231991 0.763489 -0.340105
C40   C     C_3   0.769306 0.828747 0.238304 -0.364056
C41   C     C_3   0.173981 0.768048 0.763457 -0.342076
C42   C     C_3   0.240703 0.181060 0.232878 -0.365266
C43   C     C_3   0.770145 0.833178 0.740188 0.156770
C44   C     C_3   0.830426 0.228385 0.259614 0.105303
C45   C     C_3   0.229836 0.166821 0.740193 0.157293
C46   C     C_R   0.499837 0.999898 0.617959 0.261018
C47   C     C_3   0.166119 0.778241 0.253742 0.126418
C48   C     C_3   0.229038 0.834367 0.258680 0.152673
C49   C     C_3   0.165891 0.222913 0.744455 0.137753
C50   C     C_3   0.765738 0.172342 0.262839 0.177924
C51   C     C_3   0.834096 0.777087 0.744453 0.133977
C52   C     C_3   0.270848 0.333561 0.240226 0.171004
C53   C     C_3   0.333630 0.723444 0.755956 0.182079
C54   C     C_3   0.725695 0.667273 0.242279 0.155657
C55   C     C_3   0.666364 0.276582 0.755905 0.181672
C56   C     C_3   0.730414 0.332361 0.760298 0.147691
C57   C     C_R   0.001301 0.501476 0.617892 0.261999
C58   C     C_3   0.668975 0.731441 0.239017 0.187940
C59   C     C_3   0.269575 0.667667 0.760346 0.148637
C60   C     C_3   0.334747 0.277400 0.244588 0.130359
C61   C     C_3   0.713880 0.772079 0.775070 0.141010
C62   C     C_3   0.777537 0.283213 0.224124 0.172124
C63   C     C_3   0.286185 0.227918 0.775068 0.141095
C64   C     C_3   0.237799 0.700074 0.226163 0.120247
C65   C     C_3   0.290968 0.768555 0.225381 0.157648
C66   C     C_3   0.232582 0.295996 0.774381 0.128419
C67   C     C_3   0.719362 0.218801 0.224311 0.088054
C68   C     C_R   0.501393 0.999893 0.382123 0.259631
C69   C     C_3   0.767476 0.703997 0.774382 0.128754
C70   C     C_3   0.214131 0.271530 0.274881 0.088687
C71   C     C_3   0.268262 0.794779 0.725401 0.099530
C72   C     C_3   0.788266 0.727342 0.275482 0.107908
C73   C     C_3   0.731801 0.205074 0.725415 0.096477
C74   C     C_3   0.785524 0.273053 0.724865 0.166243
C75   C     C_3   0.722478 0.783897 0.275647 0.108883
C76   C     C_3   0.214531 0.726811 0.724870 0.110180
C77   C     C_3   0.266729 0.202805 0.274045 0.143481
C78   C     C_3   0.697732 0.800030 0.750441 -0.250363
C79   C     C_R   0.501929 0.003632 0.952467 -0.135412
C80   C     C_3   0.800514 0.301620 0.248994 -0.236083
C81   C     C_3   0.302276 0.199973 0.750438 -0.250696
C82   C     C_3   0.199008 0.699063 0.249662 -0.194670
C83   C     C_3   0.302600 0.800092 0.249820 -0.232200
C84   C     C_3   0.198430 0.300845 0.750306 -0.203947
C85   C     C_3   0.696997 0.200428 0.249242 -0.218525
C86   C     C_3   0.801568 0.699151 0.750304 -0.204092
C87   C     C_3   0.198228 0.300241 0.250295 -0.232569
C88   C     C_3   0.301316 0.801028 0.749594 -0.203059
C89   C     C_3   0.800948 0.699206 0.250758 -0.223793
C90   C     C_R   0.997956 0.499172 0.047459 -0.139084
C91   C     C_3   0.698686 0.198963 0.749598 -0.212851
C92   C     C_3   0.802419 0.299903 0.749575 -0.242652
C93   C     C_3   0.699688 0.802651 0.250804 -0.218668
C94   C     C_3   0.197590 0.700079 0.749583 -0.216548
C95   C     C_3   0.301909 0.199255 0.250106 -0.202631
C96   C     C_R   0.507201 0.937567 0.917182 0.536857
C97   C     C_R   0.932672 0.499997 0.082830 0.532935
C98   C     C_R   0.493735 0.067652 0.916892 0.536595
C99   C     C_R   0.062859 0.498585 0.082900 0.533540
C100  C     C_R   0.527357 0.943282 0.082736 0.533055
C101  C     C_R   0.506452 0.005639 0.047367 -0.137634
C102  C     C_R   0.062793 0.487311 0.917317 0.534239
C103  C     C_R   0.480296 0.065254 0.082854 0.537755
C104  C     C_R   0.934921 0.511977 0.917224 0.534287
C105  C     C_R   0.006840 0.435964 0.417168 0.537610
C106  C     C_R   0.434954 0.999329 0.582801 0.532963
C107  C     C_R   0.993361 0.566050 0.416901 0.536134
C108  C     C_R   0.565147 0.000137 0.582892 0.533428
C109  C     C_R   0.026620 0.441654 0.582741 0.533340
C110  C     C_R   0.565323 0.988470 0.417296 0.535164
C111  C     C_R   0.979187 0.563482 0.582841 0.537556
C112  C     C_R   0.000004 0.499978 0.310537 0.860081
C113  C     C_R   0.998572 0.499394 0.952673 -0.139337
C114  C     C_R   0.437057 0.010973 0.417211 0.533664
C115  C     C_R   0.437096 0.979519 0.870274 0.223003
C116  C     C_R   0.975514 0.436725 0.129839 0.223953
C117  C     C_R   0.563064 0.023260 0.870161 0.222042
C118  C     C_R   0.020290 0.562960 0.129669 0.228360
C119  C     C_R   0.434902 0.999368 0.129459 0.224697
C120  C     C_R   0.010212 0.433738 0.870353 0.224666
C121  C     C_R   0.568053 0.005530 0.129875 0.219860
C122  C     C_R   0.988402 0.565935 0.870363 0.224726
C123  C     C_R   0.937012 0.478267 0.370223 0.226473
C124  C     C_R   0.001278 0.501938 0.452464 -0.134666
C125  C     C_R   0.478576 0.936420 0.629748 0.227267
C126  C     C_R   0.063023 0.521889 0.370208 0.229420
C127  C     C_R   0.521071 0.063443 0.629721 0.226783
C128  C     C_R   0.934462 0.497781 0.629515 0.221996
C129  C     C_R   0.513443 0.934047 0.370313 0.220247
C130  C     C_R   0.067586 0.504552 0.629811 0.221683
C131  C     C_R   0.489186 0.065820 0.370366 0.226725
C132  C     C_R   0.437639 0.978776 0.846905 -0.261273
C133  C     C_R   0.976078 0.437456 0.153207 -0.262495
C134  C     C_R   0.562482 0.022753 0.846796 -0.261092
C135  C     C_R   0.500290 0.999614 0.547441 -0.138826
C136  C     C_R   0.021087 0.562442 0.153037 -0.264221
C137  C     C_R   0.434682 0.999202 0.152841 -0.253618
C138  C     C_R   0.011000 0.434456 0.846985 -0.243693
C139  C     C_R   0.566872 0.003610 0.153215 -0.247515
C140  C     C_R   0.988232 0.565379 0.846992 -0.243798
C141  C     C_R   0.937595 0.477981 0.346854 -0.249564
C142  C     C_R   0.478470 0.937088 0.653117 -0.259267
C143  C     C_R   0.062490 0.521823 0.346843 -0.268463
C144  C     C_R   0.521240 0.062864 0.653091 -0.258632
C145  C     C_R   0.934444 0.498109 0.652894 -0.251283
C146  C     C_R   0.005391 0.503849 0.547363 -0.137466
C147  C     C_R   0.513531 0.934739 0.346944 -0.221905
C148  C     C_R   0.066615 0.503114 0.653159 -0.249737
C149  C     C_R   0.488334 0.065216 0.346999 -0.251857
C150  C     C_3   0.675110 0.988001 0.888270 -0.755877
C151  C     C_3   0.984974 0.673629 0.110450 -0.765957
C152  C     C_3   0.325282 0.015749 0.888323 -0.754341
C153  C     C_3   0.009647 0.325491 0.110739 -0.756578
C154  C     C_3   0.657265 0.082374 0.111815 -0.755050
C155  C     C_3   0.042436 0.668380 0.889732 -0.757626
C156  C     C_3   0.346965 0.924673 0.109999 -0.744100
C157  C     C_R   0.500940 0.999613 0.452655 -0.139023
C158  C     C_3   0.955675 0.331181 0.889530 -0.757774
C159  C     C_3   0.174927 0.486142 0.388309 -0.762401
C160  C     C_3   0.484301 0.173671 0.610525 -0.762430
C161  C     C_3   0.825070 0.514162 0.388261 -0.761408
C162  C     C_3   0.515291 0.826006 0.610655 -0.759155
C163  C     C_3   0.156380 0.581289 0.611506 -0.761957
C164  C     C_3   0.541974 0.169125 0.389627 -0.754200
C165  C     C_3   0.846751 0.422116 0.610322 -0.742559
C166  C     C_3   0.461448 0.830394 0.389607 -0.761379
C167  C     C_3   0.610704 0.786839 0.937383 -0.689290
C168  C     C_R   0.511293 0.936726 0.940719 -0.058828
C169  C     C_3   0.777511 0.409210 0.062581 -0.673210
C170  C     C_3   0.390442 0.218234 0.937010 -0.689135
C171  C     C_3   0.218203 0.589190 0.062814 -0.671654
C172  C     C_3   0.668242 0.830739 0.062620 -0.681681
C173  C     C_3   0.196679 0.366553 0.937541 -0.682613
C174  C     C_3   0.495664 0.247994 0.062445 -0.672066
C175  C     C_3   0.800602 0.632344 0.937397 -0.682600
C176  C     C_3   0.110219 0.285215 0.437404 -0.685513
C177  C     C_3   0.281306 0.906020 0.562530 -0.674135
C178  C     C_3   0.889926 0.716631 0.436978 -0.685333
C179  C     C_R   0.930962 0.497619 0.059282 -0.058301
C180  C     C_3   0.719037 0.093264 0.562801 -0.669924
C181  C     C_3   0.167491 0.329099 0.562568 -0.679578
C182  C     C_3   0.701029 0.869898 0.437538 -0.677983
C183  C     C_3   0.993749 0.746263 0.562393 -0.671712
C184  C     C_3   0.301033 0.129395 0.437316 -0.681638
C185  C     C_R   0.491361 0.069793 0.940443 -0.058275
C186  C     C_R   0.064819 0.500767 0.059358 -0.058447
C187  C     C_R   0.531034 0.942985 0.059207 -0.058005
C188  C     C_R   0.500080 0.999997 0.310594 0.934759
C189  C     C_R   0.063910 0.484363 0.940856 -0.059338
C190  C     C_R   0.482272 0.068260 0.059294 -0.061052
C191  C     C_R   0.933421 0.514580 0.940768 -0.059440
C192  C     C_R   0.010753 0.435064 0.440707 -0.059754
C193  C     C_R   0.433315 0.996954 0.559255 -0.058796
C194  C     C_R   0.990791 0.568129 0.440449 -0.058395
C195  C     C_R   0.567103 0.002339 0.559348 -0.058490
C196  C     C_R   0.030141 0.441272 0.559208 -0.058138
C197  C     C_R   0.566502 0.985603 0.440839 -0.060392
C198  C     C_R   0.981059 0.566428 0.559281 -0.061100
C199  C     C_R   0.000022 0.500029 0.689433 0.886792
C200  C     C_R   0.435545 0.013685 0.440750 -0.059090
C201  C     C_R   0.523296 0.871264 0.952847 0.241385
C202  C     C_R   0.864660 0.494070 0.047211 0.241563
C203  C     C_R   0.480143 0.135888 0.952308 0.241315
C204  C     C_R   0.131261 0.504251 0.047370 0.242157
C205  C     C_R   0.558272 0.882142 0.047171 0.243287
C206  C     C_R   0.128095 0.467219 0.952923 0.244524
C207  C     C_R   0.459888 0.131203 0.047309 0.239165
C208  C     C_R   0.869039 0.531515 0.952755 0.244470
C209  C     C_R   0.022688 0.369577 0.452831 0.240666
C210  C     C_R   0.999869 0.499997 0.189428 0.855537
C211  C     C_R   0.367092 0.992305 0.547178 0.241535
C212  C     C_R   0.979462 0.634193 0.452321 0.240637
C213  C     C_R   0.633491 0.006896 0.547363 0.241742
C214  C     C_R   0.057413 0.380437 0.547174 0.242728
C215  C     C_R   0.630957 0.969539 0.452910 0.243839
C216  C     C_R   0.958452 0.629278 0.547290 0.239044
C217  C     C_R   0.370915 0.029668 0.452732 0.244449
C218  C     C_R   0.500052 0.000459 0.835076 -0.079827
C219  C     C_R   0.999066 0.499955 0.164891 -0.065930
C220  C     C_R   0.500442 0.000857 0.164840 -0.059460
C221  C     C_R   0.500010 0.000036 0.810538 0.852768
C222  C     C_R   0.999772 0.499956 0.835185 -0.061514
C223  C     C_R   0.000029 0.499906 0.335074 -0.057870
C224  C     C_R   0.499897 0.999989 0.664879 -0.046482
C225  C     C_R   0.000294 0.500360 0.664839 -0.055723
C226  C     C_R   0.500614 0.999978 0.335173 -0.061031
C227  C     C_R   0.024933 0.439520 0.511779 0.039758
C228  C     C_R   0.434385 0.008640 0.488180 0.039402
C229  C     C_R   0.984065 0.567671 0.511728 0.039250
C230  C     C_R   0.566998 0.990449 0.488273 0.039559
C231  C     C_R   0.017722 0.437309 0.488155 0.039286
C232  C     C_R   0.999975 0.499994 0.810598 0.926759
C233  C     C_R   0.567403 0.997043 0.511915 0.039333
C234  C     C_R   0.988411 0.568631 0.487987 0.039132
C235  C     C_R   0.433660 0.002041 0.511821 0.039390
C236  C     C_R   0.525871 0.941296 0.011781 0.039764
C237  C     C_R   0.932160 0.509370 0.988201 0.039452
C238  C     C_R   0.485206 0.069517 0.011734 0.039295
C239  C     C_R   0.064464 0.489032 0.988288 0.039457
C240  C     C_R   0.518571 0.939068 0.988160 0.039234
C241  C     C_R   0.064986 0.495560 0.011929 0.039438
C242  C     C_R   0.489383 0.070422 0.987987 0.039096
C243  C     C_R   0.500039 0.000109 0.189433 0.918048
C244  C     C_R   0.931340 0.502743 0.011844 0.039392
C245  C     C_R   0.004882 0.503742 0.523581 0.070038
C246  C     C_R   0.500774 0.999562 0.476405 0.071118
C247  C     C_R   0.002403 0.502626 0.476243 0.069210
C248  C     C_R   0.500451 0.999561 0.523690 0.070754
C249  C     C_R   0.505936 0.005552 0.023585 0.069986
C250  C     C_R   0.998395 0.499259 0.976423 0.071003
C251  C     C_R   0.503232 0.004377 0.976247 0.069032
C252  C     C_R   0.998092 0.499149 0.023708 0.070715
C253  C     C_R   0.053591 0.379902 0.523929 -0.291398
C254  C     C_R   0.500091 0.001721 0.881968 0.264207
C255  C     C_R   0.370864 0.025852 0.475998 -0.291836
C256  C     C_R   0.959049 0.628670 0.524008 -0.286311
C257  C     C_R   0.630682 0.973255 0.476178 -0.290710
C258  C     C_R   0.024799 0.371333 0.476092 -0.287060
C259  C     C_R   0.632910 0.003026 0.524099 -0.291395
C260  C     C_R   0.979553 0.633802 0.475600 -0.286761
C261  C     C_R   0.367989 0.996066 0.523913 -0.292481
C262  C     C_R   0.554489 0.881647 0.023926 -0.291685
C263  C     C_R   0.868917 0.527609 0.976021 -0.291909
C264  C     C_R   0.460437 0.130603 0.024026 -0.286401
H1    H     H_    0.655431 0.749529 0.719264 0.238138
H2    H     H_    0.259706 0.817758 0.783599 0.266245
H3    H     H_    0.079672 0.683981 0.291102 0.346150
H4    H     H_    0.217867 0.826292 0.320992 0.400000
H5    H     H_    0.078213 0.321310 0.704766 0.357048
H6    H     H_    0.711394 0.201869 0.322291 0.391402
H7    H     H_    0.921620 0.678662 0.704789 0.358983
H8    H     H_    0.273909 0.322332 0.177988 0.397320
H9    H     H_    0.429346 0.767491 0.808797 0.386279
H10   H     H_    0.769326 0.591212 0.186193 0.380509
H11   H     H_    0.570483 0.232756 0.808716 0.386416
H12   H     H_    0.730089 0.316793 0.822452 0.392465
H13   H     H_    0.824188 0.747126 0.217928 0.261091
H14   H     H_    0.683928 0.775571 0.178298 0.386035
H15   H     H_    0.269576 0.683481 0.822491 0.392630
H16   H     H_    0.422613 0.178997 0.205480 0.356474
H17   H     H_    0.550999 0.832550 0.807443 0.364916
H18   H     H_    0.824324 0.450361 0.192517 0.372878
H19   H     H_    0.449035 0.167355 0.807461 0.364882
H20   H     H_    0.176131 0.552956 0.209761 0.342541
H21   H     H_    0.396301 0.728007 0.174243 0.402227
H22   H     H_    0.217126 0.481889 0.769995 0.369414
H23   H     H_    0.692429 0.166141 0.177620 0.332412
H24   H     H_    0.740209 0.182408 0.783628 0.266521
H25   H     H_    0.782980 0.518157 0.769990 0.369319
H26   H     H_    0.119781 0.370879 0.307320 0.358214
H27   H     H_    0.335409 0.935335 0.704675 0.343093
H28   H     H_    0.917099 0.650532 0.300875 0.345633
H29   H     H_    0.664698 0.064390 0.704768 0.344074
H30   H     H_    0.874136 0.250212 0.670138 0.394943
H31   H     H_    0.673111 0.959466 0.283322 0.352476
H32   H     H_    0.195240 0.697909 0.676519 0.331291
H33   H     H_    0.272445 0.017698 0.266118 0.370926
H34   H     H_    0.654142 0.088638 0.873800 0.243214
H35   H     H_    0.846176 0.247757 0.780325 0.241336
H36   H     H_    0.721433 0.010774 0.898017 0.237696
H37   H     H_    0.697043 0.959956 0.873212 0.250255
H38   H     H_    0.646266 0.947509 0.898906 0.256216
H39   H     H_    0.083922 0.655745 0.126101 0.241509
H40   H     H_    0.007892 0.720162 0.100754 0.236856
H41   H     H_    0.954565 0.695815 0.125025 0.248900
H42   H     H_    0.946832 0.643145 0.099455 0.262192
H43   H     H_    0.345883 0.914510 0.874204 0.242923
H44   H     H_    0.278939 0.993453 0.898156 0.237476
H45   H     H_    0.303357 0.043332 0.873180 0.250356
H46   H     H_    0.756501 0.851508 0.221566 0.247098
H47   H     H_    0.354289 0.056522 0.898820 0.256610
H48   H     H_    0.911310 0.344230 0.126632 0.245660
H49   H     H_    0.986183 0.278884 0.101198 0.236108
H50   H     H_    0.040385 0.303440 0.125275 0.249357
H51   H     H_    0.047607 0.355543 0.099582 0.262091
H52   H     H_    0.677744 0.981921 0.126517 0.234858
H53   H     H_    0.709070 0.079828 0.102222 0.234377
H54   H     H_    0.665772 0.117301 0.126813 0.258583
H55   H     H_    0.615009 0.107617 0.100985 0.256352
H56   H     H_    0.942549 0.668897 0.873692 0.242491
H57   H     H_    0.153778 0.752350 0.780294 0.240589
H58   H     H_    0.027953 0.718407 0.899338 0.236158
H59   H     H_    0.076986 0.684501 0.875282 0.250528
H60   H     H_    0.073920 0.631465 0.900878 0.261755
H61   H     H_    0.325361 0.023121 0.125753 0.240893
H62   H     H_    0.295531 0.928300 0.100243 0.236750
H63   H     H_    0.338010 0.887733 0.124516 0.251654
H64   H     H_    0.389737 0.901084 0.099029 0.260867
H65   H     H_    0.055956 0.330739 0.873737 0.242356
H66   H     H_    0.969908 0.281091 0.899146 0.236151
H67   H     H_    0.921480 0.315158 0.874987 0.250578
H68   H     H_    0.262872 0.185126 0.215697 0.259228
H69   H     H_    0.923925 0.368036 0.900616 0.261811
H70   H     H_    0.154218 0.587034 0.373969 0.245206
H71   H     H_    0.221258 0.508675 0.398104 0.238741
H72   H     H_    0.196860 0.458272 0.373221 0.246280
H73   H     H_    0.145958 0.445554 0.398880 0.257692
H74   H     H_    0.583265 0.157257 0.626312 0.242728
H75   H     H_    0.506627 0.220643 0.600896 0.236364
H76   H     H_    0.453316 0.195253 0.625071 0.249195
H77   H     H_    0.446823 0.142664 0.599453 0.261978
H78   H     H_    0.845855 0.413119 0.374040 0.249166
H79   H     H_    0.077238 0.332934 0.515710 0.140938
H80   H     H_    0.778712 0.491699 0.398053 0.239730
H81   H     H_    0.803177 0.541886 0.373138 0.246790
H82   H     H_    0.853982 0.554853 0.398813 0.257554
H83   H     H_    0.416270 0.842678 0.626364 0.240455
H84   H     H_    0.492950 0.779002 0.601042 0.235812
H85   H     H_    0.546159 0.804477 0.625238 0.249466
H86   H     H_    0.552880 0.856881 0.599588 0.263031
H87   H     H_    0.177329 0.481255 0.626411 0.236417
H88   H     H_    0.208116 0.578688 0.601880 0.234654
H89   H     H_    0.164890 0.616606 0.626418 0.253571
H90   H     H_    0.320617 0.040668 0.484250 0.140863
H91   H     H_    0.113960 0.606131 0.600653 0.256775
H92   H     H_    0.441748 0.168031 0.373787 0.241433
H93   H     H_    0.526900 0.218914 0.399263 0.235577
H94   H     H_    0.575959 0.185797 0.375110 0.249658
H95   H     H_    0.574275 0.132718 0.400710 0.262672
H96   H     H_    0.824778 0.520885 0.625839 0.241655
H97   H     H_    0.795220 0.425198 0.600597 0.237188
H98   H     H_    0.838107 0.385540 0.624943 0.251749
H99   H     H_    0.889560 0.398443 0.599381 0.260871
H100  H     H_    0.561342 0.832015 0.373594 0.248283
H101  H     H_    0.938067 0.677201 0.515999 0.139867
H102  H     H_    0.476922 0.780607 0.399189 0.237128
H103  H     H_    0.427249 0.813670 0.375138 0.249987
H104  H     H_    0.429212 0.866587 0.400764 0.262165
H105  H     H_    0.508804 0.759363 0.949622 0.219523
H106  H     H_    0.614746 0.735222 0.927616 0.246606
H107  H     H_    0.641360 0.779936 0.953272 0.202219
H108  H     H_    0.635842 0.831739 0.927461 0.250635
H109  H     H_    0.753878 0.513012 0.050658 0.215107
H110  H     H_    0.726007 0.406932 0.072330 0.244701
H111  H     H_    0.821166 0.382023 0.072472 0.259421
H112  H     H_    0.746383 0.332600 0.280323 0.239075
H113  H     H_    0.680812 0.958401 0.484500 0.141003
H114  H     H_    0.769566 0.379044 0.046630 0.203826
H115  H     H_    0.492905 0.247792 0.948353 0.219572
H116  H     H_    0.384958 0.269223 0.927001 0.246918
H117  H     H_    0.360915 0.225638 0.953071 0.202796
H118  H     H_    0.365166 0.172442 0.927504 0.250181
H119  H     H_    0.242011 0.485356 0.050958 0.216102
H120  H     H_    0.269579 0.591516 0.072633 0.245286
H121  H     H_    0.174416 0.616403 0.072635 0.258348
H122  H     H_    0.226337 0.619297 0.046862 0.205150
H123  H     H_    0.580358 0.771393 0.050636 0.216394
H124  H     H_    0.030987 0.319134 0.484350 0.140828
H125  H     H_    0.688750 0.783213 0.072381 0.243459
H126  H     H_    0.677767 0.881411 0.072524 0.257985
H127  H     H_    0.699230 0.834126 0.046693 0.205345
H128  H     H_    0.240402 0.463497 0.949481 0.217563
H129  H     H_    0.246775 0.353981 0.927827 0.242023
H130  H     H_    0.148571 0.348720 0.927615 0.260511
H131  H     H_    0.198388 0.335357 0.953487 0.202982
H132  H     H_    0.392491 0.221275 0.051060 0.217019
H133  H     H_    0.474680 0.294858 0.072399 0.249378
H134  H     H_    0.517444 0.269185 0.046363 0.201027
H135  H     H_    0.684944 0.008922 0.515848 0.142165
H136  H     H_    0.540515 0.221433 0.071990 0.253542
H137  H     H_    0.756788 0.535173 0.949131 0.217553
H138  H     H_    0.750653 0.645017 0.927615 0.242399
H139  H     H_    0.848853 0.650379 0.927577 0.260468
H140  H     H_    0.798602 0.663291 0.953382 0.202315
H141  H     H_    0.008250 0.257682 0.449576 0.220905
H142  H     H_    0.114342 0.233619 0.427629 0.248313
H143  H     H_    0.140775 0.278293 0.453310 0.201235
H144  H     H_    0.135407 0.330143 0.427505 0.249813
H145  H     H_    0.256017 0.009439 0.550616 0.215596
H146  H     H_    0.973555 0.686500 0.483525 0.139837
H147  H     H_    0.229837 0.902893 0.572274 0.244737
H148  H     H_    0.325384 0.879533 0.572421 0.258803
H149  H     H_    0.273860 0.875751 0.546575 0.204028
H150  H     H_    0.992319 0.746098 0.448402 0.220379
H151  H     H_    0.884550 0.767647 0.426977 0.248237
H152  H     H_    0.860282 0.724018 0.453020 0.201994
H153  H     H_    0.864695 0.670877 0.427445 0.249832
H154  H     H_    0.744525 0.989809 0.550966 0.216399
H155  H     H_    0.770358 0.096444 0.572624 0.245774
H156  H     H_    0.674807 0.119783 0.572612 0.258262
H157  H     H_    0.316070 0.990118 0.515590 0.141974
H158  H     H_    0.726706 0.123468 0.546844 0.205022
H159  H     H_    0.079520 0.269708 0.550665 0.216754
H160  H     H_    0.188068 0.281620 0.572336 0.244001
H161  H     H_    0.177090 0.379820 0.572442 0.257987
H162  H     H_    0.198362 0.332408 0.546618 0.204829
H163  H     H_    0.743309 0.967501 0.449469 0.218805
H164  H     H_    0.751297 0.858071 0.427820 0.243688
H165  H     H_    0.653186 0.851332 0.427616 0.260389
H166  H     H_    0.703215 0.838746 0.453486 0.201638
H167  H     H_    0.890669 0.719054 0.551036 0.217203
H168  H     H_    0.578108 0.834671 0.015705 0.140841
H169  H     H_    0.972585 0.793050 0.572344 0.249723
H170  H     H_    0.015386 0.767521 0.546301 0.201191
H171  H     H_    0.038747 0.719922 0.571929 0.253116
H172  H     H_    0.258615 0.031691 0.449122 0.218323
H173  H     H_    0.250889 0.141284 0.427537 0.243237
H174  H     H_    0.349002 0.148043 0.427473 0.260044
H175  H     H_    0.298635 0.160430 0.453281 0.202136
H176  H     H_    0.818895 0.543163 0.984274 0.140709
H177  H     H_    0.439617 0.179221 0.016028 0.139681
H178  H     H_    0.177744 0.455131 0.984507 0.140998
H179  H     H_    0.531744 0.820875 0.984366 0.140712
H180  H     H_    0.344497 0.250470 0.719257 0.238062
H181  H     H_    0.182709 0.505532 0.015855 0.141914
H182  H     H_    0.474503 0.188284 0.983500 0.139687
H183  H     H_    0.813573 0.492766 0.015625 0.141771
H184  H     H_    0.628742 0.703734 0.744278 0.253492
H185  H     H_    0.713797 0.382545 0.256947 0.242087
H186  H     H_    0.371248 0.296267 0.744268 0.253662
H187  H     H_    0.277556 0.625382 0.267082 0.237253
H188  H     H_    0.370647 0.704861 0.258428 0.240293
H189  H     H_    0.279526 0.376909 0.735103 0.225215
H190  H     H_    0.625600 0.297269 0.249261 0.251586
H191  H     H_    0.233053 0.688698 0.284659 0.247877
H192  H     H_    0.720440 0.623088 0.735110 0.225869
H193  H     H_    0.129169 0.204337 0.243492 0.243596
H194  H     H_    0.219536 0.877892 0.764093 0.231982
H195  H     H_    0.879069 0.784500 0.239554 0.244086
H196  H     H_    0.780415 0.122159 0.764173 0.231876
H197  H     H_    0.871767 0.203327 0.754986 0.253024
H198  H     H_    0.795825 0.873961 0.247729 0.230725
H199  H     H_    0.128212 0.796663 0.754927 0.251542
H200  H     H_    0.221010 0.123736 0.234565 0.221719
H201  H     H_    0.745425 0.817236 0.783066 0.072580
H202  H     H_    0.339992 0.753996 0.282274 0.240044
H203  H     H_    0.826660 0.260355 0.215665 0.080901
H204  H     H_    0.254659 0.182758 0.783066 0.072514
H205  H     H_    0.195070 0.710086 0.213286 0.076865
H206  H     H_    0.260671 0.812089 0.216187 0.072442
H207  H     H_    0.187614 0.283170 0.786271 0.096396
H208  H     H_    0.748808 0.169329 0.218148 0.055833
H209  H     H_    0.812474 0.716820 0.786269 0.096467
H210  H     H_    0.246091 0.316043 0.283051 0.056041
H211  H     H_    0.313739 0.781125 0.713780 0.072341
H212  H     H_    0.769670 0.679419 0.285512 0.074884
H213  H     H_    0.238429 0.315673 0.716048 0.260095
H214  H     H_    0.686349 0.218648 0.713768 0.082318
H215  H     H_    0.753868 0.318617 0.717124 0.076267
H216  H     H_    0.675227 0.753618 0.282859 0.083490
H217  H     H_    0.246213 0.681196 0.717176 0.047280
H218  H     H_    0.311213 0.213982 0.286261 0.094129
H219  H     H_    0.783771 0.883622 0.749826 0.098759
H220  H     H_    0.866367 0.203152 0.246733 0.071059
H221  H     H_    0.216232 0.116383 0.749836 0.098544
H222  H     H_    0.143152 0.795839 0.237364 0.064304
H223  H     H_    0.217062 0.884320 0.248604 0.077138
H224  H     H_    0.643366 0.263398 0.276423 0.244869
H225  H     H_    0.138774 0.203153 0.759982 0.064586
H226  H     H_    0.783618 0.119813 0.255064 0.074587
H227  H     H_    0.861236 0.796844 0.759979 0.065018
H228  H     H_    0.284208 0.383995 0.249900 0.103833
H229  H     H_    0.361325 0.702721 0.740643 0.057521
H230  H     H_    0.703800 0.633830 0.256330 0.063559
H231  H     H_    0.638729 0.297240 0.740568 0.057401
H232  H     H_    0.716428 0.383479 0.751040 0.080336
H233  H     H_    0.618654 0.714823 0.248154 0.084796
H234  H     H_    0.283587 0.616521 0.751111 0.079957
H235  H     H_    0.761492 0.684325 0.716050 0.260219
H236  H     H_    0.361189 0.296619 0.260287 0.064690
H237  H     H_    0.610940 0.039943 0.837833 0.180822
H238  H     H_    0.039071 0.610998 0.161912 0.172511
H239  H     H_    0.389157 0.961171 0.838022 0.180556
H240  H     H_    0.958500 0.389013 0.162217 0.183843
H241  H     H_    0.618156 0.005343 0.162223 0.172636
H242  H     H_    0.979420 0.616384 0.838095 0.177723
H243  H     H_    0.382949 0.996858 0.161580 0.179575
H244  H     H_    0.020017 0.383502 0.838085 0.177734
H245  H     H_    0.110997 0.539084 0.337918 0.171591
H246  H     H_    0.156918 0.250879 0.218800 0.238119
H247  H     H_    0.538139 0.111711 0.662018 0.171169
H248  H     H_    0.889121 0.460554 0.337933 0.170127
H249  H     H_    0.461591 0.888272 0.662062 0.169496
H250  H     H_    0.117957 0.505216 0.662127 0.175833
H251  H     H_    0.478347 0.116032 0.338117 0.177189
H252  H     H_    0.882789 0.495657 0.661674 0.182531
H253  H     H_    0.523337 0.883978 0.338018 0.186592
H254  H     H_    0.771721 0.821992 0.677981 0.397709
H255  H     H_    0.861515 0.331113 0.303335 0.346164
H256  H     H_    0.228136 0.177967 0.677985 0.396205
N1    N     N_R   0.500202 0.002316 0.905964 -0.338441
N2    N     N_2   0.043701 0.626609 0.117920 -0.295617
N3    N     N_2   0.373630 0.956533 0.882030 -0.290558
N4    N     N_2   0.951404 0.372982 0.118274 -0.295348
N5    N     N_2   0.636008 0.009109 0.118421 -0.300652
N6    N     N_2   0.976471 0.632907 0.882019 -0.295055
N7    N     N_2   0.367646 0.997068 0.117586 -0.287833
N8    N     N_2   0.021837 0.366684 0.881999 -0.295280
N9    N     N_2   0.126524 0.545189 0.381898 -0.289590
N10   N     N_2   0.543652 0.127541 0.618048 -0.295376
N11   N     N_2   0.873518 0.455076 0.381927 -0.287864
N12   N     N_R   0.997714 0.499412 0.093959 -0.340854
N13   N     N_2   0.455967 0.872277 0.618103 -0.296340
N14   N     N_2   0.135427 0.508113 0.618293 -0.298448
N15   N     N_2   0.476422 0.132595 0.382044 -0.296120
N16   N     N_2   0.867123 0.494830 0.617702 -0.287873
N17   N     N_2   0.526696 0.867250 0.381934 -0.293385
N18   N     N_2   0.534749 0.802807 0.941937 -0.244869
N19   N     N_2   0.796242 0.484953 0.058157 -0.250635
N20   N     N_2   0.466932 0.203542 0.941114 -0.244709
N21   N     N_2   0.199553 0.513425 0.058395 -0.250231
N22   N     N_2   0.591195 0.821188 0.058136 -0.249226
N23   N     N_R   0.502921 0.003784 0.093877 -0.340445
N24   N     N_2   0.193329 0.444528 0.941975 -0.247285
N25   N     N_2   0.437094 0.196416 0.058386 -0.249095
N26   N     N_2   0.803960 0.554304 0.941728 -0.247177
N27   N     N_2   0.034230 0.301149 0.441914 -0.243416
N28   N     N_2   0.298819 0.982064 0.558117 -0.249989
N29   N     N_2   0.966375 0.701884 0.441133 -0.244025
N30   N     N_2   0.701614 0.017198 0.558394 -0.250178
N31   N     N_2   0.090410 0.319530 0.558142 -0.248999
N32   N     N_2   0.696522 0.947819 0.441965 -0.246285
N33   N     N_2   0.935399 0.694413 0.558359 -0.249078
N34   N     N_R   0.998947 0.499713 0.906169 -0.342204
N35   N     N_2   0.305502 0.051443 0.441700 -0.246629
N36   N     N_R   0.999930 0.500745 0.405962 -0.339322
N37   N     N_R   0.499977 0.999793 0.593940 -0.340959
N38   N     N_R   0.002099 0.502137 0.593873 -0.340315
N39   N     N_R   0.501270 0.999778 0.406151 -0.342546
N40   N     N_2   0.626563 0.046855 0.881796 -0.290882
O1    O     O_3   0.500000 0.000000 0.750000 -0.518965
O2    O     O_R   0.061290 0.500080 0.700060 -0.637196
O3    O     O_2   0.656954 0.567604 0.215672 -0.157623
O4    O     O_3   0.767397 0.633142 0.196697 -0.505864
O5    O     O_2   0.572226 0.351265 0.783358 -0.152204
O6    O     O_2   0.524736 0.245420 0.763780 -0.283699
O7    O     O_3   0.608729 0.220922 0.797599 -0.542863
O8    O     O_2   0.817233 0.393140 0.793335 -0.317964
O9    O     O_2   0.688616 0.422349 0.794426 -0.154241
O10   O     O_3   0.730323 0.293277 0.807541 -0.519062
O11   O     O_2   0.595034 0.684013 0.201687 -0.151144
O12   O     O_2   0.585881 0.812983 0.209838 -0.297902
O13   O     O_R   0.499920 0.061290 0.299940 -0.633060
O14   O     O_3   0.706918 0.766303 0.193004 -0.533998
O15   O     O_2   0.182734 0.606834 0.793352 -0.318051
O16   O     O_2   0.311399 0.577889 0.794534 -0.154383
O17   O     O_3   0.269374 0.706935 0.807570 -0.519324
O18   O     O_2   0.430044 0.354703 0.218029 -0.122319
O19   O     O_2   0.478119 0.249152 0.237298 -0.313879
O20   O     O_3   0.396228 0.225566 0.202738 -0.473312
O21   O     O_2   0.589118 0.698743 0.787857 -0.138084
O22   O     O_2   0.664759 0.753124 0.817239 -0.254321
O23   O     O_3   0.582900 0.838335 0.794209 -0.561450
O24   O     O_R   0.938710 0.499920 0.700060 -0.631283
O25   O     O_2   0.739176 0.343138 0.183667 -0.204021
O26   O     O_2   0.696747 0.408369 0.216966 -0.180092
O27   O     O_3   0.832879 0.417724 0.205488 -0.566150
O28   O     O_2   0.410972 0.301256 0.787853 -0.138052
O29   O     O_2   0.335396 0.246841 0.817234 -0.254321
O30   O     O_3   0.417219 0.161661 0.794199 -0.561695
O31   O     O_2   0.297247 0.609196 0.194295 -0.174144
O32   O     O_2   0.340532 0.590682 0.232429 -0.204692
O33   O     O_3   0.212194 0.544557 0.221831 -0.519450
O34   O     O_2   0.414594 0.829110 0.206770 -0.304942
O35   O     O_R   0.999920 0.438710 0.200060 -0.610375
O36   O     O_2   0.423643 0.701066 0.217989 -0.190932
O37   O     O_3   0.349506 0.735042 0.182255 -0.497712
O38   O     O_2   0.287073 0.380330 0.808595 -0.129136
O39   O     O_2   0.332439 0.409550 0.771284 -0.249088
O40   O     O_3   0.201497 0.449247 0.782322 -0.538547
O41   O     O_2   0.585407 0.169494 0.207616 -0.322770
O42   O     O_2   0.605442 0.300439 0.206571 -0.106419
O43   O     O_3   0.674828 0.217473 0.178397 -0.470545
O44   O     O_2   0.713069 0.619658 0.808603 -0.129274
O45   O     O_2   0.667621 0.590435 0.771296 -0.248643
O46   O     O_R   0.438710 0.000080 0.799940 -0.617573
O47   O     O_3   0.798593 0.550754 0.782331 -0.538786
O48   O     O_2   0.083268 0.206138 0.285142 -0.117808
O49   O     O_2   0.161756 0.241381 0.316425 -0.235399
O50   O     O_3   0.090584 0.342268 0.296455 -0.523016
O51   O     O_2   0.214390 0.877108 0.690570 -0.167724
O52   O     O_2   0.169552 0.909457 0.727681 -0.195084
O53   O     O_3   0.300183 0.947309 0.716686 -0.532708
O54   O     O_2   0.906064 0.820109 0.278798 -0.140843
O55   O     O_2   0.858980 0.770842 0.313849 -0.187554
O56   O     O_3   0.933244 0.684942 0.289068 -0.554583
O57   O     O_R   0.000080 0.561290 0.200060 -0.656073
O58   O     O_2   0.785768 0.122487 0.690658 -0.179999
O59   O     O_2   0.830526 0.090416 0.727808 -0.194390
O60   O     O_3   0.699924 0.052475 0.716792 -0.531814
O61   O     O_2   0.910529 0.331819 0.705982 -0.325703
O62   O     O_2   0.909598 0.199540 0.711409 -0.134019
O63   O     O_3   0.830359 0.255809 0.679700 -0.516340
O64   O     O_2   0.735286 0.835364 0.318167 -0.191637
O65   O     O_2   0.798288 0.907441 0.289575 -0.197606
O66   O     O_3   0.659139 0.919757 0.293754 -0.533494
O67   O     O_2   0.088991 0.668267 0.705988 -0.322851
O68   O     O_R   0.561290 0.999920 0.799940 -0.617797
O69   O     O_2   0.090431 0.800218 0.711375 -0.094727
O70   O     O_3   0.168807 0.744225 0.679609 -0.468647
O71   O     O_2   0.214262 0.114007 0.307603 -0.129032
O72   O     O_2   0.161163 0.094522 0.270665 -0.248955
O73   O     O_3   0.291521 0.046770 0.278815 -0.535756
O74   O     O_R   0.000080 0.438710 0.799940 -0.627503
O75   O     O_R   0.561290 0.000080 0.200060 -0.617335
O76   O     O_R   0.999920 0.561290 0.799940 -0.627267
O77   O     O_3   1.000000 0.500000 0.250000 -0.507858
O78   O     O_R   0.438710 0.999920 0.200060 -0.637570
O79   O     O_R   0.586160 0.147460 0.736910 -0.648915
O80   O     O_R   0.147460 0.413840 0.263090 -0.634266
O81   O     O_R   0.413840 0.852540 0.736910 -0.649246
O82   O     O_R   0.852540 0.586160 0.263090 -0.642403
O83   O     O_R   0.413840 0.147460 0.263090 -0.614933
O84   O     O_R   0.852540 0.413840 0.736910 -0.648468
O85   O     O_R   0.586160 0.852540 0.263090 -0.624369
O86   O     O_R   0.147460 0.586160 0.736910 -0.653203
O87   O     O_R   0.086160 0.647460 0.236910 -0.635586
O88   O     O_3   0.500000 0.000000 0.250000 -0.520602
O89   O     O_R   0.647460 0.913840 0.763090 -0.618614
O90   O     O_R   0.913840 0.352540 0.236910 -0.605915
O91   O     O_R   0.352540 0.086160 0.763090 -0.618702
O92   O     O_R   0.913840 0.647460 0.763090 -0.611568
O93   O     O_R   0.352540 0.913840 0.236910 -0.647619
O94   O     O_R   0.086160 0.352540 0.763090 -0.611526
O95   O     O_R   0.647460 0.086160 0.236910 -0.655937
O96   O     O_R   0.352450 0.913760 0.763090 -0.620703
O97   O     O_R   0.913760 0.647550 0.236910 -0.606428
O98   O     O_R   0.647550 0.086240 0.763090 -0.620789
O99   O     O_3   0.000000 0.500000 0.750000 -0.518175
O100  O     O_R   0.086240 0.352450 0.236910 -0.609691
O101  O     O_R   0.647550 0.913760 0.236910 -0.632281
O102  O     O_R   0.086240 0.647550 0.763090 -0.594683
O103  O     O_R   0.352450 0.086240 0.236910 -0.674590
O104  O     O_R   0.913760 0.352450 0.763090 -0.594802
O105  O     O_R   0.852450 0.413760 0.263090 -0.645333
O106  O     O_R   0.413760 0.147550 0.736910 -0.600266
O107  O     O_R   0.147550 0.586240 0.263090 -0.639077
O108  O     O_R   0.586240 0.852450 0.736910 -0.600453
O109  O     O_R   0.147550 0.413760 0.736910 -0.674599
O110  O     O_R   0.499920 0.938710 0.700060 -0.645161
O111  O     O_R   0.586240 0.147550 0.263090 -0.593336
O112  O     O_R   0.852450 0.586240 0.736910 -0.674039
O113  O     O_R   0.413760 0.852450 0.263090 -0.614359
O114  O     O_2   0.510569 0.874565 0.905405 -0.520615
O115  O     O_2   0.870179 0.504313 0.094679 -0.522788
O116  O     O_2   0.489495 0.130002 0.904819 -0.520301
O117  O     O_2   0.125233 0.494263 0.094820 -0.520051
O118  O     O_2   0.546190 0.883165 0.094559 -0.525072
O119  O     O_2   0.124983 0.479307 0.905495 -0.515066
O120  O     O_2   0.455948 0.122934 0.094841 -0.515662
O121  O     O_R   0.938710 0.500080 0.299940 -0.663506
O122  O     O_2   0.872930 0.520173 0.905307 -0.514784
O123  O     O_2   0.010289 0.372994 0.405377 -0.511989
O124  O     O_2   0.372379 0.002587 0.594641 -0.520002
O125  O     O_2   0.989202 0.628433 0.404840 -0.515864
O126  O     O_2   0.627563 0.996929 0.594822 -0.519111
O127  O     O_2   0.045723 0.381654 0.594577 -0.523252
O128  O     O_2   0.627625 0.981475 0.405472 -0.508343
O129  O     O_2   0.954694 0.621116 0.594821 -0.515926
O130  O     O_2   0.374909 0.018007 0.405302 -0.514658
O131  O     O_2   0.684528 0.896609 0.707365 -0.313879
O132  O     O_R   0.500080 0.061290 0.700060 -0.644676
O133  O     O_2   0.813213 0.925632 0.706853 -0.130307
O134  O     O_3   0.771801 0.797541 0.692754 -0.508015
O135  O     O_2   0.926065 0.165935 0.288827 -0.117054
O136  O     O_2   0.957625 0.286710 0.275671 -0.296305
O137  O     O_3   0.855961 0.277475 0.305367 -0.457999
O138  O     O_2   0.315376 0.103351 0.707377 -0.313716
O139  O     O_2   0.186686 0.074348 0.706870 -0.130022
O140  O     O_3   0.228089 0.202426 0.692755 -0.509680
O141  O     O_2   0.067644 0.861601 0.276926 -0.119620
O142  O     O_2   0.022018 0.754109 0.258124 -0.273499
O143  O     O_R   0.061290 0.499920 0.299940 -0.651958
O144  O     O_3   0.094573 0.734625 0.294929 -0.453379
O145  O     O_2   0.310693 0.896519 0.292589 -0.317743
O146  O     O_2   0.182733 0.929367 0.291054 -0.145147
O147  O     O_3   0.218046 0.801216 0.306318 -0.511397
O148  O     O_2   0.070635 0.146652 0.717664 -0.118677
O149  O     O_2   0.023654 0.252885 0.736907 -0.305656
O150  O     O_3   0.106279 0.275492 0.702445 -0.485331
O151  O     O_2   0.679903 0.095834 0.292571 -0.345521
O152  O     O_2   0.806681 0.107889 0.302453 -0.135427
O153  O     O_3   0.722741 0.221386 0.307250 -0.536177
O154  O     O_R   0.500080 0.938710 0.299940 -0.610810
O155  O     O_2   0.929301 0.853374 0.717665 -0.115596
O156  O     O_2   0.976326 0.747141 0.736911 -0.307787
O157  O     O_3   0.893657 0.724536 0.702446 -0.476221
O158  O     O_2   0.185428 0.395803 0.207179 -0.326682
O159  O     O_2   0.313901 0.426326 0.206953 -0.128527
O160  O     O_3   0.274282 0.297905 0.192763 -0.508470
O161  O     O_2   0.427785 0.648899 0.783455 -0.152414
O162  O     O_2   0.475181 0.754829 0.763901 -0.284265
O163  O     O_3   0.391041 0.779179 0.797678 -0.542681
O164  O     O_2   0.778485 0.536276 0.227945 -0.306516
S1    S     S_3+6 0.759233 0.865374 0.711327 0.108130
S2    S     S_3+6 0.409227 0.724911 0.775669 0.104188
S3    S     S_3+6 0.731386 0.598655 0.220262 0.097296
S4    S     S_3+6 0.590695 0.275230 0.775580 0.105455
S5    S     S_3+6 0.742360 0.362356 0.789365 0.079295
S6    S     S_3+6 0.637068 0.748617 0.210385 0.105312
S7    S     S_3+6 0.257563 0.637757 0.789416 0.078126
S8    S     S_3+6 0.411959 0.278129 0.225345 0.128113
S9    S     S_3+6 0.636006 0.763165 0.793924 0.099996
S10   S     S_3+6 0.758195 0.364373 0.207173 0.106891
S11   S     S_3+6 0.364101 0.236824 0.793919 0.099972
S12   S     S_3+6 0.894637 0.239329 0.282715 0.134772
S13   S     S_3+6 0.275366 0.610458 0.218444 0.123808
S14   S     S_3+6 0.373378 0.758103 0.208435 0.097711
S15   S     S_3+6 0.266844 0.384692 0.784339 0.125703
S16   S     S_3+6 0.642781 0.227443 0.204540 0.121538
S17   S     S_3+6 0.733242 0.615300 0.784347 0.125771
S18   S     S_3+6 0.135908 0.262813 0.293521 0.122117
S19   S     S_3+6 0.234758 0.882920 0.714797 0.119356
S20   S     S_3+6 0.872491 0.754038 0.289662 0.139358
S21   S     S_3+6 0.765344 0.116858 0.714882 0.121010
S22   S     S_3+6 0.863023 0.264699 0.705810 0.103129
S23   S     S_3+6 0.240684 0.134602 0.711336 0.107789
S24   S     S_3+6 0.731286 0.862855 0.294556 0.110077
S25   S     S_3+6 0.136966 0.735055 0.705798 0.119958
S26   S     S_3+6 0.229986 0.113831 0.283014 0.125467
S27   S     S_3+6 0.085438 0.783465 0.271240 0.147326
S28   S     S_3+6 0.235713 0.867493 0.287617 0.086366
S29   S     S_3+6 0.089468 0.223025 0.725001 0.127728
S30   S     S_3+6 0.743745 0.147334 0.291809 0.093596
S31   S     S_3+6 0.910491 0.776994 0.725002 0.132972
S32   S     S_3+6 0.260433 0.365531 0.211319 0.106027
Zn1   Zn    Zn3+2 0.587490 0.999960 0.768710 1.097667
Zn2   Zn    Zn3+2 0.499960 0.912510 0.731290 1.081252
Zn3   Zn    Zn3+2 0.912510 0.500040 0.268710 1.062060
Zn4   Zn    Zn3+2 0.500040 0.087490 0.731290 1.082463
Zn5   Zn    Zn3+2 0.912510 0.499960 0.731290 1.044585
Zn6   Zn    Zn3+2 0.500040 0.912510 0.268710 1.099456
Zn7   Zn    Zn3+2 0.087490 0.500040 0.731290 1.035974
Zn8   Zn    Zn3+2 0.499960 0.087490 0.268710 1.096243
Zn9   Zn    Zn3+2 0.999960 0.412510 0.231290 1.116772
Zn10  Zn    Zn3+2 0.412510 0.000040 0.768710 1.097808
Zn11  Zn    Zn3+2 0.000040 0.587490 0.231290 1.068445
Zn12  Zn    Zn3+2 0.412510 0.999960 0.231290 1.053253
Zn13  Zn    Zn3+2 0.000040 0.412510 0.768710 1.105190
Zn14  Zn    Zn3+2 0.587490 0.000040 0.231290 1.067542
Zn15  Zn    Zn3+2 0.999960 0.587490 0.768710 1.105171
Zn16  Zn    Zn3+2 0.087490 0.499960 0.268710 1.050305

loop_
_geom_bond_atom_site_label_1
_geom_bond_atom_site_label_2
_ccdc_geom_bond_type
C159  H71   S    
O58   S21   D    
C151  N2    S    
C215  N32   S    
C159  H73   S    
C181  H161  S    
C40   C93   S    
H31   O66   S    
C198  C216  A    
H96   N16   S    
C178  N29   S    
C154  H54   S    
C136  H238  S    
C233  C259  A    
C155  H58   S    
C61   H201  S    
C161  H82   S    
C129  N17   S    
C44   H220  S    
O77   Zn16  S    
C103  N23   A    
C133  C219  A    
C20   O106  A    
C263  H176  S    
C242  C251  A    
O80   Zn16  S    
O42   S16   D    
O19   S8    D    
C40   H46   S    
H115  N20   S    
O46   Zn10  S    
O10   S5    S    
C175  H139  S    
C128  C145  A    
C193  C211  A    
O40   S15   S    
C160  N10   S    
C205  C262  A    
H12   O10   S    
O73   S26   S    
C126  C143  A    
C109  C196  A    
O15   S7    D    
C229  C234  A    
H83   N13   S    
C177  N28   S    
O18   S8    D    
C216  N33   S    
C76   C94   S    
H20   O33   S    
C2    C116  A    
C139  C220  A    
O27   S10   S    
C114  O130  S    
C221  O68   A    
C34   C42   S    
C201  N18   S    
C258  H124  S    
C96   C168  A    
C47   C82   S    
C261  H157  S    
H52   N5    S    
C111  N38   A    
C119  N7    S    
C157  C246  A    
O1    Zn2   S    
C230  C246  A    
C205  N22   S    
H27   O53   S    
C27   C32   S    
O69   S25   D    
C103  O120  S    
C163  H88   S    
C110  C197  A    
C125  N13   S    
O86   Zn7   S    
C5    C204  A    
C64   S13   S    
C97   N12   A    
C161  H80   S    
O81   Zn2   S    
C37   H195  S    
C158  H66   S    
C231  C247  A    
C67   C85   S    
C23   C84   S    
C42   C95   S    
O160  S32   S    
C227  C253  A    
H123  N22   S    
C143  H245  S    
C116  C133  A    
C90   C186  A    
C29   H191  S    
O64   S24   D    
C145  C225  A    
O11   S6    D    
O99   Zn13  S    
C68   C131  A    
H32   O70   S    
O145  S28   D    
C160  H77   S    
C232  O76   A    
C178  H151  S    
C167  H106  S    
C57   C130  A    
C8    O79   A    
C28   H186  S    
C41   C94   S    
C179  C202  A    
C50   H226  S    
C189  C206  A    
C18   C78   S    
H19   O30   S    
O149  S29   D    
O131  S1    D    
H10   O4    S    
C75   S24   S    
C47   H222  S    
O143  Zn16  S    
C108  C195  A    
C35   N36   S    
C27   H185  S    
O132  Zn4   S    
C206  N24   S    
O5    S4    D    
O39   S15   D    
C107  N36   A    
C184  N35   S    
C244  C252  A    
O77   Zn3   S    
C120  C138  A    
C98   N1    A    
O141  S27   D    
H6    O153  S    
O152  S30   D    
O7    S4    S    
C118  C136  A    
C75   C93   S    
O67   S25   D    
C44   C50   S    
C21   C86   S    
O99   Zn5   S    
C32   H190  S    
C237  C244  A    
H74   N10   S    
C118  N2    S    
C48   H223  S    
C68   N39   S    
C30   H188  S    
O47   S17   S    
C164  H93   S    
H65   N8    S    
O51   S19   D    
O82   Zn3   S    
O71   S26   D    
C165  H97   S    
C15   O85   A    
C176  H142  S    
C9    O100  A    
C16   C94   S    
O148  S29   D    
C108  N37   A    
C6    C203  A    
C110  N39   A    
C237  C263  A    
C140  C222  A    
C4    C201  A    
O113  Zn6   S    
C45   H221  S    
C67   S16   S    
C19   O90   A    
C23   O109  A    
C22   O93   A    
C115  N3    S    
C132  C218  A    
C34   C87   S    
C62   S10   S    
C19   C80   S    
C129  C147  A    
O1    Zn4   S    
C184  H173  S    
C31   C84   S    
C166  H104  S    
C71   C88   S    
C159  N9    S    
C60   C95   S    
C29   C82   S    
C240  C251  A    
C14   O104  A    
C160  H75   S    
O97   Zn11  S    
O78   Zn12  S    
O146  S28   D    
C156  H62   S    
O2    Zn7   S    
C162  H86   S    
C142  H249  S    
O65   S24   D    
C227  C231  A    
C211  N28   S    
C121  C139  A    
H141  N27   S    
O92   Zn15  S    
C182  H164  S    
C35   C126  A    
C209  N27   S    
C7    H183  S    
C32   H224  S    
C209  C258  A    
C38   H24   S    
C136  C219  A    
H163  N32   S    
C36   C88   S    
C178  H153  S    
C207  C264  A    
C243  O78   A    
C146  C245  A    
C10   C88   S    
C26   C78   S    
C208  C263  A    
O9    S5    D    
O25   S10   D    
H254  O134  S    
O14   S6    S    
C49   C84   S    
C62   C80   S    
C134  H237  S    
O111  Zn8   S    
C174  H133  S    
C188  C226  S    
C38   C39   S    
O102  Zn15  S    
C243  O75   A    
C138  C222  A    
H145  N28   S    
C74   C92   S    
C57   N38   S    
C3    H178  S    
C31   H189  S    
C155  N6    S    
C13   C121  A    
H172  N35   S    
C17   C82   S    
C52   C60   S    
C150  H38   S    
H132  N25   S    
C175  N26   S    
C47   C48   S    
O76   Zn15  S    
C182  N32   S    
C171  N21   S    
C55   C91   S    
C230  C257  A    
C12   C95   S    
C163  N14   S    
O48   S18   D    
O24   Zn5   S    
C74   S22   S    
C125  C142  A    
O21   S9    D    
H105  N18   S    
C229  C245  A    
O61   S22   D    
C173  H129  S    
C222  C232  S    
C65   H206  S    
C114  C200  A    
C70   C77   S    
C149  C226  A    
C182  H166  S    
C71   H211  S    
C164  H95   S    
C70   C87   S    
O109  Zn7   S    
C117  N40   S    
C48   S28   S    
O84   Zn5   S    
C165  H99   S    
C115  C132  A    
C176  H144  S    
O75   Zn14  S    
C192  C209  A    
C220  C243  S    
C150  N40   S    
C122  N6    S    
C2    N12   S    
C165  N16   S    
C262  H168  S    
O147  S28   S    
O91   Zn10  S    
C27   C80   S    
C172  H125  S    
O17   S7    S    
C22   O113  A    
O66   S24   S    
C166  N17   S    
C116  N4    S    
C158  H69   S    
C194  C212  A    
C128  N16   S    
C171  H122  S    
C210  C219  S    
C76   S25   S    
C146  C198  A    
C30   H202  S    
C29   C30   S    
C184  H175  S    
O12   S6    D    
C166  H102  S    
O89   Zn1   S    
C11   C89   S    
O74   Zn13  S    
O49   S18   D    
O164  S3    D    
C14   C92   S    
C187  C205  A    
C25   C85   S    
C140  H242  S    
C239  C241  A    
C70   H210  S    
O77   Zn9   S    
C100  N23   A    
C54   H230  S    
C156  H64   S    
C153  H49   S    
C73   H214  S    
C141  C223  A    
C4    H179  S    
O154  Zn6   S    
O106  Zn4   S    
O88   Zn14  S    
O99   Zn7   S    
C21   O112  A    
C237  C250  A    
C34   H193  S    
C124  C194  A    
H128  N24   S    
C11   O82   A    
O96   Zn10  S    
C235  C248  A    
C15   O101  A    
O83   Zn8   S    
C199  O2    A    
C218  C221  S    
C51   H227  S    
C210  O35   A    
O45   S17   D    
O136  S12   D    
C49   H225  S    
C212  N29   S    
C161  N11   S    
O93   Zn12  S    
C106  O124  S    
O112  Zn5   S    
O88   Zn12  S    
C101  C249  A    
C214  N31   S    
C45   S23   S    
C229  C256  A    
C169  H114  S    
C16   O102  A    
C154  H55   S    
C164  N15   S    
C221  O46   A    
C110  O128  S    
C264  H177  S    
C147  C226  A    
C177  H148  S    
H4    O147  S    
C48   C83   S    
C157  C200  A    
C180  H158  S    
C22   C83   S    
C215  C257  A    
C35   C123  A    
C10   O81   A    
C122  C140  A    
C77   H218  S    
O159  S32   D    
C9    C87   S    
O1    Zn10  S    
C253  H79   S    
C139  H241  S    
O44   S17   D    
C19   O105  A    
C137  H243  S    
C97   C179  A    
C123  N11   S    
C103  C190  A    
H48   N4    S    
C61   S9    S    
O101  Zn14  S    
C46   N37   S    
H5    O150  S    
C151  H41   S    
C190  C207  A    
C173  H131  S    
O68   Zn1   S    
C216  C256  A    
C6    C242  A    
C41   H57   S    
O110  Zn2   S    
C21   O92   A    
C101  C187  A    
O85   Zn6   S    
C107  C194  A    
O1    Zn1   S    
H100  N17   S    
C37   H13   S    
O103  Zn12  S    
C99   O117  S    
C17   O107  A    
C171  H120  S    
C170  N20   S    
C55   C56   S    
C236  C262  A    
C102  O119  S    
O23   S9    S    
C12   O83   A    
C58   H233  S    
C172  N22   S    
C73   C74   S    
H119  N21   S    
C46   C125  A    
C238  C264  A    
C6    H182  S    
C172  H127  S    
H18   O27   S    
C2    C118  A    
C158  N8    S    
H34   N40   S    
H256  O140  S    
C43   C78   S    
C158  H67   S    
C173  N24   S    
C53   S2    S    
C234  C247  A    
C20   O91   A    
O20   S8    S    
C58   C93   S    
C180  H156  S    
O138  S23   D    
C135  C193  A    
C52   S32   S    
C111  C198  A    
C71   C76   S    
H33   O73   S    
C121  N5    S    
C52   H228  S    
C100  O118  S    
C30   C83   S    
O77   Zn11  S    
C109  N38   A    
O8    S5    D    
C228  C235  A    
C174  H136  S    
C46   C127  A    
C153  H51   S    
C50   C85   S    
C178  H152  S    
C90   C179  A    
C77   C95   S    
O29   S11   D    
O135  S12   D    
H8    O160  S    
C7    C244  A    
C152  H44   S    
O134  S1    S    
C234  C260  A    
C23   O94   A    
C151  H40   S    
C59   C94   S    
O32   S13   D    
C105  O123  S    
C120  N8    S    
H28   O56   S    
H15   O17   S    
O59   S21   D    
C63   C66   S    
O36   S14   D    
C159  H72   S    
C235  C261  A    
C239  C250  A    
O54   S20   D    
C200  C217  A    
O153  S30   S    
C12   O103  A    
O88   Zn6   S    
C36   C41   S    
C25   O95   A    
O95   Zn14  S    
C181  H162  S    
C117  C134  A    
C39   H197  S    
C51   C86   S    
C114  N39   A    
C154  H53   S    
H255  O137  S    
C52   C87   S    
O28   S11   D    
C24   C120  A    
O142  S27   D    
C167  N18   S    
C131  C149  A    
C63   S11   S    
C44   C80   S    
C100  C187  A    
C259  H135  S    
C164  H94   S    
C101  C190  A    
C55   S4    S    
C176  N27   S    
C175  H140  S    
C11   O97   A    
C133  H240  S    
C55   H231  S    
H30   O63   S    
C134  C218  A    
C104  C191  A    
C183  H171  S    
C38   C91   S    
C212  C260  A    
O4    S3    S    
C214  C253  A    
O94   Zn13  S    
H109  N19   S    
C70   S18   S    
C69   S17   S    
H61   N7    S    
C228  C255  A    
C183  H169  S    
C49   S29   S    
O98   Zn1   S    
C45   C49   S    
C63   H204  S    
C62   H203  S    
C24   C122  A    
C4    C240  A    
C199  O24   A    
C156  N7    S    
C10   O96   A    
C42   H200  S    
H56   N6    S    
C163  H91   S    
O70   S25   S    
C106  N37   A    
O35   Zn9   S    
C33   H235  S    
C138  H244  S    
H92   N15   S    
C160  H76   S    
C112  C223  S    
O57   Zn11  S    
C180  H155  S    
C43   S1    S    
C39   C92   S    
C124  C192  A    
O156  S31   D    
C104  O122  S    
H3    O144  S    
O3    S3    D    
C66   H207  S    
C151  H42   S    
C72   S20   S    
C167  H107  S    
C152  H45   S    
C31   H213  S    
C79   C251  A    
C203  N20   S    
C28   C31   S    
C8    O98   A    
C148  C225  A    
H150  N29   S    
C50   S30   S    
C15   C93   S    
C98   O116  S    
C105  N36   A    
C39   H35   S    
C37   C40   S    
C113  C189  A    
O26   S10   D    
O161  S2    D    
C37   C89   S    
C64   C65   S    
C185  C203  A    
C174  H134  S    
C59   S7    S    
C169  H111  S    
C143  C223  A    
C58   S6    S    
C43   C51   S    
C67   H208  S    
C115  C254  A    
O13   Zn8   S    
C32   C85   S    
O105  Zn3   S    
H167  N33   S    
C183  N33   S    
C202  N19   S    
C157  C197  A    
C127  C144  A    
C144  H247  S    
C204  N21   S    
C195  C213  A    
O56   S20   S    
H137  N26   S    
O6    S4    D    
C135  C195  A    
C228  C246  A    
C217  N35   S    
C210  O57   A    
C53   H229  S    
C170  H118  S    
O88   Zn8   S    
O108  Zn2   S    
O79   Zn4   S    
C127  N10   S    
H70   N9    S    
O87   Zn11  S    
C256  H101  S    
C74   H215  S    
C99   C186  A    
C98   C185  A    
O62   S22   D    
O151  S30   D    
C3    C239  A    
C112  O143  A    
H14   O14   S    
C130  N14   S    
C260  H146  S    
C72   C89   S    
O43   S16   S    
C24   N34   S    
C161  H81   S    
H7    O157  S    
C17   O87   A    
C236  C249  A    
C102  C189  A    
O150  S29   S    
C53   C59   S    
C175  H138  S    
C165  H98   S    
C14   O84   A    
O34   S14   D    
C208  N26   S    
O33   S13   S    
C62   C67   S    
C43   H219  S    
C1    C224  S    
C147  H253  S    
C1    O110  A    
C73   S21   S    
C126  N9    S    
C75   H216  S    
C7    C202  A    
C60   S8    S    
C172  H126  S    
C169  H110  S    
C1    O132  A    
C162  H84   S    
C65   C83   S    
C227  C245  A    
C177  H149  S    
H22   O40   S    
C66   C84   S    
C171  H121  S    
O22   S9    D    
C168  C201  A    
C182  H165  S    
C230  C233  A    
C167  H108  S    
C217  C255  A    
H23   O43   S    
H11   O7    S    
C96   N1    A    
C72   C75   S    
C166  H103  S    
O50   S18   S    
C141  H248  S    
O104  Zn13  S    
C181  N31   S    
C148  H250  S    
C188  O13   A    
H9    O163  S    
O137  S12   S    
C108  O126  S    
C66   S15   S    
C25   O111  A    
C99   N12   A    
C44   S12   S    
C79   C168  A    
O90   Zn9   S    
C181  H160  S    
C42   H68   S    
C197  C215  A    
C162  H85   S    
O30   S11   S    
C34   H246  S    
C26   H1    S    
C180  N30   S    
C132  H239  S    
C76   H217  S    
C170  H116  S    
O100  Zn9   S    
H87   N14   S    
C163  H89   S    
C20   C81   S    
C213  C259  A    
C152  H47   S    
O99   Zn15  S    
O38   S15   D    
C105  C192  A    
C123  C141  A    
C241  C252  A    
C142  C224  A    
C56   S5    S    
C13   C119  A    
C56   H232  S    
C106  C193  A    
C40   H198  S    
H159  N31   S    
C54   S3    S    
C113  C191  A    
C231  C258  A    
C63   C81   S    
C211  C261  A    
C9    O80   A    
C144  C224  A    
H16   O20   S    
C130  C148  A    
C41   H199  S    
C119  C137  A    
C73   C91   S    
C54   C89   S    
C104  N34   A    
C8    C91   S    
O144  S27   S    
C155  H60   S    
C170  H117  S    
C97   O115  S    
O162  S2    D    
C90   C252  A    
C177  H147  S    
C150  H36   S    
C113  C250  A    
C236  C240  A    
H43   N3    S    
C18   O89   A    
C33   C86   S    
C38   H196  S    
C254  N1    S    
C102  N34   A    
C183  H170  S    
O155  S31   D    
C36   H194  S    
C117  C254  A    
C112  O121  A    
C61   C78   S    
O163  S2    S    
C196  C214  A    
C186  C204  A    
C150  H37   S    
O53   S19   S    
C27   H112  S    
O121  Zn3   S    
C199  C225  S    
C64   C82   S    
O140  S23   S    
C184  H174  S    
H78   N11   S    
C59   H234  S    
C69   H209  S    
H39   N2    S    
C173  H130  S    
H154  N30   S    
O63   S22   S    
C28   H180  S    
C238  C249  A    
C77   S26   S    
C57   C128  A    
C47   S27   S    
O41   S16   D    
C146  C196  A    
C18   O108  A    
C54   C58   S    
C176  H143  S    
C61   C69   S    
O55   S20   D    
H29   O60   S    
O60   S21   S    
C149  H251  S    
C71   S19   S    
C79   C185  A    
O16   S7    D    
C28   C81   S    
C3    C206  A    
C36   H2    S    
C135  C248  A    
C13   N23   S    
O52   S19   D    
C174  N25   S    
C255  H90   S    
O158  S32   D    
C109  O127  S    
C233  C248  A    
C45   C81   S    
H17   O23   S    
C154  N5    S    
C238  C242  A    
H21   O37   S    
C155  H59   S    
H26   O50   S    
C124  C247  A    
C51   S31   S    
O157  S31   S    
C145  H252  S    
O107  Zn16  S    
C107  O125  S    
C207  N25   S    
C131  N15   S    
H25   O47   S    
C137  C220  A    
C188  O154  A    
C162  N13   S    
C96   O114  S    
C65   S14   S    
C53   C88   S    
C191  C208  A    
C152  N3    S    
C213  N30   S    
C68   C129  A    
C72   H212  S    
C257  H113  S    
C60   H236  S    
C156  H63   S    
C232  O74   A    
C153  H50   S    
C5    H181  S    
C64   H205  S    
C56   C92   S    
C153  N4    S    
C111  O129  S    
C26   H184  S    
O133  S1    D    
O37   S14   S    
C33   H192  S    
C5    C241  A    
C16   O86   A    
C29   H187  S    
O31   S13   D    
O139  S23   D    
C69   C86   S    
C26   C33   S    
O72   S26   D    
C169  N19   S    
