data_mof_unit_55059.cif
_audit_creation_date              2012-10-26T19:46:08-0400
_audit_creation_method            fapswitch 2.2
_symmetry_space_group_name_H-M    P1
_symmetry_Int_Tables_number       1
_space_group_crystal_system       triclinic
_cell_length_a                    10.838347
_cell_length_b                    9.521006
_cell_length_c                    15.89205
_cell_angle_alpha                 90.026969
_cell_angle_beta                  90.319682
_cell_angle_gamma                 89.973002
_cell_volume                      1639.90600837

loop_
_atom_site_label
_atom_site_type_symbol
_atom_type_description
_atom_site_fract_x
_atom_site_fract_y
_atom_site_fract_z
_atom_type_partial_charge
C1    C     C_R   0.261943 0.500029 0.499819 0.576596
C2    C     C_R   0.935325 0.623727 0.518250 -0.092779
C3    C     C_R   0.871197 0.499996 0.499856 -0.102817
C4    C     C_R   0.127750 0.500094 0.499629 0.016385
C5    C     C_R   0.423129 0.074399 0.447677 -0.032789
C6    C     C_R   0.423102 0.925595 0.447694 -0.028216
C7    C     C_R   0.499901 0.499970 0.340200 0.521399
C8    C     C_R   0.577005 0.925636 0.552371 0.530029
C9    C     C_R   0.577019 0.074365 0.552361 0.534584
C10   C     C_R   0.737735 0.499981 0.500010 0.563434
C11   C     C_R   0.500212 0.500043 0.659845 0.566144
C12   C     C_3   0.588657 0.384377 0.952124 0.704028
C13   C     C_3   0.548657 0.644779 0.048328 0.166098
C14   C     C_3   0.369112 0.462267 0.047733 0.155138
C15   C     C_3   0.368971 0.475909 0.950217 -0.232599
C16   C     C_3   0.546305 0.646557 0.950040 -0.247949
C17   C     C_1   0.500749 0.500248 0.749458 0.061149
C18   C     C_3   0.499434 0.501045 0.083054 0.011003
C19   C     C_3   0.501652 0.501570 0.917131 0.014476
C20   C     C_3   0.388988 0.820053 0.062901 0.049538
C21   C     C_3   0.405693 0.971078 0.032285 -0.267106
C22   C     C_3   0.283386 0.034195 0.002910 -0.467604
C23   C     C_3   0.588922 0.385797 0.050078 -0.227961
C24   C     C_3   0.181580 0.471318 0.122368 -0.004406
C25   C     C_3   0.088995 0.415305 0.057155 -0.266003
C26   C     C_3   0.980079 0.343110 0.099471 -0.456292
C27   C     C_1   0.501239 0.500733 0.824958 0.053963
C28   C     C_1   0.499822 0.500230 0.175190 0.004145
C29   C     C_1   0.499881 0.499950 0.250647 -0.008431
C30   C     C_R   0.062685 0.376025 0.480685 0.322353
C31   C     C_R   0.062902 0.624193 0.518490 0.321973
C32   C     C_R   0.935105 0.376367 0.481207 -0.091816
Cu1   Cu    Cu3+1 0.500020 0.640660 0.500000 1.083334
Cu2   Cu    Cu3+1 0.500020 0.359340 0.500000 1.083650
F1    F     F_    0.654410 0.855887 0.605004 -0.573252
F2    F     F_    0.654505 0.144120 0.604938 -0.552852
F3    F     F_    0.707893 0.405272 0.923436 -0.600244
F4    F     F_    0.549144 0.253996 0.923827 -0.609282
F5    F     F_    0.121504 0.254728 0.460476 -0.610546
F6    F     F_    0.121952 0.745617 0.538443 -0.585693
H1    H     H_    0.488753 0.731666 0.922985 0.124337
H2    H     H_    0.886908 0.719997 0.533365 0.218160
H3    H     H_    0.361533 0.130452 0.405724 0.177033
H4    H     H_    0.361428 0.869534 0.405793 0.158727
H5    H     H_    0.325518 0.820921 0.117562 0.184281
H6    H     H_    0.343442 0.758018 0.012873 0.169762
H7    H     H_    0.444067 0.036441 0.084159 0.175390
H8    H     H_    0.472010 0.972817 0.979230 0.223678
H9    H     H_    0.242191 0.969267 0.951917 0.172461
H10   H     H_    0.299380 0.141325 0.978013 0.171412
H11   H     H_    0.217797 0.040973 0.056228 0.141575
H12   H     H_    0.307092 0.562670 0.929583 0.140898
H13   H     H_    0.132206 0.543814 0.165415 0.162618
H14   H     H_    0.218762 0.385148 0.162649 0.126140
H15   H     H_    0.054189 0.503864 0.018125 0.196647
H16   H     H_    0.135032 0.338592 0.015052 0.155958
H17   H     H_    0.012759 0.253156 0.138126 0.151937
H18   H     H_    0.915311 0.303094 0.050674 0.202192
H19   H     H_    0.929869 0.418523 0.140223 0.145118
H20   H     H_    0.353851 0.348642 0.062107 0.098316
H21   H     H_    0.648774 0.645474 0.064645 0.146555
H22   H     H_    0.330538 0.378289 0.921924 0.133333
H23   H     H_    0.641072 0.667529 0.926418 0.168355
H24   H     H_    0.684092 0.404926 0.074163 0.116598
H25   H     H_    0.561517 0.280776 0.074425 0.121780
H26   H     H_    0.886487 0.280088 0.466156 0.190813
N1    N     N_R   0.500030 0.852070 0.500020 -0.266099
N2    N     N_R   0.500030 0.147930 0.500020 -0.273257
O1    O     O_R   0.319660 0.618740 0.500000 -0.457017
O2    O     O_3   0.276286 0.549389 0.083089 -0.583936
O3    O     O_R   0.319660 0.381260 0.500000 -0.454100
O4    O     O_R   0.500020 0.618840 0.379440 -0.512999
O5    O     O_R   0.500020 0.381160 0.379440 -0.525810
O6    O     O_R   0.680370 0.618830 0.500010 -0.470604
O7    O     O_R   0.680370 0.381170 0.500010 -0.464755
O8    O     O_R   0.500010 0.618730 0.620560 -0.450689
O9    O     O_R   0.500010 0.381270 0.620560 -0.440875
O10   O     O_3   0.504051 0.766747 0.090739 -0.554720

loop_
_geom_bond_atom_site_label_1
_geom_bond_atom_site_label_2
_ccdc_geom_bond_type
C7    C29   S    
C14   C18   S    
C25   H16   S    
C24   O2    S    
C7    O5    A    
C15   C19   S    
C12   C23   S    
C1    O3    A    
C13   C18   S    
C28   C29   T    
C11   O8    A    
Cu2   O9    S    
C5    C6    A    
C24   H14   S    
C31   F6    S    
C12   F3    S    
C11   O9    A    
Cu1   O4    S    
C11   C17   S    
C8    C9    A    
C9    F2    S    
C16   H23   S    
C19   C27   S    
C26   H19   S    
C20   H5    S    
Cu1   O1    S    
Cu2   O7    S    
C22   H10   S    
C21   H8    S    
C5    H3    S    
C6    H4    S    
C21   C22   S    
C14   O2    S    
C5    N2    A    
C18   C23   S    
C17   C27   T    
C18   C28   S    
C24   C25   S    
Cu2   N2    S    
C7    O4    A    
C24   H13   S    
C1    O1    A    
C2    C31   A    
C8    F1    S    
C10   O7    A    
Cu1   O8    S    
Cu1   Cu2   S    
C15   H12   S    
C26   H18   S    
C22   H9    S    
C23   H24   S    
Cu1   N1    S    
C32   H26   S    
C13   O10   S    
C6    N1    A    
C25   H15   S    
C14   H20   S    
C20   O10   S    
C1    C4    S    
C23   H25   S    
C2    C3    A    
C25   C26   S    
C9    N2    A    
C3    C10   S    
C30   C32   A    
C10   O6    A    
C2    H2    S    
C16   C19   S    
Cu2   O3    S    
C12   C19   S    
C15   H22   S    
C30   F5    S    
C12   F4    S    
C3    C32   A    
C26   H17   S    
C4    C30   A    
C4    C31   A    
Cu2   O5    S    
Cu1   O6    S    
C13   H21   S    
C20   C21   S    
C8    N1    A    
C13   C16   S    
C14   C15   S    
C16   H1    S    
C20   H6    S    
C22   H11   S    
C21   H7    S    
