data_mof_unit_7106.cif
_audit_creation_date              2012-12-11T16:44:12-0500
_audit_creation_method            fapswitch 2.2
_symmetry_space_group_name_H-M    P1
_symmetry_Int_Tables_number       1
_space_group_crystal_system       triclinic
_cell_length_a                    27.185384
_cell_length_b                    7.226195
_cell_length_c                    22.800757
_cell_angle_alpha                 89.999303
_cell_angle_beta                  101.387444
_cell_angle_gamma                 90.00394
_cell_volume                      4390.96348337

loop_
_atom_site_label
_atom_site_type_symbol
_atom_type_description
_atom_site_fract_x
_atom_site_fract_y
_atom_site_fract_z
_atom_type_partial_charge
O1    O     O_R   0.707300 0.594030 0.176840 -0.532535
O2    O     O_R   0.292700 0.405970 0.823160 -0.532943
O3    O     O_R   0.792700 0.094030 0.323160 -0.532113
O4    O     O_R   0.207300 0.905970 0.676840 -0.532943
O5    O     O_R   0.697330 0.262360 0.295660 -0.540592
O6    O     O_R   0.302670 0.737640 0.704340 -0.541680
O7    O     O_R   0.802670 0.762360 0.204340 -0.540208
O8    O     O_R   0.197330 0.237640 0.795660 -0.541581
C1    C     C_R   0.684822 0.432279 0.311806 0.684147
C2    C     C_R   0.315171 0.567811 0.688239 0.686435
C3    C     C_R   0.815174 0.932285 0.188188 0.685741
C4    C     C_R   0.184827 0.067803 0.811758 0.687441
O9    O     O_R   0.701410 0.264250 0.175600 -0.534517
O10   O     O_R   0.298590 0.735750 0.824400 -0.533851
O11   O     O_R   0.798590 0.764250 0.324400 -0.533972
O12   O     O_R   0.201410 0.235750 0.675600 -0.533985
O13   O     O_R   0.796800 0.094950 0.202240 -0.538577
O14   O     O_R   0.203200 0.905050 0.797760 -0.536913
O15   O     O_R   0.703200 0.594950 0.297760 -0.538875
O16   O     O_R   0.296800 0.405050 0.702240 -0.537073
C5    C     C_R   0.689838 0.432460 0.153506 0.681408
C6    C     C_R   0.310170 0.567535 0.846488 0.687221
C7    C     C_R   0.810170 0.932472 0.346488 0.683288
C8    C     C_R   0.189828 0.067525 0.653513 0.682977
O17   O     O_3   0.781290 0.427390 0.258880 -0.372864
O18   O     O_3   0.218710 0.572610 0.741120 -0.373899
O19   O     O_3   0.718710 0.927390 0.241120 -0.374154
O20   O     O_3   0.281290 0.072610 0.758880 -0.373680
V1    V     V_3+5 0.744190 0.152150 0.248350 1.406779
V2    V     V_3+5 0.255810 0.847850 0.751650 1.413515
V3    V     V_3+5 0.755810 0.652150 0.251650 1.408171
V4    V     V_3+5 0.244190 0.347850 0.748350 1.413306
C9    C     C_R   0.154972 0.062672 0.595064 -0.037595
C10   C     C_R   0.845023 0.937306 0.404939 -0.036872
C11   C     C_R   0.345092 0.562735 0.904887 -0.033620
C12   C     C_R   0.655019 0.437210 0.095033 -0.038080
C13   C     C_R   0.139655 0.124914 0.489013 -0.168194
C14   C     C_R   0.860345 0.874931 0.510982 -0.168556
C15   C     C_R   0.360669 0.626200 0.010898 -0.130666
C16   C     C_R   0.639721 0.373865 0.989044 -0.167479
C17   C     C_R   0.172343 0.115803 0.544118 -0.160281
C18   C     C_R   0.827656 0.884071 0.455879 -0.161147
C19   C     C_R   0.327854 0.616838 0.955875 -0.194049
C20   C     C_R   0.672393 0.383372 0.044153 -0.160842
C21   C     C_R   0.104013 0.018930 0.590603 -0.195136
C22   C     C_R   0.895980 0.981088 0.409405 -0.195120
C23   C     C_R   0.396026 0.518353 0.909239 -0.198270
C24   C     C_R   0.604075 0.481283 0.090501 -0.195565
C25   C     C_R   0.069215 0.030140 0.534855 0.069832
C26   C     C_R   0.930781 0.969813 0.465149 0.069653
C27   C     C_R   0.430908 0.529937 0.964904 0.047335
C28   C     C_R   0.569297 0.469678 0.034753 0.070151
C29   C     C_R   0.088166 0.084205 0.483470 0.085132
C30   C     C_R   0.911832 0.915686 0.516530 0.085372
C31   C     C_R   0.412033 0.584821 0.016192 0.140700
C32   C     C_R   0.588243 0.414849 0.983433 0.080411
C33   C     C_R   0.016440 0.991892 0.528611 -0.008435
C34   C     C_R   0.983556 0.008052 0.471393 -0.008419
C35   C     C_R   0.483666 0.491451 0.971219 -0.007991
C36   C     C_R   0.516542 0.508207 0.028452 0.026020
C37   C     C_R   0.004472 0.061421 0.422102 -0.149092
C38   C     C_R   0.995525 0.938481 0.577900 -0.148995
C39   C     C_R   0.495610 0.562504 0.077671 -0.228267
C40   C     C_R   0.504562 0.437329 0.922001 -0.150710
C41   C     C_R   0.055351 0.098578 0.427443 0.169221
C42   C     C_R   0.944649 0.901289 0.572555 0.169198
C43   C     C_R   0.444561 0.599878 0.072051 0.169073
C44   C     C_R   0.555434 0.399958 0.927407 0.168307
H1    H     H_    0.907059 0.018853 0.368232 0.093177
H2    H     H_    0.092930 0.981253 0.631781 0.092985
H3    H     H_    0.592976 0.519427 0.131631 0.092710
H4    H     H_    0.407041 0.479991 0.868072 0.095454
H5    H     H_    0.788529 0.848179 0.452892 0.106072
H6    H     H_    0.211473 0.151640 0.547099 0.109439
H7    H     H_    0.711509 0.347231 0.047196 0.105861
H8    H     H_    0.288774 0.653256 0.952975 0.115268
H9    H     H_    0.155251 0.166742 0.450955 0.118868
H10   H     H_    0.844752 0.833037 0.549036 0.117915
H11   H     H_    0.345529 0.668822 0.049286 0.161260
H12   H     H_    0.655317 0.331467 0.951043 0.117889
H13   H     H_    0.982188 0.076673 0.377823 0.145112
H14   H     H_    0.017812 0.923190 0.622176 0.145191
H15   H     H_    0.517874 0.578356 0.121934 0.124864
H16   H     H_    0.482245 0.421667 0.877747 0.146256
C45   C     C_R   0.869743 0.114893 0.131838 -0.162020
C46   C     C_R   0.123462 0.889253 0.859531 -0.159226
C47   C     C_R   0.630237 0.614887 0.368126 -0.165678
C48   C     C_R   0.376526 0.389280 0.640454 -0.159755
H17   H     H_    0.854675 0.242825 0.145642 0.132837
H18   H     H_    0.133325 0.763008 0.839008 0.139917
H19   H     H_    0.645309 0.742818 0.354321 0.132704
H20   H     H_    0.366667 0.263035 0.660983 0.139964
C49   C     C_R   0.905273 0.125411 0.095259 -0.218075
C50   C     C_R   0.087622 0.879970 0.895812 -0.166954
C51   C     C_R   0.594697 0.625413 0.404692 -0.222470
C52   C     C_R   0.412357 0.380003 0.604161 -0.167339
H21   H     H_    0.916771 0.258964 0.082215 0.124130
H22   H     H_    0.070771 0.747658 0.902221 0.151139
H23   H     H_    0.583198 0.758971 0.417726 0.124332
H24   H     H_    0.429206 0.247695 0.597750 0.151256
C53   C     C_R   0.926388 0.965658 0.075807 0.096156
C54   C     C_R   0.073279 0.039235 0.923418 0.032972
C55   C     C_R   0.573577 0.465664 0.424147 0.095587
C56   C     C_R   0.426696 0.539268 0.576547 0.032870
C57   C     C_R   0.910725 0.792092 0.093468 0.216510
C58   C     C_R   0.096074 0.210390 0.914351 0.215934
C59   C     C_R   0.589240 0.292093 0.406495 0.215874
C60   C     C_R   0.403905 0.710417 0.585617 0.215584
C61   C     C_R   0.874890 0.781182 0.130417 -0.212094
C62   C     C_R   0.131788 0.218681 0.877524 -0.132229
C63   C     C_R   0.625085 0.281175 0.369559 -0.215741
C64   C     C_R   0.368199 0.718703 0.622455 -0.133064
H25   H     H_    0.863232 0.645954 0.142997 0.126820
H26   H     H_    0.149041 0.350774 0.871646 0.138408
H27   H     H_    0.636744 0.145946 0.356988 0.126454
H28   H     H_    0.350948 0.850790 0.628335 0.138217
C65   C     C_R   0.853910 0.942475 0.150042 -0.071877
C66   C     C_R   0.146017 0.058751 0.849727 -0.111264
C67   C     C_R   0.646074 0.442466 0.349937 -0.071905
C68   C     C_R   0.353975 0.558772 0.650262 -0.111071
C69   C     C_R   0.010212 0.889225 0.050154 -0.100011
C70   C     C_R   0.989562 0.115090 0.948672 -0.142988
C71   C     C_R   0.489751 0.389235 0.449805 -0.103141
C72   C     C_R   0.510409 0.615141 0.551277 -0.143237
H29   H     H_    0.019200 0.803136 0.089691 0.130360
H30   H     H_    0.980517 0.199893 0.908854 0.114965
H31   H     H_    0.480760 0.303129 0.410272 0.127788
H32   H     H_    0.519457 0.699958 0.591092 0.115028
C73   C     C_R   0.045546 0.907617 0.013342 -0.166842
C74   C     C_R   0.954244 0.096985 0.985504 -0.156719
C75   C     C_R   0.454419 0.407636 0.486619 -0.167111
C76   C     C_R   0.545724 0.597026 0.514444 -0.156107
H33   H     H_    0.080826 0.833835 0.024767 0.125940
H34   H     H_    0.918874 0.169966 0.973681 0.116336
H35   H     H_    0.419138 0.333842 0.475200 0.124895
H36   H     H_    0.581096 0.670015 0.526262 0.116655
C77   C     C_R   0.035751 0.022040 0.962573 0.077002
C78   C     C_R   0.964054 0.983234 0.036544 0.111288
C79   C     C_R   0.464218 0.522078 0.537384 0.077412
C80   C     C_R   0.535911 0.483253 0.463409 0.111566
N1    N     N_3   0.072528 0.152209 0.374320 -0.674924
H37   H     H_    0.088556 0.283991 0.380782 0.231745
H38   H     H_    0.099644 0.057573 0.366623 0.229780
N2    N     N_3   0.927473 0.847594 0.625675 -0.674592
H39   H     H_    0.911452 0.715803 0.619202 0.231606
H40   H     H_    0.900352 0.942198 0.633378 0.229482
N3    N     N_3   0.425838 0.654896 0.124017 -0.689460
H41   H     H_    0.434317 0.550307 0.156126 0.232994
H42   H     H_    0.444893 0.774672 0.141421 0.234043
N4    N     N_3   0.572613 0.345542 0.874357 -0.673974
H43   H     H_    0.588606 0.213740 0.880987 0.231651
H44   H     H_    0.599758 0.439918 0.866555 0.229572
N5    N     N_3   0.929830 0.626490 0.072100 -0.691538
H45   H     H_    0.899384 0.552604 0.048017 0.223656
H46   H     H_    0.946698 0.548837 0.109335 0.222405
N6    N     N_3   0.085375 0.376173 0.943949 -0.695761
H47   H     H_    0.047782 0.411337 0.928724 0.226000
H48   H     H_    0.091133 0.350493 0.989925 0.238724
N7    N     N_3   0.570124 0.126495 0.427861 -0.691521
H49   H     H_    0.600565 0.052612 0.451952 0.224538
H50   H     H_    0.553261 0.048835 0.390625 0.219172
N8    N     N_3   0.414598 0.876199 0.556010 -0.696424
H51   H     H_    0.452193 0.911378 0.571226 0.226268
H52   H     H_    0.408832 0.850508 0.510034 0.237753

loop_
_geom_bond_atom_site_label_1
_geom_bond_atom_site_label_2
_ccdc_geom_bond_type
O17   V3    S    
C57   N5    S    
C48   C52   A    
O1    C5    A    
C47   H19   S    
O19   V1    S    
C9    C21   A    
C72   C79   A    
O3    C7    A    
N3    H41   S    
C10   C18   A    
C56   C60   A    
O15   V3    S    
C62   C66   A    
C61   C65   A    
C33   C38   A    
C5    C12   S    
O7    C3    A    
C6    C11   S    
C35   C40   A    
C26   C30   A    
C36   C39   A    
C40   C44   A    
O9    V1    S    
N6    H47   S    
N3    H42   S    
C14   C18   A    
C75   H35   S    
N1    H38   S    
C58   C62   A    
O4    C8    A    
C51   H23   S    
C42   N2    S    
C50   H22   S    
O1    V3    S    
O13   V1    S    
C31   C43   A    
C72   C76   A    
O2    V4    S    
O3    V1    S    
C40   H16   S    
C22   H1    S    
C46   C50   A    
C17   H6    S    
C45   C49   A    
C1    O15   A    
C15   C31   A    
C76   C80   A    
C48   H20   S    
C2    O16   A    
C16   C32   A    
C47   C51   A    
O2    C6    A    
N7    H50   S    
C54   C58   A    
C10   C22   A    
N5    H46   S    
C11   C19   A    
C62   H26   S    
C16   C20   A    
N8    H52   S    
C76   H36   S    
C72   H32   S    
C13   C29   A    
C34   C37   A    
O11   C7    A    
C38   H14   S    
C11   C23   A    
C35   C36   A    
O12   C8    A    
C47   C67   A    
C74   H34   S    
O10   V2    S    
C73   C77   A    
C51   C55   A    
O5    V1    S    
C53   C57   A    
C39   C43   A    
O7    V3    S    
C38   C42   A    
O8    V4    S    
C2    C68   S    
N2    H40   S    
C46   H18   S    
C49   C53   A    
C64   C68   A    
C45   H17   S    
O18   V4    S    
C15   C19   A    
C14   H10   S    
C27   C31   A    
C32   C44   A    
C60   N8    S    
C71   C80   A    
C60   C64   A    
C39   H15   S    
C54   C77   S    
C26   C34   A    
C69   C78   A    
C70   H30   S    
C20   H7    S    
O5    C1    A    
C41   N1    S    
C71   H31   S    
N7    H49   S    
C14   C30   A    
C21   C25   A    
O8    C4    A    
C7    C10   S    
C59   N7    S    
C16   H12   S    
O9    C5    A    
C46   C66   A    
C45   C65   A    
C4    C66   S    
C63   C67   A    
O6    V2    S    
C69   H29   S    
C58   N6    S    
C52   C56   A    
C43   N3    S    
O14   V2    S    
C1    C67   S    
C73   H33   S    
C12   C20   A    
C48   C68   A    
C24   H3    S    
C3    C65   S    
C49   H21   S    
C64   H28   S    
C29   C41   A    
N8    H51   S    
O16   V4    S    
C19   H8    S    
C44   N4    S    
C57   C61   A    
C3    O13   A    
C18   H5    S    
C71   C75   A    
C21   H2    S    
C59   C63   A    
C70   C77   A    
C69   C73   A    
N2    H39   S    
O6    C2    A    
C25   C33   A    
C23   C27   A    
C53   C78   S    
O11   V3    S    
C30   C42   A    
C61   H25   S    
O12   V4    S    
C22   C26   A    
C8    C9    S    
C56   C79   S    
C9    C17   A    
O10   C6    A    
N6    H48   S    
C37   H13   S    
C55   C80   S    
C63   H27   S    
C33   C34   A    
C13   H9    S    
C25   C29   A    
C52   H24   S    
O20   V2    S    
C12   C24   A    
N4    H44   S    
C13   C17   A    
C23   H4    S    
C75   C79   A    
C37   C41   A    
C24   C28   A    
C27   C35   A    
C50   C54   A    
C28   C36   A    
C4    O14   A    
N4    H43   S    
C55   C59   A    
N5    H45   S    
N1    H37   S    
C70   C74   A    
O4    V2    S    
C28   C32   A    
C15   H11   S    
C74   C78   A    
