data_mof_unit_17646.cif
_audit_creation_date              2012-12-10T17:32:23-0500
_audit_creation_method            fapswitch 2.2
_symmetry_space_group_name_H-M    P1
_symmetry_Int_Tables_number       1
_space_group_crystal_system       triclinic
_cell_length_a                    15.461506
_cell_length_b                    15.336082
_cell_length_c                    15.506302
_cell_angle_alpha                 91.482882
_cell_angle_beta                  71.824904
_cell_angle_gamma                 110.757222
_cell_volume                      3251.76931626

loop_
_atom_site_label
_atom_site_type_symbol
_atom_type_description
_atom_site_fract_x
_atom_site_fract_y
_atom_site_fract_z
_atom_type_partial_charge
C1    C     C_R   0.462734 0.258168 0.462820 0.494901
C2    C     C_R   0.539112 0.506463 0.109234 -0.132701
C3    C     C_R   0.594619 0.670812 0.134098 -0.127251
C4    C     C_R   0.540267 0.744458 0.531077 0.484789
C5    C     C_R   0.438589 0.415861 0.836212 0.009111
C6    C     C_R   0.439247 0.049372 0.325933 0.011521
C7    C     C_R   0.446679 0.161723 0.441024 0.021924
C8    C     C_R   0.623870 0.900051 0.589567 -0.024212
C9    C     C_R   0.651611 0.998081 0.585353 -0.115900
C10   C     C_R   0.623632 0.047382 0.531486 -0.010406
C11   C     C_R   0.556551 0.995974 0.486825 0.038601
C12   C     C_R   0.420644 0.293796 0.945037 -0.126669
C13   C     C_R   0.546969 0.901970 0.472619 0.006783
C14   C     C_R   0.506011 0.036899 0.448299 0.010573
C15   C     C_R   0.476608 0.999863 0.373005 0.033341
C16   C     C_R   0.756693 0.551241 0.462383 0.487269
C17   C     C_R   0.486177 0.914395 0.347131 -0.149918
C18   C     C_R   0.519780 0.866456 0.396053 -0.120799
C19   C     C_R   0.481895 0.112076 0.485594 -0.150198
C20   C     C_R   0.421754 0.130431 0.362236 0.003884
C21   C     C_R   0.570606 0.849604 0.531317 0.002410
C22   C     C_R   0.010089 0.585350 0.321226 -0.134501
C23   C     C_R   0.457566 0.360958 0.998723 -0.143457
C24   C     C_R   0.860148 0.568149 0.441591 0.023961
C25   C     C_R   0.076144 0.390115 0.645156 -0.127748
C26   C     C_R   0.975231 0.370561 0.672627 0.007141
C27   C     C_R   0.935667 0.399408 0.611623 0.006733
C28   C     C_R   0.242889 0.448977 0.535552 0.491874
C29   C     C_R   0.001458 0.455607 0.527762 0.016560
C30   C     C_R   0.099318 0.458272 0.496723 0.009113
C31   C     C_R   0.974662 0.506790 0.470990 0.023516
C32   C     C_R   0.036871 0.539517 0.379597 0.048366
C33   C     C_R   0.124987 0.525668 0.346653 -0.140915
C34   C     C_R   0.482975 0.456984 0.975395 0.028023
C35   C     C_R   0.156520 0.486882 0.404544 -0.118646
C36   C     C_R   0.890554 0.530306 0.502384 -0.147219
C37   C     C_R   0.920881 0.596963 0.351350 -0.123022
C38   C     C_R   0.137494 0.430256 0.557674 -0.002113
C39   C     C_R   0.552321 0.552670 0.258630 0.492615
C40   C     C_R   0.450267 0.447622 0.741954 0.477500
C41   C     C_R   0.581619 0.693675 0.054272 -0.136608
C42   C     C_R   0.570754 0.577114 0.162937 0.031271
C43   C     C_R   0.412095 0.318691 0.862492 -0.015705
C44   C     C_3   0.426034 0.020447 0.234609 -0.252024
C45   C     C_R   0.467662 0.483740 0.895895 0.019162
C46   C     C_3   0.320630 0.955357 0.247131 -0.293078
C47   C     C_3   0.307397 0.926248 0.155855 -0.459279
C48   C     C_3   0.658033 0.851138 0.650221 -0.230461
C49   C     C_3   0.717370 0.913010 0.707382 -0.331384
C50   C     C_3   0.748468 0.855226 0.762071 -0.450985
C51   C     C_3   0.683004 0.152657 0.509255 -0.255698
C52   C     C_3   0.734740 0.180024 0.406249 -0.290454
C53   C     C_3   0.803381 0.282585 0.386359 -0.442441
C54   C     C_3   0.826578 0.349980 0.625008 -0.262151
C55   C     C_3   0.758057 0.380119 0.705331 -0.306725
C56   C     C_R   0.522455 0.527436 0.028956 0.032114
C57   C     C_3   0.661401 0.366235 0.690020 -0.437314
C58   C     C_3   0.909280 0.319688 0.766722 -0.252185
C59   C     C_3   0.958212 0.286401 0.824872 -0.309456
C60   C     C_3   0.883322 0.233273 0.914805 -0.456736
C61   C     C_3   0.378710 0.243061 0.801045 -0.231122
C62   C     C_3   0.357110 0.141560 0.834524 -0.328382
C63   C     C_3   0.325389 0.073517 0.766932 -0.446171
C64   C     C_3   0.376469 0.184957 0.320042 -0.258441
C65   C     C_3   0.274079 0.175479 0.383280 -0.299845
C66   C     C_3   0.234358 0.239027 0.346162 -0.452271
C67   C     C_R   0.542564 0.622785 0.003354 0.048881
C68   C     C_R   0.518870 0.646404 0.930013 -0.147911
C69   C     C_R   0.480756 0.578085 0.877968 -0.119263
H1    H     H_    0.617448 0.725788 0.176590 0.103571
H2    H     H_    0.356341 0.888216 0.122411 0.149070
H3    H     H_    0.230537 0.879150 0.167126 0.142466
H4    H     H_    0.301626 0.891477 0.292095 0.168141
H5    H     H_    0.269362 0.991222 0.279944 0.162511
H6    H     H_    0.448779 0.082361 0.186092 0.125359
H7    H     H_    0.477586 0.986424 0.197983 0.127289
H8    H     H_    0.492043 0.134233 0.549439 0.094680
H9    H     H_    0.683628 0.799450 0.808330 0.155920
H10   H     H_    0.796517 0.822590 0.715497 0.160149
H11   H     H_    0.789487 0.901325 0.803715 0.139877
H12   H     H_    0.464213 0.880484 0.291479 0.109043
H13   H     H_    0.785060 0.967098 0.661840 0.157824
H14   H     H_    0.672589 0.947659 0.755495 0.155058
H15   H     H_    0.592459 0.797190 0.698486 0.168102
H16   H     H_    0.705760 0.817022 0.605469 0.182102
H17   H     H_    0.836355 0.300998 0.311505 0.148667
H18   H     H_    0.762501 0.328996 0.415513 0.178654
H19   H     H_    0.863302 0.294534 0.415545 0.148460
H20   H     H_    0.777889 0.135201 0.378065 0.161859
H21   H     H_    0.680520 0.169637 0.370362 0.179343
H22   H     H_    0.639540 0.196320 0.538481 0.129766
H23   H     H_    0.530282 0.804770 0.367593 0.154396
H24   H     H_    0.741224 0.172919 0.541444 0.126686
H25   H     H_    0.698461 0.038724 0.622336 0.102053
H26   H     H_    0.897219 0.625070 0.303250 0.112609
H27   H     H_    0.171372 0.547642 0.276366 0.107484
H28   H     H_    0.056394 0.608785 0.251141 0.101994
H29   H     H_    0.108717 0.372599 0.691191 0.130344
H30   H     H_    0.673537 0.408972 0.627700 0.160123
H31   H     H_    0.623021 0.291227 0.683398 0.131928
H32   H     H_    0.614562 0.388362 0.749269 0.162187
H33   H     H_    0.739857 0.336660 0.769086 0.148659
H34   H     H_    0.527996 0.718095 0.913798 0.094442
H35   H     H_    0.793176 0.454415 0.716575 0.164685
H36   H     H_    0.811112 0.357465 0.561123 0.143582
H37   H     H_    0.807348 0.273384 0.636194 0.118122
H38   H     H_    0.846771 0.278962 0.954776 0.152331
H39   H     H_    0.827341 0.170009 0.901830 0.145301
H40   H     H_    0.920701 0.210812 0.955592 0.143070
H41   H     H_    0.993777 0.238892 0.787165 0.161326
H42   H     H_    0.013997 0.347730 0.840844 0.159258
H43   H     H_    0.876688 0.368196 0.806270 0.145212
H44   H     H_    0.850074 0.256611 0.758315 0.139374
H45   H     H_    0.845426 0.515964 0.572483 0.127230
H46   H     H_    0.225699 0.477881 0.375258 0.139034
H47   H     H_    0.597289 0.766463 0.034889 0.097962
H48   H     H_    0.520777 0.435864 0.136186 0.095288
H49   H     H_    0.258857 0.077573 0.756762 0.156033
H50   H     H_    0.384870 0.090025 0.700476 0.153769
H51   H     H_    0.308708 0.000868 0.793641 0.143958
H52   H     H_    0.423851 0.135637 0.842609 0.155919
H53   H     H_    0.297153 0.120793 0.901049 0.157042
H54   H     H_    0.310608 0.245319 0.792869 0.175882
H55   H     H_    0.436533 0.259625 0.733226 0.159332
H56   H     H_    0.464261 0.334370 0.058901 0.094683
H57   H     H_    0.282652 0.313579 0.341388 0.147080
H58   H     H_    0.229425 0.220760 0.277619 0.147958
H59   H     H_    0.160196 0.230166 0.392777 0.145580
H60   H     H_    0.223373 0.101620 0.389812 0.152834
H61   H     H_    0.275422 0.194170 0.452520 0.188800
H62   H     H_    0.425236 0.259944 0.305493 0.153139
H63   H     H_    0.368308 0.162242 0.254032 0.132092
H64   H     H_    0.401797 0.221733 0.968592 0.106050
H65   H     H_    0.459987 0.600303 0.824371 0.133959
H66   H     H_    0.324099 0.988868 0.110252 0.144223
O1    O     O_3   0.500000 0.500000 0.500000 -0.419314
O2    O     O_R   0.588830 0.499590 0.285390 -0.546251
O3    O     O_R   0.395900 0.395880 0.699370 -0.560708
O4    O     O_R   0.493280 0.582590 0.315890 -0.550575
O5    O     O_R   0.521980 0.521940 0.699340 -0.542237
O6    O     O_R   0.708210 0.582550 0.530770 -0.545522
O7    O     O_R   0.270260 0.395900 0.573760 -0.550983
O8    O     O_R   0.537060 0.322180 0.411040 -0.541893
O9    O     O_R   0.484470 0.699370 0.484430 -0.547005
O10   O     O_R   0.404710 0.279110 0.530840 -0.556553
O11   O     O_R   0.573760 0.699350 0.573690 -0.561762
O12   O     O_R   0.714470 0.499570 0.411000 -0.547342
O13   O     O_R   0.307050 0.521980 0.484470 -0.536445
Zn1   Zn    Zn3+2 0.574690 0.574670 0.574650 0.907431
Zn2   Zn    Zn3+2 0.583640 0.456100 0.403530 0.913551
Zn3   Zn    Zn3+2 0.447120 0.574690 0.447120 0.920721
Zn4   Zn    Zn3+2 0.394550 0.394550 0.574700 0.903790

loop_
_geom_bond_atom_site_label_1
_geom_bond_atom_site_label_2
_ccdc_geom_bond_type
C39   O2    A    
C3    C42   A    
C34   C56   A    
C69   H65   S    
C63   H51   S    
O5    Zn1   S    
C27   C29   A    
C11   C13   A    
C52   H21   S    
O13   Zn3   S    
C46   H5    S    
C36   H45   S    
C50   H10   S    
C65   H61   S    
C27   C54   S    
O6    Zn1   S    
C41   C67   A    
C12   C23   A    
C37   H26   S    
C26   C27   A    
C29   C30   A    
C22   C32   A    
C13   C18   A    
C61   H55   S    
C58   H43   S    
O9    Zn3   S    
C31   C36   A    
C11   C14   A    
C57   H30   S    
C59   H41   S    
C66   H58   S    
C30   C38   A    
C44   H7    S    
O7    Zn4   S    
C19   H8    S    
C60   H40   S    
C51   H22   S    
C6    C15   A    
C54   C55   S    
C1    O10   A    
O8    Zn2   S    
C64   H63   S    
C68   C69   A    
C40   O3    A    
C58   H44   S    
C59   H42   S    
C68   H34   S    
C35   H46   S    
C53   H17   S    
C66   H57   S    
C9    C10   A    
C60   H39   S    
C23   H56   S    
C5    C43   A    
C59   C60   S    
C16   C24   S    
C22   H28   S    
C6    C44   S    
C52   H20   S    
C10   C51   S    
C50   H9    S    
O1    Zn4   S    
C2    H48   S    
C44   C46   S    
C24   C37   A    
C39   C42   S    
C39   O4    A    
C28   O13   A    
C54   H37   S    
C45   C69   A    
C67   C68   A    
C3    H1    S    
C63   H49   S    
C8    C9    A    
O3    Zn4   S    
C58   C59   S    
C22   C37   A    
C5    C45   A    
C55   H35   S    
C7    C20   A    
C51   C52   S    
C50   H11   S    
C49   H13   S    
C20   C64   S    
C44   H6    S    
C8    C48   S    
C62   C63   S    
C1    O8    A    
C25   C38   A    
O11   Zn1   S    
C63   H50   S    
O1    Zn2   S    
C31   C32   A    
C55   H33   S    
C64   H62   S    
C28   C38   S    
C23   C34   A    
C4    O11   A    
O12   Zn2   S    
C17   C18   A    
C13   C21   A    
C53   H18   S    
C34   C45   A    
C24   C36   A    
C26   C58   S    
C47   H2    S    
C60   H38   S    
C51   H24   S    
C30   C35   A    
C48   C49   S    
C65   C66   S    
C7    C19   A    
C12   H64   S    
C16   O12   A    
O2    Zn2   S    
C28   O7    A    
C41   H47   S    
C33   H27   S    
C62   H53   S    
O1    Zn3   S    
C57   H32   S    
C52   C53   S    
C43   C61   S    
C15   C17   A    
O1    Zn1   S    
C46   C47   S    
C3    C41   A    
C54   H36   S    
C47   H66   S    
C1    C7    S    
C14   C19   A    
C48   H16   S    
C8    C21   A    
C4    O9    A    
C65   H60   S    
C12   C43   A    
C56   C67   A    
C6    C20   A    
C61   H54   S    
C18   H23   S    
C64   C65   S    
C49   H14   S    
C55   C57   S    
C16   O6    A    
C25   C26   A    
C29   C31   A    
C2    C56   A    
C32   C33   A    
C4    C21   S    
C57   H31   S    
C2    C42   A    
C40   O5    A    
O4    Zn3   S    
C33   C35   A    
C66   H59   S    
C53   H19   S    
C17   H12   S    
C62   H52   S    
C61   C62   S    
C47   H3    S    
O10   Zn4   S    
C10   C11   A    
C48   H15   S    
C25   H29   S    
C49   C50   S    
C5    C40   S    
C14   C15   A    
C9    H25   S    
C46   H4    S    
