data_mof_unit_37173.cif
_audit_creation_date              2012-10-26T21:01:01-0400
_audit_creation_method            fapswitch 2.2
_symmetry_space_group_name_H-M    P1
_symmetry_Int_Tables_number       1
_space_group_crystal_system       triclinic
_cell_length_a                    10.918894
_cell_length_b                    10.840481
_cell_length_c                    9.594714
_cell_angle_alpha                 90.524156
_cell_angle_beta                  87.090382
_cell_angle_gamma                 90.947061
_cell_volume                      1134.0302451

loop_
_atom_site_label
_atom_site_type_symbol
_atom_type_description
_atom_site_fract_x
_atom_site_fract_y
_atom_site_fract_z
_atom_type_partial_charge
C1    C     C_R   0.497080 0.262587 0.499456 0.540647
C2    C     C_R   0.408825 0.444026 0.081259 0.006113
C3    C     C_R   0.408526 0.441066 0.933096 0.110478
C4    C     C_R   0.265764 0.505752 0.503715 0.550895
C5    C     C_R   0.601482 0.537688 0.921221 0.153822
C6    C     C_3   0.666113 0.659085 0.912433 -0.282178
C7    C     C_3   0.665663 0.660161 0.070903 -0.279923
C8    C     C_R   0.498351 0.737739 0.500406 0.544165
C9    C     C_R   0.734087 0.497870 0.496387 0.569152
C10   C     C_2   0.938640 0.574298 0.431564 -0.009415
C11   C     C_2   0.865162 0.481267 0.483952 0.036681
C12   C     C_R   0.483931 0.129565 0.498327 0.005225
C13   C     C_2   0.070934 0.557257 0.409436 -0.159291
C14   C     C_2   0.134880 0.523264 0.516680 -0.137275
C15   C     C_R   0.470893 0.065400 0.623416 0.013418
C16   C     C_3   0.891002 0.701850 0.401199 -0.270737
C17   C     C_3   0.864277 0.775532 0.535486 -0.438926
C18   C     C_3   0.306803 0.363655 0.874367 -0.243216
C19   C     C_3   0.183342 0.427471 0.893826 -0.444079
C20   C     C_3   0.906600 0.349368 0.504899 -0.289673
C21   C     C_3   0.889866 0.311308 0.657692 -0.442553
C22   C     C_R   0.480188 0.063133 0.372102 -0.166027
C23   C     C_R   0.481420 0.934467 0.373006 -0.165269
C24   C     C_R   0.486551 0.871098 0.500079 0.006458
C25   C     C_R   0.472208 0.938369 0.624594 0.023968
C26   C     C_3   0.544676 0.937992 0.752482 -0.277386
C27   C     C_3   0.542330 0.077589 0.751163 -0.265066
C28   C     C_R   0.601349 0.538065 0.067787 0.152926
Cu1   Cu    Cu3+1 0.499990 0.499980 0.640670 0.913242
Cu2   Cu    Cu3+1 0.500010 0.500020 0.359330 0.919508
H1    H     H_    0.634371 0.120962 0.730432 0.136095
H2    H     H_    0.484364 0.885600 0.274014 0.128703
H3    H     H_    0.490841 0.898771 0.843489 0.131373
H4    H     H_    0.638427 0.901245 0.731979 0.125125
H5    H     H_    0.487171 0.117773 0.840459 0.131356
H6    H     H_    0.790229 0.730548 0.601266 0.158920
H7    H     H_    0.948252 0.784035 0.595832 0.150881
H8    H     H_    0.834021 0.869458 0.509262 0.131436
H9    H     H_    0.960481 0.754370 0.335852 0.135789
H10   H     H_    0.807261 0.695702 0.340845 0.155064
H11   H     H_    0.188187 0.521276 0.848298 0.172001
H12   H     H_    0.335674 0.398893 0.142807 0.126343
H13   H     H_    0.112652 0.371765 0.841795 0.125894
H14   H     H_    0.155236 0.435532 0.006368 0.128220
H15   H     H_    0.324432 0.336082 0.765345 0.211875
H16   H     H_    0.300146 0.274357 0.930685 0.087944
H17   H     H_    0.928091 0.383160 0.726882 0.144263
H18   H     H_    0.791055 0.297418 0.687427 0.170132
H19   H     H_    0.937373 0.223122 0.673505 0.127691
H20   H     H_    0.850445 0.285944 0.441341 0.136022
H21   H     H_    0.002672 0.333466 0.467533 0.146809
H22   H     H_    0.759432 0.652176 0.861301 0.122606
H23   H     H_    0.607594 0.729987 0.870462 0.142941
H24   H     H_    0.759215 0.653241 0.110052 0.115418
H25   H     H_    0.608148 0.733817 0.120133 0.141182
H26   H     H_    0.115692 0.579708 0.308912 0.136977
H27   H     H_    0.089317 0.512180 0.619171 0.109665
H28   H     H_    0.482886 0.109918 0.272700 0.132250
N1    N     N_R   0.500780 0.500930 0.147930 -0.245365
N2    N     N_R   0.500780 0.500890 0.852020 -0.228180
O1    O     O_R   0.500000 0.319640 0.618810 -0.522869
O2    O     O_R   0.500010 0.319680 0.381230 -0.506944
O3    O     O_R   0.321940 0.499980 0.618760 -0.513951
O4    O     O_R   0.321950 0.500020 0.381180 -0.505150
O5    O     O_R   0.499990 0.680320 0.618770 -0.498875
O6    O     O_R   0.500000 0.680360 0.381190 -0.508787
O7    O     O_R   0.678050 0.499980 0.618820 -0.503976
O8    O     O_R   0.678060 0.500020 0.381240 -0.504564

loop_
_geom_bond_atom_site_label_1
_geom_bond_atom_site_label_2
_ccdc_geom_bond_type
C22   H28   S    
C20   H20   S    
C23   C24   A    
Cu1   O3    S    
C24   C25   A    
C8    O6    A    
C6    C7    S    
C17   H6    S    
Cu2   O4    S    
C5    C28   A    
C4    O4    A    
C26   H3    S    
C15   C27   S    
C7    H24   S    
Cu1   N2    S    
C7    H25   S    
Cu1   Cu2   S    
C13   H26   S    
C6    H22   S    
C23   H2    S    
C21   H18   S    
C21   H19   S    
C2    C3    A    
C9    O8    A    
C8    O5    A    
C10   C16   S    
C13   C14   D    
C3    N2    A    
C12   C15   A    
C9    C11   S    
C4    O3    A    
C26   C27   S    
Cu2   O6    S    
C1    C12   S    
C1    O2    A    
C9    O7    A    
C2    H12   S    
Cu1   O5    S    
C18   H16   S    
C8    C24   S    
C16   H10   S    
C20   H21   S    
C17   H8    S    
Cu2   O2    S    
C4    C14   S    
C5    C6    S    
Cu1   O1    S    
C11   C20   S    
C15   C25   A    
C10   C11   D    
C16   H9    S    
C27   H1    S    
C18   H15   S    
C12   C22   A    
C19   H14   S    
C3    C18   S    
C20   C21   S    
C18   C19   S    
Cu2   N1    S    
C28   N1    A    
C14   H27   S    
C22   C23   A    
C17   H7    S    
C6    H23   S    
C5    N2    A    
C27   H5    S    
C25   C26   S    
Cu1   O7    S    
C2    N1    A    
C26   H4    S    
Cu2   O8    S    
C7    C28   S    
C19   H11   S    
C19   H13   S    
C16   C17   S    
C21   H17   S    
C10   C13   S    
C1    O1    A    
