data_mof_unit_17266.cif
_audit_creation_date              2012-12-10T18:13:50-0500
_audit_creation_method            fapswitch 2.2
_symmetry_space_group_name_H-M    P1
_symmetry_Int_Tables_number       1
_space_group_crystal_system       triclinic
_cell_length_a                    10.728094
_cell_length_b                    9.402887
_cell_length_c                    23.52202
_cell_angle_alpha                 89.768611
_cell_angle_beta                  90.022791
_cell_angle_gamma                 90.010325
_cell_volume                      2372.76550052

loop_
_atom_site_label
_atom_site_type_symbol
_atom_type_description
_atom_site_fract_x
_atom_site_fract_y
_atom_site_fract_z
_atom_type_partial_charge
C1    C     C_R   0.259616 0.500194 0.500063 0.765675
C2    C     C_R   0.287139 0.576220 0.970828 -0.164910
C3    C     C_R   0.287706 0.575083 0.030140 -0.165244
C4    C     C_R   0.394563 0.532031 0.060147 -0.014931
C5    C     C_R   0.501336 0.488853 0.029978 -0.019558
C6    C     C_R   0.608855 0.445117 0.059651 -0.015421
C7    C     C_R   0.714598 0.401489 0.029144 -0.174649
C8    C     C_R   0.713912 0.402190 0.969833 -0.166377
C9    C     C_R   0.397818 0.531641 0.119742 0.545307
C10   C     C_R   0.608129 0.447740 0.119254 0.495835
C11   C     C_R   0.509458 0.370281 0.239699 -0.123269
C12   C     C_R   0.500188 0.500229 0.390917 0.811736
C13   C     C_R   0.507040 0.371122 0.298765 -0.229787
C14   C     C_R   0.501989 0.500258 0.328330 -0.053429
C15   C     C_R   0.499885 0.628881 0.297690 -0.272194
C16   C     C_R   0.503214 0.629166 0.238065 0.049543
C17   C     C_R   0.506992 0.497915 0.208953 0.322709
C18   C     C_R   0.503056 0.367121 0.760813 -0.102708
C19   C     C_R   0.503037 0.368600 0.701566 -0.228645
C20   C     C_R   0.499792 0.498406 0.671709 -0.043721
C21   C     C_R   0.496399 0.626581 0.702224 -0.229787
C22   C     C_R   0.496249 0.624758 0.761519 -0.102275
C23   C     C_R   0.740143 0.500209 0.500049 0.766025
C24   C     C_R   0.499676 0.495074 0.790993 0.359891
C25   C     C_3   0.071239 0.655844 0.500691 -0.377044
C26   C     C_3   0.071853 0.422081 0.553485 -0.376053
C27   C     C_3   0.928570 0.655855 0.500711 -0.376874
C28   C     C_3   0.927956 0.422061 0.553474 -0.375709
C29   C     C_3   0.071765 0.425625 0.446169 -0.377630
C30   C     C_3   0.121687 0.500905 0.500104 0.158987
C31   C     C_3   0.878070 0.500926 0.500098 0.158072
C32   C     C_3   0.927882 0.425675 0.446157 -0.376173
C33   C     C_3   0.610158 0.083602 0.531731 -0.188100
C34   C     C_3   0.610174 0.915890 0.531713 -0.187921
C35   C     C_3   0.387821 0.083545 0.529681 -0.188437
C36   C     C_3   0.387796 0.915900 0.529656 -0.187841
C37   C     C_3   0.502812 0.084117 0.442740 -0.185658
C38   C     C_3   0.502810 0.916872 0.442740 -0.186554
C39   C     C_R   0.499887 0.499667 0.609126 0.803804
C40   C     C_R   0.604966 0.449360 0.880183 0.530441
C41   C     C_R   0.395143 0.534841 0.880663 0.531219
C42   C     C_R   0.393332 0.534024 0.940303 -0.014402
C43   C     C_R   0.500659 0.489648 0.969982 -0.019152
C44   C     C_R   0.607443 0.446481 0.939808 -0.013423
Cu1   Cu    Cu3+1 0.499860 0.642410 0.500030 0.893550
Cu2   Cu    Cu3+1 0.499860 0.357590 0.500030 0.893865
H1    H     H_    0.203367 0.610496 0.949021 0.189634
H2    H     H_    0.505651 0.268155 0.679219 0.146157
H3    H     H_    0.493836 0.728131 0.680357 0.145897
H4    H     H_    0.493941 0.724078 0.784638 0.139066
H5    H     H_    0.105300 0.715263 0.462699 0.160942
H6    H     H_    0.106174 0.310366 0.554207 0.160331
H7    H     H_    0.105425 0.712645 0.539120 0.160560
H8    H     H_    0.106733 0.474789 0.592682 0.158477
H9    H     H_    0.894536 0.712569 0.539172 0.160203
H10   H     H_    0.893121 0.474710 0.592677 0.158498
H11   H     H_    0.894404 0.715359 0.462751 0.161855
H12   H     H_    0.893630 0.310334 0.554173 0.160429
H13   H     H_    0.106616 0.480865 0.407363 0.156446
H14   H     H_    0.106061 0.313974 0.444654 0.161474
H15   H     H_    0.893040 0.480985 0.407356 0.157538
H16   H     H_    0.893493 0.314048 0.444613 0.162173
H17   H     H_    0.612064 0.122894 0.576259 0.138765
H18   H     H_    0.612193 0.875667 0.576233 0.139613
H19   H     H_    0.204412 0.608685 0.052352 0.188449
H20   H     H_    0.697738 0.121098 0.511401 0.138896
H21   H     H_    0.697698 0.878976 0.511326 0.138088
H22   H     H_    0.382024 0.122932 0.574129 0.138858
H23   H     H_    0.381848 0.875543 0.574086 0.139412
H24   H     H_    0.420535 0.122862 0.418381 0.138208
H25   H     H_    0.420560 0.878460 0.418391 0.136822
H26   H     H_    0.587006 0.123155 0.419885 0.139578
H27   H     H_    0.586969 0.878207 0.419890 0.139814
H28   H     H_    0.302083 0.120902 0.507712 0.138784
H29   H     H_    0.302125 0.879132 0.507614 0.138013
H30   H     H_    0.798370 0.367250 0.050961 0.188889
H31   H     H_    0.797144 0.368343 0.947633 0.189876
H32   H     H_    0.512472 0.269826 0.217586 0.145723
H33   H     H_    0.508966 0.270351 0.321208 0.146848
H34   H     H_    0.497012 0.729350 0.320074 0.142776
H35   H     H_    0.505389 0.266520 0.783362 0.138879
N1    N     N_R   0.499965 0.493205 0.851962 -0.470051
N2    N     N_R   0.504266 0.492475 0.147943 -0.469345
N3    N     N_3   0.500250 0.143650 0.501250 -0.111680
N4    N     N_3   0.500250 0.856350 0.501250 -0.111403
O1    O     O_R   0.317570 0.620260 0.500030 -0.596291
O2    O     O_R   0.317570 0.379740 0.500030 -0.595731
O3    O     O_R   0.499840 0.620290 0.417900 -0.592176
O4    O     O_R   0.499840 0.379710 0.417900 -0.592983
O5    O     O_R   0.682190 0.620260 0.500010 -0.595820
O6    O     O_R   0.682190 0.379740 0.500010 -0.595392
O7    O     O_R   0.499920 0.620230 0.582140 -0.589229
O8    O     O_R   0.499920 0.379770 0.582140 -0.589033
O9    O     O_2   0.706910 0.409860 0.850597 -0.538092
O10   O     O_2   0.292813 0.575906 0.851534 -0.537802
O11   O     O_2   0.295563 0.569962 0.149351 -0.543513
O12   O     O_2   0.710867 0.407964 0.148366 -0.546822
C45   C     C_R   0.502098 0.766749 0.206989 0.115659
C46   C     C_R   0.594940 0.798738 0.166735 -0.157790
C47   C     C_R   0.591146 0.926768 0.136337 -0.114225
C48   C     C_R   0.495261 0.024165 0.146051 -0.101246
C49   C     C_R   0.403602 0.994250 0.186580 -0.153445
C50   C     C_R   0.407072 0.866376 0.217116 -0.108461
H36   H     H_    0.670474 0.725017 0.159041 0.154306
H37   H     H_    0.662622 0.950508 0.105252 0.143159
H38   H     H_    0.492365 0.123154 0.122409 0.133907
H39   H     H_    0.329690 0.070112 0.194261 0.139086
H40   H     H_    0.334654 0.844027 0.247956 0.129661

loop_
_geom_bond_atom_site_label_1
_geom_bond_atom_site_label_2
_ccdc_geom_bond_type
C1    O2    A    
C13   H33   S    
C35   H28   S    
C48   C49   A    
C41   C42   A    
C19   C20   A    
C15   H34   S    
C21   H3    S    
C28   H10   S    
C7    C8    A    
Cu2   O4    S    
Cu1   Cu2   S    
C47   H37   S    
C37   C38   S    
C18   C24   A    
C1    C30   S    
C36   H29   S    
C25   H7    S    
C32   H15   S    
C29   C32   S    
C5    C6    A    
C27   H9    S    
C15   C16   A    
C10   N2    A    
C25   C30   S    
C18   H35   S    
C18   C19   A    
Cu1   O7    S    
C24   N1    S    
C39   O8    A    
C29   H13   S    
C16   C17   A    
C37   N3    S    
C50   H40   S    
C13   C14   A    
C22   H4    S    
C46   H36   S    
C5    C43   A    
C21   C22   A    
C3    H19   S    
C26   H8    S    
C33   H20   S    
C28   C31   S    
C12   O3    A    
C38   N4    S    
C27   C31   S    
C40   N1    A    
C12   O4    A    
Cu1   O3    S    
C27   H11   S    
C20   C39   S    
C19   H2    S    
Cu2   O6    S    
C17   N2    S    
C35   C36   S    
C23   C31   S    
C10   O12   S    
Cu1   N4    S    
C43   C44   A    
C25   H5    S    
C29   C30   S    
C11   H32   S    
C26   H6    S    
C46   C47   A    
C29   H14   S    
C40   C44   A    
C33   H17   S    
C34   H18   S    
C33   C34   S    
C23   O5    A    
C49   H39   S    
Cu1   O5    S    
C9    O11   S    
C7    H30   S    
C9    N2    A    
Cu2   N3    S    
C12   C14   S    
C26   C30   S    
C8    H31   S    
C2    H1    S    
C22   C24   A    
C42   C43   A    
C3    C4    A    
C39   O7    A    
C36   H23   S    
Cu2   O2    S    
C48   H38   S    
C38   H25   S    
C11   C17   A    
C31   C32   S    
C8    C44   A    
C40   O9    S    
C4    C5    A    
C34   H21   S    
C6    C10   A    
C35   N3    S    
C6    C7    A    
C28   H12   S    
C36   N4    S    
C25   C27   S    
C26   C28   S    
Cu1   O1    S    
C32   H16   S    
C11   C13   A    
C16   C45   S    
C41   O10   S    
Cu2   O8    S    
C35   H22   S    
C2    C42   A    
C41   N1    A    
C47   C48   A    
C2    C3    A    
C23   O6    A    
C49   C50   A    
C33   N3    S    
C1    O1    A    
C20   C21   A    
C45   C46   A    
C37   H26   S    
C14   C15   A    
C4    C9    A    
C37   H24   S    
C34   N4    S    
C45   C50   A    
C38   H27   S    
