data_mof_unit_40209.cif
_audit_creation_date              2012-12-10T16:57:50-0500
_audit_creation_method            fapswitch 2.2
_symmetry_space_group_name_H-M    P1
_symmetry_Int_Tables_number       1
_space_group_crystal_system       triclinic
_cell_length_a                    10.631932
_cell_length_b                    10.896347
_cell_length_c                    9.698931
_cell_angle_alpha                 89.326908
_cell_angle_beta                  90.296952
_cell_angle_gamma                 90.161569
_cell_volume                      1123.51669504

loop_
_atom_site_label
_atom_site_type_symbol
_atom_type_description
_atom_site_fract_x
_atom_site_fract_y
_atom_site_fract_z
_atom_type_partial_charge
C1    C     C_R   0.496644 0.265218 0.500942 0.865372
C2    C     C_3   0.958258 0.597058 0.427061 -0.144389
C3    C     C_3   0.039645 0.492326 0.369013 -0.157375
C4    C     C_3   0.122620 0.499014 0.498797 -0.014441
C5    C     C_2   0.435709 0.935302 0.399056 0.005390
C6    C     C_2   0.496375 0.867421 0.496156 -0.400696
C7    C     C_2   0.457230 0.068758 0.392515 -0.220637
C8    C     C_2   0.483148 0.133198 0.505844 -0.354341
C9    C     C_2   0.426950 0.429621 0.922586 -0.059000
C10   C     C_2   0.425809 0.430729 0.078271 -0.061419
C11   C     C_R   0.259413 0.499582 0.499584 0.821433
C12   C     C_R   0.495907 0.734678 0.499025 0.900004
C13   C     C_R   0.740677 0.500466 0.500417 0.787520
C14   C     C_3   0.041083 0.403340 0.572420 0.031441
C15   C     C_3   0.956460 0.395414 0.443252 -0.207560
C16   C     C_3   0.877537 0.500305 0.501347 0.013137
C17   C     C_3   0.960026 0.507119 0.631635 -0.187254
C18   C     C_3   0.043191 0.603663 0.556829 -0.154098
Cu1   Cu    Cu3+1 0.500030 0.500020 0.638630 0.952610
Cu2   Cu    Cu3+1 0.499970 0.499980 0.361370 0.958414
H1    H     H_    0.917968 0.310176 0.397480 0.135887
H2    H     H_    0.484883 0.090218 0.607306 0.163168
H3    H     H_    0.363022 0.366826 0.871629 0.165547
H4    H     H_    0.558558 0.559486 0.893461 0.194484
H5    H     H_    0.359699 0.369996 0.130004 0.145317
H6    H     H_    0.562477 0.555534 0.105691 0.194449
H7    H     H_    0.923611 0.514531 0.738247 0.137661
H8    H     H_    0.081772 0.688848 0.602623 0.149625
H9    H     H_    0.921138 0.676796 0.367475 0.133083
H10   H     H_    0.074659 0.486485 0.261650 0.140707
H11   H     H_    0.557945 0.909415 0.571646 0.145417
H12   H     H_    0.444634 0.115683 0.293928 0.198855
N1    N     N_2   0.498620 0.498660 0.846910 -0.282153
N2    N     N_2   0.498590 0.498630 0.153040 -0.277142
O1    O     O_R   0.500020 0.321960 0.617040 -0.574044
O2    O     O_R   0.499980 0.321920 0.382900 -0.579055
O3    O     O_R   0.316870 0.499990 0.617050 -0.579248
O4    O     O_R   0.316830 0.499950 0.382910 -0.572039
O5    O     O_R   0.500020 0.678080 0.617100 -0.580821
O6    O     O_R   0.499980 0.678040 0.382960 -0.550984
O7    O     O_R   0.683170 0.500050 0.617090 -0.585233
O8    O     O_R   0.683130 0.500010 0.382950 -0.582776
C19   C     C_R   0.092385 0.293741 0.649759 0.111612
C20   C     C_R   0.088545 0.287741 0.794449 -0.147848
C21   C     C_R   0.137389 0.185685 0.864985 -0.150318
C22   C     C_R   0.189487 0.088750 0.791716 -0.100294
C23   C     C_R   0.193351 0.093979 0.647811 -0.136373
C24   C     C_R   0.146213 0.196601 0.576946 -0.159422
H13   H     H_    0.049076 0.362032 0.853081 0.117425
H14   H     H_    0.134850 0.181772 0.976508 0.137775
H15   H     H_    0.226849 0.009629 0.846420 0.154471
H16   H     H_    0.233167 0.018574 0.591224 0.149078
H17   H     H_    0.150994 0.200038 0.465441 0.121837
C25   C     C_2   0.344287 0.882077 0.299117 0.863921
O9    O     O_2   0.331407 0.928946 0.184730 -0.630089
O10   O     O_R   0.268729 0.782262 0.337781 -0.773038
H18   H     H_    0.209480 0.755638 0.261469 0.326445

loop_
_geom_bond_atom_site_label_1
_geom_bond_atom_site_label_2
_ccdc_geom_bond_type
C20   H13   S    
C12   O6    A    
C11   O4    A    
Cu2   O8    S    
C19   C20   A    
C23   H16   S    
C2    C18   S    
C1    C8    S    
C2    C16   S    
C19   C24   A    
Cu1   Cu2   S    
C8    H2    S    
H4    N1    S    
C14   C15   S    
C4    C18   S    
C14   C19   S    
C12   O5    A    
C13   O7    A    
C17   C18   S    
C18   H8    S    
C7    C8    D    
C10   N2    D    
Cu1   O1    S    
C21   C22   A    
C20   C21   A    
C4    C11   S    
C9    N1    D    
C14   C17   S    
C1    O1    A    
C24   H17   S    
Cu1   O5    S    
C21   H14   S    
C2    H9    S    
C3    H10   S    
C13   O8    A    
C2    C3    S    
C4    C14   S    
C5    C6    D    
Cu2   O6    S    
C25   O10   S    
Cu2   N2    S    
C17   H7    S    
C6    C12   S    
Cu1   O7    S    
C5    C25   S    
C15   H1    S    
Cu2   O4    S    
O10   H18   S    
C10   H5    S    
C11   O3    A    
C9    C10   S    
C13   C16   S    
C5    C7    S    
C22   C23   A    
C9    H3    S    
C3    C15   S    
C6    H11   S    
C7    H12   S    
Cu1   O3    S    
C25   O9    D    
C22   H15   S    
H6    N2    S    
C3    C4    S    
C15   C16   S    
C1    O2    A    
Cu1   N1    S    
C16   C17   S    
C23   C24   A    
Cu2   O2    S    
