data_mof_unit_40691.cif
_audit_creation_date              2012-12-11T14:17:43-0500
_audit_creation_method            fapswitch 2.2
_symmetry_space_group_name_H-M    P1
_symmetry_Int_Tables_number       1
_space_group_crystal_system       triclinic
_cell_length_a                    6.945292
_cell_length_b                    13.636978
_cell_length_c                    20.417373
_cell_angle_alpha                 102.082741
_cell_angle_beta                  89.787851
_cell_angle_gamma                 90.874665
_cell_volume                      1890.72540294

loop_
_atom_site_label
_atom_site_type_symbol
_atom_type_description
_atom_site_fract_x
_atom_site_fract_y
_atom_site_fract_z
_atom_type_partial_charge
O1    O     O_R   0.506860 0.599390 0.449240 -0.542436
O2    O     O_R   0.180220 0.594600 0.586780 -0.550482
O3    O     O_R   0.004500 0.400610 0.550760 -0.544776
C1    C     C_R   0.348463 0.611795 0.614662 0.640060
O4    O     O_R   0.177490 0.611290 0.451970 -0.543529
O5    O     O_R   0.001750 0.417420 0.414990 -0.543373
C2    C     C_R   0.347373 0.637947 0.435253 0.685138
O6    O     O_R   0.509610 0.582580 0.585010 -0.502810
O7    O     O_3   0.337420 0.436370 0.488020 -0.379480
V1    V     V_3+5 0.064680 0.511800 0.502220 1.451885
O8    O     O_R   0.671710 0.405400 0.413220 -0.551997
C3    C     C_R   0.839799 0.384088 0.386524 0.723735
O9    O     O_R   0.674440 0.388710 0.548030 -0.530953
C4    C     C_R   0.842041 0.361948 0.564756 0.743436
V2    V     V_3+5 0.564010 0.488200 0.497780 1.472211
O10   O     O_3   0.841140 0.563630 0.511980 -0.364697
C5    C     C_R   0.792839 0.112272 0.613362 -0.156006
H1    H     H_    0.780233 0.163145 0.520944 0.103503
H2    H     H_    0.774479 0.987731 0.697014 0.126980
H3    H     H_    0.762776 0.035057 0.588961 0.112172
C6    C     C_R   0.845229 0.284444 0.604525 -0.048581
C7    C     C_R   0.896785 0.314734 0.927614 -0.179036
C8    C     C_R   0.906987 0.390402 0.891521 -0.091504
C9    C     C_R   0.892071 0.367647 0.821940 -0.116652
C10   C     C_R   0.865818 0.267344 0.786372 0.060402
C11   C     C_R   0.850304 0.190313 0.823932 0.069275
C12   C     C_R   0.852632 0.241056 0.714960 0.062198
C13   C     C_R   0.815931 0.139368 0.683135 0.143937
C14   C     C_R   0.800953 0.065474 0.721051 -0.206029
C15   C     C_R   0.819529 0.090205 0.790223 -0.197919
C16   C     C_R   0.872984 0.312159 0.673799 -0.180519
C17   C     C_R   0.803964 0.184738 0.574484 -0.186401
C18   C     C_R   0.867663 0.215030 0.894657 -0.075492
H4    H     H_    0.906550 0.389995 0.693906 0.149303
H5    H     H_    0.912171 0.333938 0.981612 0.105539
H6    H     H_    0.900278 0.430529 0.797707 0.160274
H7    H     H_    0.927991 0.467498 0.917669 0.137831
H8    H     H_    0.807412 0.029911 0.817143 0.121199
C19   C     C_2   0.005274 0.288878 0.284943 -0.134010
C20   C     C_2   0.842123 0.315777 0.319746 -0.307378
H9    H     H_    0.142544 0.317450 0.306851 0.132631
H10   H     H_    0.703369 0.287722 0.299470 0.125650
C21   C     C_2   0.013561 0.220866 0.217332 -0.133154
C22   C     C_2   0.858471 0.183214 0.180368 -0.306699
H11   H     H_    0.156444 0.201927 0.197275 0.131919
H12   H     H_    0.714302 0.201339 0.198858 0.125720
C23   C     C_2   0.209698 0.784816 0.783768 -0.051524
C24   C     C_2   0.365663 0.829076 0.816305 -0.233865
H13   H     H_    0.069015 0.795917 0.807309 0.163131
H14   H     H_    0.502993 0.823644 0.790476 0.182106
C25   C     C_2   0.219603 0.728909 0.712988 -0.228195
C26   C     C_2   0.357054 0.662228 0.686382 0.255273
H15   H     H_    0.103266 0.743227 0.680986 0.134207
C27   C     C_R   0.417033 0.886599 0.386680 -0.158000
H16   H     H_    0.414492 0.836314 0.479463 0.101617
H17   H     H_    0.447988 0.010777 0.303147 0.121319
H18   H     H_    0.446243 0.963790 0.411331 0.111435
C28   C     C_R   0.360370 0.714665 0.395063 -0.029334
C29   C     C_R   0.316776 0.686041 0.071834 -0.156193
C30   C     C_R   0.297458 0.610577 0.107804 -0.117761
C31   C     C_R   0.312246 0.632741 0.177405 -0.158691
C32   C     C_R   0.347471 0.732235 0.213152 0.078221
C33   C     C_R   0.368766 0.809196 0.175791 0.065804
C34   C     C_R   0.362120 0.757942 0.284559 0.071997
C35   C     C_R   0.399487 0.859469 0.316696 0.141850
C36   C     C_R   0.419805 0.933276 0.278924 -0.202464
C37   C     C_R   0.404366 0.908791 0.209670 -0.195232
C38   C     C_R   0.341674 0.686507 0.325453 -0.214573
C39   C     C_R   0.398616 0.814446 0.425580 -0.175267
C40   C     C_R   0.352675 0.784977 0.105047 -0.081124
H19   H     H_    0.313129 0.608217 0.305052 0.093249
H20   H     H_    0.303233 0.667297 0.017767 0.125555
H21   H     H_    0.295261 0.570090 0.201503 0.107471
H22   H     H_    0.269956 0.534092 0.081533 0.121632
H23   H     H_    0.421084 0.968994 0.182849 0.116791
O11   O     O_R   0.203230 0.917310 0.915020 -0.542696
O12   O     O_R   0.535500 0.888690 0.048040 -0.538207
O13   O     O_R   0.711080 0.082610 0.085000 -0.547160
C41   C     C_R   0.365681 0.862209 0.064920 0.698946
O14   O     O_R   0.532630 0.905370 0.913230 -0.536576
O15   O     O_R   0.708190 0.099410 0.949230 -0.542562
C42   C     C_R   0.364787 0.887129 0.885813 0.739964
O16   O     O_R   0.206120 0.900510 0.050790 -0.538355
O17   O     O_3   0.375360 0.063570 0.011990 -0.378306
V3    V     V_3+5 0.648170 0.988200 0.997780 1.449692
O18   O     O_R   0.038240 0.111390 0.951940 -0.542526
C43   C     C_R   0.870756 0.137546 0.934783 0.683856
O19   O     O_R   0.041120 0.094710 0.086750 -0.543725
C44   C     C_R   0.872476 0.115710 0.113533 0.738204
V4    V     V_3+5 0.148810 0.011930 0.002180 1.431730
O20   O     O_3   0.871750 0.936430 0.988010 -0.366030
S1    S     S_3+6 0.531225 0.616008 0.735754 -0.007873
O21   O     O_2   0.713496 0.677505 0.738437 -0.344093
O22   O     O_2   0.459816 0.619506 0.805798 -0.331963
O23   O     O_3   0.581303 0.496489 0.700170 -0.504090
H24   H     H_    0.459181 0.458774 0.702258 0.321248

loop_
_geom_bond_atom_site_label_1
_geom_bond_atom_site_label_2
_ccdc_geom_bond_type
O23   H24   S    
C1    O6    A    
V3    O20   S    
C23   H13   S    
C27   C35   A    
C7    H5    S    
C6    C16   A    
C32   C33   A    
C1    C26   S    
C34   C38   A    
C4    C6    S    
C13   C14   A    
O5    C3    A    
V2    O10   S    
C5    H3    S    
C15   H8    S    
C30   H22   S    
O16   V4    S    
C32   C34   A    
O8    V2    S    
C8    C9    A    
O1    V2    S    
C14   C15   A    
O7    V1    S    
C2    C28   S    
C29   H20   S    
C20   H10   S    
C36   C37   A    
O12   V3    S    
C29   C30   A    
O9    C4    A    
O17   V4    S    
C22   H12   S    
O12   C41   A    
O13   C44   A    
C6    C17   A    
C33   C37   A    
C12   C16   A    
C25   C26   D    
C9    C10   A    
O14   C42   A    
O18   V4    S    
O11   C42   A    
C19   C20   D    
O4    C2    A    
O18   C43   A    
C23   C25   S    
C31   H21   S    
C10   C11   A    
C8    H7    S    
S1    O23   S    
C30   C31   A    
C25   H15   S    
C3    C20   S    
O2    C1    A    
C21   C22   D    
O14   V3    S    
C11   C18   A    
C23   C24   D    
C33   C40   A    
S1    O22   D    
C16   H4    S    
C9    H6    S    
O17   V3    S    
C21   H11   S    
O15   C43   A    
O3    C4    A    
O13   V3    S    
C28   C38   A    
O19   V4    S    
C11   C15   A    
O6    V2    S    
O9    V2    S    
C26   S1    S    
C37   H23   S    
O2    V1    S    
C7    C18   A    
C40   C41   S    
O1    C2    A    
C5    C13   A    
O5    V1    S    
C19   C21   S    
O8    C3    A    
C28   C39   A    
C10   C12   A    
C34   C35   A    
H16   C39   S    
O7    V2    S    
O4    V1    S    
O3    V1    S    
V1    O10   S    
C41   O16   A    
V4    O20   S    
C27   C39   A    
C38   H19   S    
H17   C36   S    
C24   H14   S    
S1    O21   D    
C24   C42   S    
C18   C43   S    
C31   C32   A    
C29   C40   A    
H1    C17   S    
O19   C44   A    
C19   H9    S    
C35   C36   A    
C12   C13   A    
C5    C17   A    
C7    C8    A    
O15   V3    S    
C22   C44   S    
O11   V4    S    
C27   H18   S    
H2    C14   S    
