data_mof_unit_60521.cif
_audit_creation_date              2012-12-10T18:14:19-0500
_audit_creation_method            fapswitch 2.2
_symmetry_space_group_name_H-M    P1
_symmetry_Int_Tables_number       1
_space_group_crystal_system       triclinic
_cell_length_a                    12.691397
_cell_length_b                    13.105628
_cell_length_c                    18.950065
_cell_angle_alpha                 94.911174
_cell_angle_beta                  102.40232
_cell_angle_gamma                 82.102096
_cell_volume                      3044.05390265

loop_
_atom_site_label
_atom_site_type_symbol
_atom_type_description
_atom_site_fract_x
_atom_site_fract_y
_atom_site_fract_z
_atom_type_partial_charge
C1    C     C_R   0.440949 0.687037 0.479468 0.932628
C2    C     C_R   0.499072 0.513861 0.710581 -0.448586
C3    C     C_R   0.445202 0.592325 0.067666 0.438898
C4    C     C_R   0.451273 0.579055 0.925621 0.421240
C5    C     C_R   0.367852 0.552242 0.170323 0.561289
C6    C     C_R   0.381999 0.524791 0.241151 0.536250
C7    C     C_R   0.483697 0.527085 0.288814 -0.546642
C8    C     C_R   0.570051 0.559461 0.264067 0.571096
C9    C     C_R   0.555937 0.585963 0.192991 0.547514
C10   C     C_R   0.455169 0.580969 0.145117 -0.424700
C11   C     C_R   0.731299 0.047810 0.530519 0.761884
C12   C     C_R   0.501288 0.500726 0.634384 0.997949
C13   C     C_R   0.596256 0.197704 0.508969 -0.381164
C14   C     C_R   0.297230 0.828447 0.429420 0.029191
C15   C     C_R   0.266617 0.934241 0.440973 0.098394
C16   C     C_R   0.346807 0.000121 0.463557 0.697876
C17   C     C_R   0.457575 0.963386 0.463292 -0.082888
C18   C     C_R   0.487110 0.856753 0.452499 -0.234501
C19   C     C_R   0.541599 0.027559 0.479284 -0.178243
C20   C     C_R   0.651687 0.984460 0.497099 -0.357900
C21   C     C_R   0.678714 0.880847 0.476947 0.689510
C22   C     C_R   0.596169 0.820527 0.447978 0.610311
C23   C     C_R   0.560489 0.308517 0.508739 0.940472
C24   C     C_R   0.520089 0.133087 0.473558 0.732141
C25   C     C_R   0.701862 0.153968 0.541798 0.015791
C26   C     C_R   0.407787 0.789679 0.449524 -0.180928
C27   C     C_R   0.109113 0.314765 0.420614 0.595443
C28   C     C_R   0.800291 0.627324 0.591112 0.628843
C29   C     C_R   0.906605 0.629819 0.628767 0.489715
C30   C     C_R   0.989918 0.564556 0.605455 0.517954
C31   C     C_R   0.968941 0.505272 0.539561 -0.182365
C32   C     C_R   0.858893 0.488083 0.511051 -0.069076
C33   C     C_R   0.052926 0.455551 0.503942 -0.082908
C34   C     C_R   0.496183 0.505358 0.365172 1.007985
C35   C     C_R   0.034201 0.363591 0.461412 -0.320319
C36   C     C_R   0.936297 0.325896 0.454946 0.688253
C37   C     C_R   0.844721 0.394088 0.464546 0.155820
C38   C     C_R   0.150825 0.496236 0.503417 0.250490
C39   C     C_R   0.202157 0.358153 0.421594 0.707925
C40   C     C_R   0.455148 0.442250 0.743439 0.051257
C41   C     C_R   0.438603 0.464480 0.813634 0.623019
C42   C     C_R   0.465483 0.557943 0.851131 -0.358169
C43   C     C_R   0.511908 0.627694 0.818425 0.563112
C44   C     C_R   0.528727 0.605595 0.748507 0.575513
N1    N     N_R   0.521670 0.632531 0.973826 -0.051356
N2    N     N_R   0.518656 0.639042 0.043662 -0.042515
N3    N     N_R   0.371898 0.542739 0.018891 -0.045149
N4    N     N_R   0.374651 0.536458 0.949100 -0.042303
N5    N     N_R   0.222200 0.444680 0.463280 -0.251565
N6    N     N_R   0.776960 0.554780 0.536340 -0.178697
O1    O     O_R   0.366740 0.627160 0.482470 -0.612023
O2    O     O_R   0.544830 0.662520 0.505920 -0.521516
O3    O     O_R   0.410920 0.482320 0.590130 -0.606615
O4    O     O_R   0.589010 0.517690 0.613590 -0.545813
O5    O     O_R   0.455170 0.337480 0.494080 -0.521721
O6    O     O_R   0.633260 0.372840 0.517530 -0.633999
O7    O     O_R   0.410990 0.482310 0.386410 -0.525365
O8    O     O_R   0.589080 0.517680 0.409870 -0.526120
Zn1   Zn    Zn3+2 0.381090 0.476390 0.484340 1.119433
Zn2   Zn    Zn3+2 0.618910 0.523610 0.515660 1.120599
I1    I     I_    0.416356 0.297805 0.690570 -0.023732
F1    F     F_    0.783815 0.839538 0.480688 -0.555420
F2    F     F_    0.835757 0.006472 0.554746 -0.532532
F3    F     F_    0.431115 0.171111 0.425142 -0.536121
I2    I     I_    0.182135 0.732679 0.368619 -0.045503
F4    F     F_    0.315920 0.097282 0.488856 -0.590484
I3    I     I_    0.100942 0.995698 0.433173 0.183936
F5    F     F_    0.622738 0.728085 0.414038 -0.584052
F6    F     F_    0.273326 0.314317 0.380627 -0.496121
F7    F     F_    0.927576 0.226373 0.429099 -0.556862
F8    F     F_    0.089155 0.230101 0.375673 -0.510480
F9    F     F_    0.398941 0.393436 0.845667 -0.561171
I4    I     I_    0.181773 0.645686 0.552585 -0.044095
F10   F     F_    0.718683 0.686841 0.616265 -0.534475
F11   F     F_    0.087487 0.548988 0.651940 -0.562935
F12   F     F_    0.928080 0.690341 0.690612 -0.500602
I5    I     I_    0.718869 0.334098 0.383219 -0.037154
F13   F     F_    0.537734 0.718766 0.853112 -0.533035
F14   F     F_    0.568489 0.676447 0.716365 -0.523435
F15   F     F_    0.268350 0.549840 0.126303 -0.527073
F16   F     F_    0.295169 0.496433 0.262463 -0.522845
F17   F     F_    0.669054 0.565232 0.308011 -0.516792
F18   F     F_    0.642864 0.612402 0.170754 -0.531582
I6    I     I_    0.819798 0.239412 0.609766 -0.082082

loop_
_geom_bond_atom_site_label_1
_geom_bond_atom_site_label_2
_ccdc_geom_bond_type
O5    Zn1   S    
C41   C42   A    
C19   C20   A    
C18   C26   A    
C2    C12   S    
O3    Zn1   S    
C23   O6    A    
C38   N5    A    
O4    Zn2   S    
N1    N2    A    
C43   F13   S    
C8    F17   S    
C28   C29   A    
C11   F2    S    
C5    C6    A    
O7    Zn1   S    
C11   C25   A    
O8    Zn2   S    
C15   C16   A    
C13   C23   S    
O2    Zn2   S    
C17   C19   A    
C28   N6    A    
C31   C32   A    
C2    C44   A    
C8    C9    A    
C25   I6    S    
C31   C33   A    
C9    C10   A    
C12   O3    A    
C28   F10   S    
C24   F3    S    
C6    F16   S    
C21   C22   A    
C13   C25   A    
C36   F7    S    
C4    N1    A    
C11   C20   A    
C7    C8    A    
C27   C39   A    
C29   F12   S    
C16   C17   A    
C27   C35   A    
C37   I5    S    
C40   I1    S    
O6    Zn2   S    
C13   C24   A    
C35   C36   A    
C43   C44   A    
C29   C30   A    
C34   O7    A    
N3    N4    A    
C15   I3    S    
C17   C18   A    
C39   F6    S    
C32   C37   A    
C14   C26   A    
C5    F15   S    
C1    O1    A    
C22   F5    S    
C21   F1    S    
C9    F18   S    
C41   F9    S    
C40   C41   A    
C39   N5    A    
C1    C26   S    
C7    C34   S    
C16   F4    S    
C42   C43   A    
C27   F8    S    
C4    N4    A    
C36   C37   A    
C18   C22   A    
C44   F14   S    
C23   O5    A    
C6    C7    A    
C3    N2    A    
C33   C38   A    
N5    Zn1   S    
N6    Zn2   S    
C19   C24   A    
C5    C10   A    
C3    C10   S    
C30   F11   S    
C30   C31   A    
C4    C42   S    
C3    N3    A    
C33   C35   A    
C14   I2    S    
C32   N6    A    
C1    O2    A    
C2    C40   A    
O1    Zn1   S    
C20   C21   A    
C34   O8    A    
C14   C15   A    
C12   O4    A    
C38   I4    S    
