data_mof_unit_39303.cif
_audit_creation_date              2012-12-11T17:35:14-0500
_audit_creation_method            fapswitch 2.2
_symmetry_space_group_name_H-M    P1
_symmetry_Int_Tables_number       1
_space_group_crystal_system       triclinic
_cell_length_a                    24.324237
_cell_length_b                    7.167515
_cell_length_c                    21.963781
_cell_angle_alpha                 90.01263
_cell_angle_beta                  99.687038
_cell_angle_gamma                 90.003049
_cell_volume                      3774.66137296

loop_
_atom_site_label
_atom_site_type_symbol
_atom_type_description
_atom_site_fract_x
_atom_site_fract_y
_atom_site_fract_z
_atom_type_partial_charge
O1    O     O_R   0.801940 0.607920 0.199180 -0.535999
O2    O     O_R   0.198060 0.392080 0.800820 -0.536005
O3    O     O_R   0.698060 0.107920 0.300820 -0.535995
O4    O     O_R   0.301940 0.892080 0.699180 -0.535997
O5    O     O_R   0.687840 0.274940 0.181980 -0.531818
O6    O     O_R   0.312160 0.725060 0.818020 -0.531819
O7    O     O_R   0.812160 0.774940 0.318020 -0.531826
O8    O     O_R   0.187840 0.225060 0.681980 -0.531838
C1    C     C_R   0.667881 0.446527 0.166957 0.698145
C2    C     C_R   0.332119 0.553473 0.833042 0.698153
C3    C     C_R   0.832136 0.946557 0.333018 0.698048
C4    C     C_R   0.167862 0.053443 0.666984 0.698099
O9    O     O_R   0.800890 0.278000 0.191820 -0.543856
O10   O     O_R   0.199110 0.722000 0.808180 -0.543855
O11   O     O_R   0.699110 0.778000 0.308180 -0.543820
O12   O     O_R   0.300890 0.222000 0.691820 -0.543819
O13   O     O_R   0.811910 0.110860 0.310720 -0.537475
O14   O     O_R   0.188090 0.889140 0.689280 -0.537488
O15   O     O_R   0.688090 0.610860 0.189280 -0.537417
O16   O     O_R   0.311910 0.389140 0.810720 -0.537416
C5    C     C_R   0.818522 0.446827 0.178677 0.676432
C6    C     C_R   0.181478 0.553173 0.821324 0.676399
C7    C     C_R   0.681480 0.946847 0.321324 0.676500
C8    C     C_R   0.318520 0.053153 0.678676 0.676498
O17   O     O_3   0.753490 0.442410 0.289000 -0.370878
O18   O     O_3   0.246510 0.557590 0.711000 -0.370880
O19   O     O_3   0.746510 0.942410 0.211000 -0.370877
O20   O     O_3   0.253490 0.057590 0.789000 -0.370868
V1    V     V_3+5 0.749350 0.166330 0.242770 1.399195
V2    V     V_3+5 0.250650 0.833670 0.757230 1.399194
V3    V     V_3+5 0.750650 0.666330 0.257230 1.399205
V4    V     V_3+5 0.249350 0.333670 0.742770 1.399188
C9    C     C_R   0.422212 0.192947 0.573905 -0.135736
C10   C     C_R   0.577787 0.807053 0.426094 -0.135734
C11   C     C_R   0.077856 0.693001 0.926195 -0.135786
C12   C     C_R   0.922199 0.306993 0.073871 -0.135767
H1    H     H_    0.437863 0.319939 0.556235 0.105250
H2    H     H_    0.562136 0.680060 0.443763 0.105250
H3    H     H_    0.062264 0.819984 0.943948 0.105260
H4    H     H_    0.937832 0.180004 0.056167 0.105251
C13   C     C_R   0.382240 0.204824 0.613038 -0.172652
C14   C     C_R   0.617760 0.795175 0.386961 -0.172655
C15   C     C_R   0.117828 0.704882 0.887059 -0.172634
C16   C     C_R   0.882225 0.295111 0.113004 -0.172640
H5    H     H_    0.368153 0.341520 0.624717 0.122668
H6    H     H_    0.631846 0.658480 0.375282 0.122664
H7    H     H_    0.131973 0.841573 0.875463 0.122704
H8    H     H_    0.868119 0.158414 0.124647 0.122673
C17   C     C_R   0.360922 0.042223 0.636733 -0.052744
C18   C     C_R   0.639078 0.957777 0.363268 -0.052741
C19   C     C_R   0.139073 0.542283 0.863264 -0.052764
C20   C     C_R   0.860929 0.457717 0.136738 -0.052775
C21   C     C_R   0.381153 0.867838 0.620399 -0.169244
C22   C     C_R   0.618848 0.132162 0.379602 -0.169240
C23   C     C_R   0.118769 0.367915 0.879496 -0.169236
C24   C     C_R   0.881185 0.632095 0.120450 -0.169200
H9    H     H_    0.366242 0.739309 0.637779 0.128499
H10   H     H_    0.633760 0.260691 0.362223 0.128497
H11   H     H_    0.133620 0.239395 0.862034 0.128477
H12   H     H_    0.866295 0.760622 0.137864 0.128469
C25   C     C_R   0.421064 0.856469 0.581350 -0.140700
C26   C     C_R   0.578937 0.143531 0.418652 -0.140707
C27   C     C_R   0.078860 0.356543 0.918546 -0.140585
C28   C     C_R   0.921096 0.643468 0.081403 -0.140617
H13   H     H_    0.435770 0.720632 0.569543 0.104926
H14   H     H_    0.564232 0.279368 0.430460 0.104926
H15   H     H_    0.064100 0.220711 0.930271 0.104917
H16   H     H_    0.935818 0.779307 0.069631 0.104920
C29   C     C_R   0.441750 0.018706 0.557753 0.133410
C30   C     C_R   0.558251 0.981294 0.442247 0.133412
C31   C     C_R   0.058249 0.518764 0.942247 0.133393
C32   C     C_R   0.941759 0.481238 0.057762 0.133389
C33   C     C_1   0.482847 0.005778 0.517026 -0.061556
C34   C     C_1   0.517154 0.994222 0.482974 -0.061556
C35   C     C_1   0.017156 0.505805 0.982978 -0.061547
C36   C     C_1   0.982853 0.494197 0.017032 -0.061543
C37   C     C_R   0.935519 0.013202 0.365141 0.094737
C38   C     C_R   0.064482 0.986756 0.634856 0.094752
C39   C     C_R   0.564434 0.511952 0.134894 0.094716
C40   C     C_R   0.435567 0.488046 0.865105 0.094717
C41   C     C_R   0.883251 0.957629 0.380247 -0.088343
C42   C     C_R   0.116747 0.042374 0.619754 -0.088311
C43   C     C_R   0.616771 0.457506 0.119718 -0.088094
C44   C     C_R   0.383230 0.542496 0.880281 -0.088087
C45   C     C_R   0.878713 0.917607 0.441554 -0.247494
C46   C     C_R   0.121281 0.082469 0.558450 -0.247512
C47   C     C_R   0.621380 0.418694 0.058341 -0.247566
C48   C     C_R   0.378621 0.581317 0.941657 -0.247564
C49   C     C_R   0.924654 0.935299 0.489051 0.104824
C50   C     C_R   0.075339 0.064783 0.510953 0.104823
C51   C     C_R   0.575430 0.436486 0.010857 0.104911
C52   C     C_R   0.424571 0.563528 0.989142 0.104909
C53   C     C_R   0.976827 0.991172 0.475562 0.029157
C54   C     C_R   0.023168 0.008882 0.524441 0.029171
C55   C     C_R   0.523177 0.491115 0.024430 0.029194
C56   C     C_R   0.476825 0.508895 0.975569 0.029197
C57   C     C_R   0.982783 0.029037 0.413466 0.080905
C58   C     C_R   0.017213 0.971004 0.586535 0.080844
C59   C     C_R   0.517153 0.527685 0.086590 0.080784
C60   C     C_R   0.482848 0.472324 0.913409 0.080773
C61   C     C_R   0.918787 0.899443 0.550216 -0.178311
C62   C     C_R   0.081201 0.100705 0.449790 -0.178323
C63   C     C_R   0.581363 0.401952 0.949626 -0.178297
C64   C     C_R   0.418639 0.598072 0.050372 -0.178299
C65   C     C_R   0.964034 0.917559 0.598148 -0.189164
C66   C     C_R   0.035955 0.082578 0.401857 -0.189160
C67   C     C_R   0.536105 0.420148 0.901714 -0.189235
C68   C     C_R   0.463897 0.579876 0.098284 -0.189228
H17   H     H_    0.838588 0.875853 0.452414 0.117097
H18   H     H_    0.161403 0.124265 0.547592 0.117108
H19   H     H_    0.661560 0.377853 0.047420 0.116949
H20   H     H_    0.338442 0.622161 0.952578 0.116949
H21   H     H_    0.878768 0.857625 0.561217 0.124397
H22   H     H_    0.121216 0.142588 0.438791 0.124400
H23   H     H_    0.621441 0.361119 0.938557 0.124397
H24   H     H_    0.378562 0.638914 0.061441 0.124397
H25   H     H_    0.956182 0.889356 0.644175 0.136762
H26   H     H_    0.043799 0.110875 0.355833 0.136761
H27   H     H_    0.544007 0.393031 0.855637 0.136774
H28   H     H_    0.455996 0.607008 0.144360 0.136767
C69   C     C_3   0.940704 0.049678 0.297853 -0.372016
C70   C     C_3   0.963972 0.879256 0.269094 -0.757580
H29   H     H_    0.005808 0.841545 0.294651 0.230738
H30   H     H_    0.935417 0.758466 0.269658 0.227055
H31   H     H_    0.967654 0.910031 0.220385 0.216348
H32   H     H_    0.900131 0.084407 0.269101 0.182144
H33   H     H_    0.966731 0.174535 0.293638 0.172868
C71   C     C_3   0.059308 0.950130 0.702139 -0.372069
C72   C     C_3   0.036143 0.120601 0.730973 -0.757657
H34   H     H_    0.064783 0.241189 0.730485 0.227032
H35   H     H_    0.994340 0.158690 0.705415 0.230776
H36   H     H_    0.032421 0.089671 0.779661 0.216350
H37   H     H_    0.033221 0.825409 0.706326 0.172883
H38   H     H_    0.099872 0.915082 0.730854 0.182224
C73   C     C_3   0.559222 0.547549 0.202226 -0.372199
C74   C     C_3   0.536311 0.376241 0.230837 -0.757276
H39   H     H_    0.494585 0.337580 0.205197 0.230683
H40   H     H_    0.565154 0.256275 0.230236 0.227128
H41   H     H_    0.532499 0.406492 0.279549 0.216352
H42   H     H_    0.599747 0.583032 0.230966 0.181889
H43   H     H_    0.532950 0.671687 0.206586 0.172931
C75   C     C_3   0.440778 0.452433 0.797774 -0.372202
C76   C     C_3   0.463676 0.623750 0.769155 -0.757287
H44   H     H_    0.434812 0.743670 0.769727 0.227120
H45   H     H_    0.505390 0.662502 0.794809 0.230692
H46   H     H_    0.467513 0.593461 0.720452 0.216356
H47   H     H_    0.467057 0.328310 0.793418 0.172931
H48   H     H_    0.400254 0.416915 0.769038 0.181894

loop_
_geom_bond_atom_site_label_1
_geom_bond_atom_site_label_2
_ccdc_geom_bond_type
O17   V3    S    
C76   H46   S    
C43   C47   A    
O1    C5    A    
C53   C54   A    
C23   H11   S    
O19   V1    S    
O13   V1    S    
C33   C34   T    
C68   H28   S    
O3    C7    A    
C55   C56   A    
C10   C14   A    
O1    V3    S    
C32   C36   S    
O15   V3    S    
C71   C72   S    
O4    V2    S    
C73   C74   S    
C3    C41   S    
O7    C3    A    
C59   C68   A    
O5    C1    A    
C18   C22   A    
C58   C65   A    
C28   H16   S    
C39   C59   A    
C46   H18   S    
C69   H33   S    
C45   H17   S    
O16   V4    S    
O4    C8    A    
C55   C59   A    
C47   H19   S    
C54   C58   A    
C25   C29   A    
C76   H44   S    
C52   C56   A    
C61   H21   S    
C26   C30   A    
O2    V4    S    
C14   H6    S    
C67   H27   S    
O3    V1    S    
C30   C34   S    
C50   C62   A    
C64   H24   S    
C21   C25   A    
C1    O15   A    
C12   C32   A    
C48   C52   A    
C2    O16   A    
C23   C27   A    
C38   C58   A    
C24   C28   A    
C37   C57   A    
O14   V2    S    
C11   C15   A    
C10   C30   A    
C9    C29   A    
C72   H36   S    
C16   C20   A    
O11   C7    A    
C11   C31   A    
O12   C8    A    
C66   H26   S    
C65   H25   S    
O10   V2    S    
C74   H41   S    
C13   C17   A    
C50   C54   A    
O5    V1    S    
C61   C65   A    
C73   H42   S    
C27   H15   S    
C31   C35   S    
O7    V3    S    
C47   C51   A    
C26   H14   S    
C4    C42   S    
C40   C44   A    
O8    V4    S    
C75   H48   S    
C12   H4    S    
C74   H40   S    
C46   C50   A    
C45   C49   A    
O18   V4    S    
C7    C18   S    
C22   C26   A    
C42   C46   A    
C9    H1    S    
C24   H12   S    
C11   H3    S    
C35   C36   T    
O2    C6    A    
C63   H23   S    
C62   H22   S    
C71   H38   S    
C38   C42   A    
C37   C41   A    
O8    C4    A    
O9    C5    A    
C29   C33   S    
C69   C70   S    
C27   C31   A    
C1    C43   S    
C57   C66   A    
O6    V2    S    
C14   C18   A    
C40   C75   S    
C12   C16   A    
C70   H30   S    
C53   C57   A    
C64   C68   A    
C72   H34   S    
C22   H10   S    
O9    V1    S    
C8    C17   S    
C76   H45   S    
C3    O13   A    
C60   C67   A    
C21   H9    S    
C49   C61   A    
C10   H2    S    
C75   H47   S    
C44   C48   A    
C51   C63   A    
C74   H39   S    
O6    C2    A    
O11   V3    S    
O12   V4    S    
C39   C73   S    
C9    C13   A    
O10   C6    A    
C70   H31   S    
O20   V2    S    
C69   H32   S    
C16   H8    S    
C71   H37   S    
C39   C43   A    
C15   C19   A    
C17   C21   A    
C56   C60   A    
C2    C44   S    
C62   C66   A    
C19   C23   A    
C28   C32   A    
C49   C53   A    
C41   C45   A    
C37   C69   S    
C38   C71   S    
C52   C64   A    
C51   C55   A    
C48   H20   S    
C25   H13   S    
C73   H43   S    
C4    O14   A    
C13   H5    S    
C75   C76   S    
C63   C67   A    
C70   H29   S    
C15   H7    S    
C5    C20   S    
C40   C60   A    
C20   C24   A    
C6    C19   S    
C72   H35   S    
