data_mof_unit_20760.cif
_audit_creation_date              2012-12-10T17:16:36-0500
_audit_creation_method            fapswitch 2.2
_symmetry_space_group_name_H-M    P1
_symmetry_Int_Tables_number       1
_space_group_crystal_system       triclinic
_cell_length_a                    10.126191
_cell_length_b                    10.629016
_cell_length_c                    10.808982
_cell_angle_alpha                 90.877233
_cell_angle_beta                  95.892325
_cell_angle_gamma                 78.66885
_cell_volume                      1134.66867796

loop_
_atom_site_label
_atom_site_type_symbol
_atom_type_description
_atom_site_fract_x
_atom_site_fract_y
_atom_site_fract_z
_atom_type_partial_charge
C1    C     C_R   0.443009 0.512112 0.266957 0.841962
C2    C     C_R   0.556664 0.495608 0.733058 0.848628
C3    C     C_2   0.409565 0.532190 0.134873 0.510563
C4    C     C_2   0.588929 0.505498 0.865435 0.520105
C5    C     C_2   0.509262 0.544684 0.066927 -0.160284
C6    C     C_2   0.487116 0.548701 0.934026 -0.218379
C7    C     C_2   0.073648 0.489780 0.489040 0.551711
C8    C     C_2   0.926333 0.510268 0.510922 0.548597
C9    C     C_R   0.507766 0.258489 0.512811 0.951707
C10   C     C_R   0.492473 0.741705 0.488059 0.926333
C11   C     C_R   0.744388 0.061925 0.438606 -0.209769
C12   C     C_R   0.257302 0.937954 0.565737 -0.216504
C13   C     C_R   0.821892 0.987183 0.354731 0.306183
C14   C     C_R   0.180064 0.012871 0.649683 0.300305
C15   C     C_R   0.773991 0.885429 0.294347 0.296844
C16   C     C_R   0.227636 0.115269 0.709102 0.293986
C17   C     C_R   0.654315 0.853507 0.326001 0.534798
C18   C     C_R   0.346822 0.147519 0.676596 0.539144
C19   C     C_R   0.581835 0.922805 0.419269 -0.101208
C20   C     C_R   0.419252 0.077679 0.583566 -0.109530
C21   C     C_R   0.617226 0.036810 0.463711 -0.057636
C22   C     C_R   0.384079 0.963315 0.539663 -0.055099
C23   C     C_R   0.476840 0.879356 0.471089 -0.035160
C24   C     C_R   0.524026 0.121032 0.531423 -0.041266
H1    H     H_    0.788791 0.135277 0.487439 0.238712
H2    H     H_    0.212579 0.864561 0.517425 0.239810
H3    H     H_    0.383450 0.578619 0.892150 0.221260
H4    H     H_    0.611998 0.542360 0.109057 0.245637
H5    H     H_    0.881305 0.384090 0.383342 0.201801
H6    H     H_    0.118713 0.615879 0.616692 0.199042
N1    N     N_2   0.157300 0.551390 0.551120 -0.207772
N2    N     N_2   0.842700 0.448610 0.448880 -0.207508
O1    O     O_R   0.568940 0.489660 0.307530 -0.630019
O2    O     O_R   0.431060 0.510340 0.692470 -0.624566
O3    O     O_R   0.348880 0.522640 0.340350 -0.520648
O4    O     O_R   0.651120 0.477360 0.659650 -0.524140
O5    O     O_R   0.610030 0.300280 0.483580 -0.651700
O6    O     O_R   0.389970 0.699720 0.516420 -0.660822
O7    O     O_R   0.389970 0.333270 0.516400 -0.527811
O8    O     O_R   0.610030 0.666730 0.483600 -0.532043
Zn1   Zn    Zn3+2 0.646940 0.477980 0.478080 1.099648
Zn2   Zn    Zn3+2 0.353060 0.522020 0.521920 1.100245
Cl1   Cl    Cl    0.137109 0.207235 0.821090 -0.328301
Cl2   Cl    Cl    0.864559 0.793908 0.182117 -0.347353
Cl3   Cl    Cl    0.976917 0.025644 0.324769 -0.461942
Cl4   Cl    Cl    0.025493 0.974074 0.680632 -0.464363
F1    F     F_    0.605914 0.758308 0.262093 -0.650903
F2    F     F_    0.394760 0.243681 0.739413 -0.621098
F3    F     F_    0.718996 0.468205 0.917191 -0.565131
F4    F     F_    0.280738 0.534973 0.082727 -0.561647
F5    F     F_    0.879190 0.595894 0.598435 -0.614252
F6    F     F_    0.120774 0.404194 0.401491 -0.610167

loop_
_geom_bond_atom_site_label_1
_geom_bond_atom_site_label_2
_ccdc_geom_bond_type
C15   Cl2   S    
C19   C23   A    
N2    Zn1   S    
C9    C24   S    
N1    Zn2   S    
C10   C23   S    
O7    Zn2   S    
C5    H4    S    
C17   F1    S    
C2    C4    S    
C6    H3    S    
O2    Zn2   S    
C4    F3    S    
C10   O6    A    
O1    Zn1   S    
C2    O2    A    
C9    O5    A    
C1    O1    A    
C7    C8    S    
C14   Cl4   S    
C12   H2    S    
C13   Cl3   S    
C11   C13   A    
C8    F5    S    
O4    Zn1   S    
C5    C6    S    
C16   C18   A    
O8    Zn1   S    
C19   C21   A    
C3    F4    S    
C20   C22   A    
C7    F6    S    
O6    Zn2   S    
H5    N2    S    
C18   C20   A    
C13   C15   A    
O5    Zn1   S    
H6    N1    S    
C14   C16   A    
C16   Cl1   S    
C7    N1    D    
C11   H1    S    
C8    N2    D    
C12   C22   A    
C9    O7    A    
C1    O3    A    
C4    C6    D    
C21   C24   A    
C2    O4    A    
C1    C3    S    
C15   C17   A    
O3    Zn2   S    
C22   C23   A    
C10   O8    A    
C17   C19   A    
C11   C21   A    
C20   C24   A    
C12   C14   A    
C3    C5    D    
C18   F2    S    
