data_mof_unit_36653.cif
_audit_creation_date              2012-12-10T17:49:34-0500
_audit_creation_method            fapswitch 2.2
_symmetry_space_group_name_H-M    P1
_symmetry_Int_Tables_number       1
_space_group_crystal_system       triclinic
_cell_length_a                    10.541229
_cell_length_b                    10.681571
_cell_length_c                    9.973404
_cell_angle_alpha                 88.375415
_cell_angle_beta                  90.553945
_cell_angle_gamma                 93.041395
_cell_volume                      1120.90423897

loop_
_atom_site_label
_atom_site_type_symbol
_atom_type_description
_atom_site_fract_x
_atom_site_fract_y
_atom_site_fract_z
_atom_type_partial_charge
C1    C     C_R   0.518905 0.263024 0.502446 0.889303
C2    C     C_R   0.540367 0.061836 0.628749 0.011047
C3    C     C_R   0.551507 0.133243 0.508450 -0.070433
C4    C     C_R   0.258071 0.499907 0.499640 0.936052
C5    C     C_R   0.569212 0.074661 0.387903 -0.212611
C6    C     C_R   0.558243 0.945515 0.383038 0.131211
C7    C     C_R   0.507840 0.877079 0.497009 -0.066687
C8    C     C_R   0.299387 0.380333 0.143222 -0.054903
C9    C     C_R   0.182361 0.359534 0.080850 -0.162957
C10   C     C_R   0.173665 0.373180 0.942764 -0.178130
C11   C     C_R   0.286410 0.383769 0.868857 0.269704
C12   C     C_3   0.965410 0.615146 0.525596 0.023166
C13   C     C_R   0.397507 0.442593 0.929756 0.036745
C14   C     C_R   0.400208 0.441880 0.073582 0.014981
C15   C     C_R   0.596906 0.556457 0.072364 0.492947
C16   C     C_R   0.498650 0.741033 0.498369 0.871376
C17   C     C_R   0.596222 0.558204 0.928479 0.351467
C18   C     C_R   0.741861 0.499695 0.500325 0.941175
C19   C     C_3   0.035029 0.382333 0.474747 0.026403
C20   C     C_3   0.956120 0.464406 0.380741 0.337506
C21   C     C_3   0.876111 0.499773 0.500070 -0.237172
C22   C     C_3   0.955570 0.419422 0.594038 0.435363
C23   C     C_3   0.044766 0.579173 0.405869 0.463282
C24   C     C_3   0.045558 0.534425 0.622498 -0.300677
C25   C     C_3   0.603046 0.886719 0.257003 -0.739468
C26   C     C_3   0.296869 0.272089 0.782190 -0.785204
C27   C     C_3   0.070810 0.248871 0.449647 -0.840125
C28   C     C_3   0.923381 0.746137 0.552070 -0.817151
C29   C     C_3   0.123709 0.498295 0.500079 -0.185953
C30   C     C_R   0.575916 0.107054 0.756435 0.317866
C31   C     C_R   0.521604 0.047129 0.873227 0.221173
C32   C     C_R   0.440567 0.938822 0.858597 0.443481
C33   C     C_R   0.426398 0.885652 0.732743 -0.241011
C34   C     C_R   0.489576 0.939853 0.619106 -0.114829
H1    H     H_    0.362611 0.803390 0.724895 0.212161
H2    H     H_    0.647432 0.957294 0.185646 0.254184
H3    H     H_    0.677142 0.820017 0.283304 0.251872
H4    H     H_    0.761045 0.650359 0.083339 0.372294
H5    H     H_    0.276171 0.291487 0.675622 0.245844
H6    H     H_    0.390397 0.235737 0.798874 0.242488
H7    H     H_    0.230043 0.192338 0.812707 0.210068
H8    H     H_    0.661540 0.653368 0.776055 0.383635
H9    H     H_    0.984349 0.190942 0.422560 0.252784
H10   H     H_    0.139851 0.248396 0.366903 0.215838
H11   H     H_    0.113413 0.207458 0.541500 0.249020
H12   H     H_    0.310627 0.344860 0.243630 0.184289
H13   H     H_    0.874561 0.386871 0.763622 0.361573
H14   H     H_    0.008120 0.811176 0.563939 0.256154
H15   H     H_    0.864621 0.779472 0.466666 0.226869
H16   H     H_    0.866433 0.744149 0.645152 0.259799
H17   H     H_    0.021774 0.697480 0.260850 0.353122
H18   H     H_    0.709760 0.201170 0.851373 0.348008
H19   H     H_    0.555280 0.188671 0.989252 0.336205
H20   H     H_    0.101370 0.321836 0.137371 0.189489
H21   H     H_    0.085662 0.340282 0.895361 0.185422
H22   H     H_    0.084143 0.561850 0.722029 0.196545
H23   H     H_    0.590877 0.129925 0.297303 0.192695
H24   H     H_    0.859603 0.350697 0.268749 0.335033
H25   H     H_    0.382701 0.934624 0.043791 0.379757
H26   H     H_    0.522271 0.838602 0.203993 0.277461
N1    N     N_R   0.498800 0.498800 0.142780 -0.155534
N2    N     N_R   0.498760 0.498720 0.857170 -0.170350
O1    O     O_R   0.500000 0.316780 0.614690 -0.584452
O2    O     O_3   0.374271 0.881407 0.964247 -0.752701
O3    O     O_3   0.694109 0.615152 0.144476 -0.721380
O4    O     O_3   0.694327 0.623400 0.863158 -0.787293
O5    O     O_3   0.905904 0.334611 0.691664 -0.720640
O6    O     O_3   0.095962 0.661799 0.306884 -0.719593
O7    O     O_3   0.665372 0.205912 0.763587 -0.708569
O8    O     O_3   0.537600 0.096902 0.998974 -0.815198
O9    O     O_R   0.499990 0.316750 0.385360 -0.664545
O10   O     O_R   0.313960 0.499980 0.614650 -0.634766
O11   O     O_R   0.313940 0.499960 0.385310 -0.602707
O12   O     O_R   0.500010 0.683250 0.614640 -0.657241
O13   O     O_R   0.500000 0.683220 0.385310 -0.581458
O14   O     O_R   0.686060 0.500040 0.614690 -0.594536
O15   O     O_R   0.686040 0.500020 0.385350 -0.555689
O16   O     O_3   0.908789 0.431556 0.254303 -0.725245
Zn1   Zn    Zn3+2 0.500010 0.500020 0.653130 0.969583
Zn2   Zn    Zn3+2 0.499990 0.499980 0.346870 1.002770

loop_
_geom_bond_atom_site_label_1
_geom_bond_atom_site_label_2
_ccdc_geom_bond_type
C16   O13   A    
C19   C20   S    
O14   Zn1   S    
O1    Zn1   S    
C12   C23   S    
H25   O2    S    
C1    O9    A    
C12   C28   S    
C16   O12   A    
C23   C29   S    
O10   Zn1   S    
C30   C31   A    
C26   H5    S    
C6    C25   S    
N1    Zn2   S    
C18   C21   S    
C24   C29   S    
H18   O7    S    
C25   H3    S    
C28   H16   S    
C27   H10   S    
C31   O8    S    
C13   N2    A    
C8    C9    A    
C18   O14   A    
H4    O3    S    
C25   H26   S    
C19   C27   S    
O13   Zn2   S    
C4    C29   S    
C27   H11   S    
C13   C14   A    
H19   O8    S    
C1    O1    A    
H13   O5    S    
O9    Zn2   S    
N2    Zn1   S    
C19   C22   S    
C32   O2    S    
C11   C26   S    
C14   N1    A    
C12   C21   S    
C1    C3    S    
C23   O6    S    
C17   N2    A    
C28   H15   S    
C31   C32   A    
C20   C23   S    
C33   C34   A    
C15   N1    A    
C10   H21   S    
C4    O11   A    
C7    C16   S    
O12   Zn1   S    
C7    C34   A    
C22   C24   S    
C19   C29   S    
C4    O10   A    
C30   O7    S    
C9    C10   A    
O15   Zn2   S    
C15   C17   A    
C28   H14   S    
C8    C14   A    
C2    C34   A    
C3    C5    A    
C6    C7    A    
C20   O16   S    
C24   H22   S    
C12   C24   S    
C5    H23   S    
C2    C30   A    
C32   C33   A    
C2    C3    A    
C11   C13   A    
C26   H6    S    
C5    C6    A    
C18   O15   A    
C33   H1    S    
O11   Zn2   S    
H17   O6    S    
C17   O4    S    
C8    H12   S    
C22   O5    S    
C10   C11   A    
H24   O16   S    
C25   H2    S    
C27   H9    S    
C20   C21   S    
H8    O4    S    
C9    H20   S    
C21   C22   S    
C26   H7    S    
C15   O3    S    
