data_mof_unit_8737.cif
_audit_creation_date              2012-12-10T17:58:55-0500
_audit_creation_method            fapswitch 2.2
_symmetry_space_group_name_H-M    P1
_symmetry_Int_Tables_number       1
_space_group_crystal_system       triclinic
_cell_length_a                    9.518989
_cell_length_b                    10.812237
_cell_length_c                    13.881527
_cell_angle_alpha                 90.402732
_cell_angle_beta                  84.597668
_cell_angle_gamma                 90.283832
_cell_volume                      1422.31399641

loop_
_atom_site_label
_atom_site_type_symbol
_atom_type_description
_atom_site_fract_x
_atom_site_fract_y
_atom_site_fract_z
_atom_type_partial_charge
C1    C     C_R   0.500754 0.737798 0.498953 0.852420
C2    C     C_R   0.499188 0.262205 0.501627 0.853453
C3    C     C_R   0.498011 0.128350 0.502379 -0.168481
C4    C     C_R   0.502070 0.871623 0.499138 -0.171677
C5    C     C_R   0.476956 0.500195 0.683108 0.817678
C6    C     C_R   0.523037 0.499747 0.316893 0.822349
C7    C     C_R   0.917318 0.575605 0.561105 -0.242113
C8    C     C_R   0.083188 0.425135 0.438100 -0.256082
C9    C     C_R   0.066997 0.574900 0.562735 0.567172
C10   C     C_R   0.932111 0.423576 0.437470 0.597993
C11   C     C_1   0.537284 0.499249 0.213649 -0.156554
C12   C     C_1   0.462668 0.500482 0.786355 -0.175945
C13   C     C_2   0.558308 0.498462 0.023013 -0.157206
C14   C     C_2   0.441506 0.500922 0.976999 -0.158797
C15   C     C_1   0.451852 0.500714 0.873275 0.000301
C16   C     C_1   0.548016 0.498836 0.126732 0.003336
C17   C     C_R   0.619362 0.937583 0.456413 0.447155
C18   C     C_R   0.381072 0.062435 0.545689 0.445267
C19   C     C_R   0.614811 0.066156 0.457108 -0.353392
C20   C     C_R   0.385476 0.933750 0.544905 -0.353686
Cu1   Cu    Cu3+1 0.359340 0.499980 0.500000 0.987876
Cu2   Cu    Cu3+1 0.640660 0.500020 0.500000 0.995748
H1    H     H_    0.853142 0.637993 0.607473 0.164420
H2    H     H_    0.151065 0.368249 0.389890 0.166264
H3    H     H_    0.337695 0.503128 0.016926 0.154551
H4    H     H_    0.662113 0.496256 0.983085 0.154370
H5    H     H_    0.701351 0.117640 0.420215 0.182182
H6    H     H_    0.299113 0.882131 0.582085 0.202728
N1    N     N_R   0.147930 0.499970 0.499980 -0.209629
N2    N     N_R   0.852070 0.500030 0.500020 -0.212232
O1    O     O_R   0.381260 0.680340 0.500000 -0.548559
O2    O     O_R   0.618740 0.319660 0.500000 -0.556826
O3    O     O_R   0.618830 0.680370 0.500010 -0.561686
O4    O     O_R   0.381170 0.319630 0.499990 -0.561534
O5    O     O_R   0.364420 0.499960 0.637840 -0.545582
O6    O     O_R   0.635580 0.500040 0.362160 -0.518616
O7    O     O_R   0.601990 0.499990 0.637850 -0.588907
O8    O     O_R   0.398010 0.500010 0.362150 -0.593433
O9    O     O_3   0.135279 0.658330 0.618990 -0.565122
C21   C     C_3   0.076094 0.661932 0.716466 0.046975
H7    H     H_    0.162336 0.645487 0.763388 0.179907
H8    H     H_    0.994616 0.589616 0.736063 0.116255
C22   C     C_3   0.016052 0.790066 0.740432 -0.846658
H9    H     H_    0.930349 0.811363 0.694325 0.228680
H10   H     H_    0.972876 0.793971 0.817527 0.219026
H11   H     H_    0.100407 0.861091 0.728016 0.260616
O10   O     O_3   0.858480 0.349809 0.375905 -0.556346
C23   C     C_3   0.940387 0.269735 0.312512 0.016908
H12   H     H_    0.868512 0.196839 0.288684 0.178582
H13   H     H_    0.021267 0.218266 0.348422 0.104254
C24   C     C_3   0.000805 0.337481 0.221474 -0.824310
H14   H     H_    0.071993 0.414109 0.239190 0.237055
H15   H     H_    0.061302 0.271625 0.172019 0.213327
H16   H     H_    0.913442 0.376437 0.183615 0.257768
O11   O     O_3   0.729817 0.876413 0.404387 -0.565485
C25   C     C_3   0.854476 0.892510 0.451006 0.079030
H17   H     H_    0.840050 0.856392 0.526258 0.143564
H18   H     H_    0.886687 0.991456 0.452870 0.116174
C26   C     C_3   0.973819 0.821407 0.395290 -0.757999
H19   H     H_    0.997297 0.861684 0.322140 0.234985
H20   H     H_    0.070245 0.826828 0.434412 0.202729
H21   H     H_    0.943482 0.722840 0.387508 0.260327
O12   O     O_3   0.271208 0.123814 0.598171 -0.563735
C27   C     C_3   0.145866 0.107349 0.552445 0.077456
H22   H     H_    0.112743 0.008563 0.552324 0.132635
H23   H     H_    0.159926 0.141524 0.476641 0.132777
C28   C     C_3   0.027715 0.180525 0.607552 -0.775350
H24   H     H_    0.059083 0.279085 0.613564 0.254619
H25   H     H_    0.930777 0.174665 0.569002 0.193249
H26   H     H_    0.004622 0.142245 0.681408 0.243780

loop_
_geom_bond_atom_site_label_1
_geom_bond_atom_site_label_2
_ccdc_geom_bond_type
O11   C25   S    
C6    O8    A    
C3    C19   A    
Cu1   O5    S    
C5    O7    A    
C19   H5    S    
C11   C16   T    
C10   N2    A    
C20   H6    S    
O10   C23   S    
C12   C15   T    
C9    N1    A    
C22   H9    S    
C1    C4    S    
C27   H22   S    
C24   H16   S    
C27   H23   S    
C23   H13   S    
C2    C3    S    
C1    O3    A    
C26   H19   S    
C14   H3    S    
C7    N2    A    
C13   C14   D    
C24   H14   S    
C22   H10   S    
C2    O4    A    
Cu1   O1    S    
Cu2   O2    S    
C3    C18   A    
C7    H1    S    
C8    N1    A    
C5    O5    A    
C2    O2    A    
C23   H12   S    
C17   C19   A    
C25   H18   S    
C18   C20   A    
C23   C24   S    
C1    O1    A    
C18   O12   S    
C22   H11   S    
C13   H4    S    
C26   H20   S    
C4    C17   A    
O9    C21   S    
C28   H24   S    
C4    C20   A    
C27   C28   S    
C9    O9    S    
Cu2   O6    S    
C25   H17   S    
C5    C12   S    
C8    C10   A    
C13   C16   S    
C28   H25   S    
C6    C11   S    
C7    C9    A    
C25   C26   S    
C17   O11   S    
C14   C15   S    
C21   H7    S    
C26   H21   S    
Cu1   O4    S    
Cu2   N2    S    
C28   H26   S    
C8    H2    S    
Cu1   Cu2   S    
C10   O10   S    
Cu1   N1    S    
Cu2   O7    S    
C21   C22   S    
Cu1   O8    S    
O12   C27   S    
C6    O6    A    
C21   H8    S    
C24   H15   S    
Cu2   O3    S    
