data_mof_unit_15843.cif
_audit_creation_date              2012-12-10T18:54:31-0500
_audit_creation_method            fapswitch 2.2
_symmetry_space_group_name_H-M    P1
_symmetry_Int_Tables_number       1
_space_group_crystal_system       triclinic
_cell_length_a                    19.315511
_cell_length_b                    18.23764
_cell_length_c                    9.057082
_cell_angle_alpha                 90.002205
_cell_angle_beta                  90.040388
_cell_angle_gamma                 90.092849
_cell_volume                      3190.52727806

loop_
_atom_site_label
_atom_site_type_symbol
_atom_type_description
_atom_site_fract_x
_atom_site_fract_y
_atom_site_fract_z
_atom_type_partial_charge
C1    C     C_R   0.367803 0.499978 0.499798 0.831763
C2    C     C_R   0.632113 0.500054 0.499747 0.830357
C3    C     C_R   0.464302 0.721480 0.606393 0.625620
C4    C     C_R   0.536649 0.279201 0.606018 0.624196
C5    C     C_R   0.536427 0.721115 0.394054 0.622212
C6    C     C_R   0.464436 0.278190 0.393572 0.620160
C7    C     C_R   0.468314 0.798901 0.612613 -0.375515
C8    C     C_R   0.533971 0.201739 0.612619 -0.375385
C9    C     C_R   0.533705 0.798578 0.388045 -0.375991
C10   C     C_R   0.468668 0.200768 0.387790 -0.375415
C11   C     C_R   0.501176 0.838566 0.500269 0.008690
C12   C     C_R   0.501420 0.161429 0.500644 0.009285
C13   C     C_R   0.564472 0.961336 0.502573 0.144956
C14   C     C_R   0.438412 0.038633 0.502749 0.144638
C15   C     C_R   0.438343 0.961259 0.498505 0.145916
C16   C     C_R   0.564541 0.038758 0.499274 0.145638
C17   C     C_R   0.501506 0.078676 0.501180 -0.043326
C18   C     C_R   0.501366 0.921317 0.500286 -0.043111
C19   C     C_R   0.500013 0.499999 0.220590 0.839565
C20   C     C_R   0.500013 0.500001 0.779412 0.841855
C21   C     C_1   0.500023 0.500000 0.065568 -0.150961
C22   C     C_1   0.500023 0.500003 0.934438 -0.149950
C23   C     C_R   0.746348 0.491496 0.619616 -0.333860
C24   C     C_R   0.254373 0.528335 0.611151 -0.345328
C25   C     C_R   0.259165 0.473184 0.368020 -0.327662
C26   C     C_R   0.739268 0.508934 0.354610 -0.326515
C27   C     C_R   0.818817 0.490170 0.611601 0.503361
C28   C     C_R   0.181614 0.530462 0.604257 0.481015
C29   C     C_R   0.186733 0.475191 0.357730 0.490520
C30   C     C_R   0.812075 0.510841 0.344181 0.462752
C31   C     C_R   0.851212 0.500963 0.474038 0.083572
C32   C     C_R   0.148215 0.502208 0.478004 0.033761
C33   C     C_R   0.707130 0.500219 0.491545 -0.124582
C34   C     C_R   0.292582 0.500201 0.493367 -0.129669
C35   C     C_R   0.962690 0.568981 0.463325 0.384527
C36   C     C_R   0.036013 0.435701 0.473797 0.388248
C37   C     C_R   0.035529 0.569798 0.461936 0.388746
C38   C     C_R   0.963516 0.435124 0.465119 0.341431
C39   C     C_R   0.072098 0.502775 0.469347 -0.159765
C40   C     C_R   0.927189 0.501703 0.466401 -0.141855
Cu1   Cu    Cu3+1 0.500000 0.573360 0.500000 1.011466
Cu2   Cu    Cu3+1 0.500000 0.426640 0.500000 1.012819
H1    H     H_    0.720515 0.486567 0.725260 0.142910
H2    H     H_    0.281419 0.546344 0.709267 0.148640
H3    H     H_    0.289657 0.451245 0.278295 0.151124
H4    H     H_    0.707069 0.513347 0.257205 0.143009
H5    H     H_    0.445649 0.827871 0.704894 0.162635
H6    H     H_    0.557628 0.173388 0.704615 0.162657
H7    H     H_    0.557241 0.827202 0.296218 0.162860
H8    H     H_    0.446283 0.171483 0.295442 0.162570
N1    N     N_R   0.500000 0.683620 0.500000 -0.253174
N2    N     N_R   0.500000 0.316380 0.500000 -0.252081
O1    O     O_R   0.400190 0.561980 0.499980 -0.571590
O2    O     O_R   0.599810 0.438020 0.500020 -0.569317
O3    O     O_R   0.599810 0.561980 0.500020 -0.568669
O4    O     O_R   0.400190 0.438020 0.499980 -0.569439
O5    O     O_R   0.500000 0.561940 0.288400 -0.537032
O6    O     O_R   0.500000 0.438060 0.711600 -0.536651
O7    O     O_R   0.500000 0.561940 0.711600 -0.536698
O8    O     O_R   0.500000 0.438060 0.288400 -0.536785
O9    O     O_3   0.859131 0.484889 0.737952 -0.571345
C41   C     C_3   0.845904 0.417743 0.810167 -0.298960
H9    H     H_    0.846764 0.370433 0.732335 0.181382
H10   H     H_    0.795978 0.419554 0.870782 0.148456
H11   H     H_    0.887312 0.408497 0.893015 0.198631
O10   O     O_3   0.141295 0.553103 0.723004 -0.575787
C42   C     C_3   0.165839 0.619691 0.783077 -0.278398
H12   H     H_    0.182316 0.659391 0.696311 0.175662
H13   H     H_    0.208542 0.609304 0.862438 0.125808
H14   H     H_    0.123084 0.645622 0.845807 0.194154
O11   O     O_3   0.151996 0.447038 0.235889 -0.556549
C43   C     C_3   0.174826 0.481539 0.105079 -0.313215
H15   H     H_    0.224135 0.457038 0.066128 0.162707
H16   H     H_    0.180339 0.542007 0.118191 0.136159
H17   H     H_    0.135580 0.472010 0.017638 0.219203
O12   O     O_3   0.847397 0.515958 0.210258 -0.601757
C44   C     C_3   0.813348 0.561477 0.107278 -0.313427
H18   H     H_    0.793531 0.612722 0.158911 0.140779
H19   H     H_    0.771223 0.530972 0.050565 0.172002
H20   H     H_    0.851215 0.577917 0.021370 0.222562
O13   O     O_3   0.925325 0.633507 0.475179 -0.541388
C45   C     C_3   0.927237 0.672223 0.340180 -0.239155
H21   H     H_    0.934388 0.636615 0.241242 0.154077
H22   H     H_    0.968569 0.714463 0.343898 0.192855
H23   H     H_    0.877240 0.701249 0.326143 0.162988
O14   O     O_3   0.071847 0.370253 0.483102 -0.537960
C46   C     C_3   0.076295 0.349921 0.633032 -0.246859
H24   H     H_    0.024137 0.339749 0.681078 0.183500
H25   H     H_    0.104423 0.391960 0.699102 0.159574
H26   H     H_    0.105979 0.298060 0.640923 0.178659
O15   O     O_3   0.069680 0.636598 0.468318 -0.530180
C47   C     C_3   0.102292 0.651131 0.331718 -0.355711
H27   H     H_    0.073533 0.628918 0.234584 0.145625
H28   H     H_    0.156100 0.630065 0.332421 0.163003
H29   H     H_    0.105600 0.711418 0.317186 0.185530
O16   O     O_3   0.927771 0.369393 0.469381 -0.573786
C48   C     C_3   0.925233 0.340298 0.325273 -0.266517
H30   H     H_    0.977885 0.326980 0.283494 0.201931
H31   H     H_    0.898551 0.378231 0.247749 0.179068
H32   H     H_    0.895044 0.288533 0.327983 0.174172
O17   O     O_3   0.428974 0.683127 0.714433 -0.538041
C49   C     C_3   0.357943 0.700960 0.709031 -0.333183
H33   H     H_    0.336122 0.693317 0.596173 0.163938
H34   H     H_    0.329724 0.663548 0.784396 0.174378
H35   H     H_    0.348323 0.757635 0.748861 0.145949
O18   O     O_3   0.572666 0.318264 0.712083 -0.541095
C50   C     C_3   0.643978 0.302199 0.701904 -0.313020
H36   H     H_    0.672995 0.343249 0.767986 0.178356
H37   H     H_    0.663310 0.305981 0.586223 0.162800
H38   H     H_    0.655538 0.247320 0.748998 0.146111
O19   O     O_3   0.572019 0.682375 0.287191 -0.541515
C51   C     C_3   0.643367 0.698555 0.296606 -0.311324
H39   H     H_    0.663188 0.693916 0.411818 0.166125
H40   H     H_    0.671959 0.658085 0.228712 0.178499
H41   H     H_    0.654825 0.753789 0.250954 0.145070
O20   O     O_3   0.429245 0.316218 0.284882 -0.546132
C52   C     C_3   0.358360 0.297364 0.288306 -0.299779
H42   H     H_    0.330321 0.333440 0.210147 0.186295
H43   H     H_    0.335718 0.305896 0.400052 0.169931
H44   H     H_    0.349462 0.240181 0.250536 0.144937
N3    N     N_3   0.629946 0.924587 0.513222 -0.547583
H45   H     H_    0.628324 0.887778 0.601659 0.224746
H46   H     H_    0.639156 0.895701 0.415799 0.214584
N4    N     N_3   0.372908 0.075310 0.513624 -0.547318
H47   H     H_    0.374542 0.111998 0.602272 0.224455
H48   H     H_    0.363552 0.104286 0.416350 0.215634
N5    N     N_3   0.372779 0.924486 0.487301 -0.549198
H49   H     H_    0.374371 0.887832 0.398605 0.222579
H50   H     H_    0.363349 0.895463 0.584495 0.214055
N6    N     N_3   0.630084 0.075603 0.488925 -0.548691
H51   H     H_    0.628574 0.112378 0.400427 0.223308
H52   H     H_    0.639287 0.104535 0.586360 0.214487

loop_
_geom_bond_atom_site_label_1
_geom_bond_atom_site_label_2
_ccdc_geom_bond_type
C15   C18   A    
C46   H24   S    
C11   C18   S    
O17   C49   S    
Cu1   Cu2   S    
C28   O10   S    
O19   C51   S    
C4    C8    A    
Cu2   O6    S    
C51   H40   S    
C48   H30   S    
C35   O13   S    
C44   H18   S    
C19   O5    A    
C7    C11   A    
C13   C18   A    
C4    N2    A    
C35   C37   A    
C1    O4    A    
C29   C32   A    
C3    C7    A    
C2    O3    A    
C52   H43   S    
C30   C31   A    
O18   C50   S    
C23   H1    S    
O20   C52   S    
C49   H35   S    
C32   C39   S    
C1    O1    A    
Cu1   O3    S    
C41   H10   S    
C27   O9    S    
Cu2   O4    S    
C31   C40   S    
C16   C17   A    
C23   C33   A    
C12   C17   S    
C50   H36   S    
C23   C27   A    
C16   N6    S    
C25   C34   A    
C3    O17   S    
O10   C42   S    
C15   N5    S    
C21   C22   T    
C50   H37   S    
C14   C17   A    
C49   H33   S    
C43   H17   S    
C51   H39   S    
C48   H31   S    
C1    C34   S    
O13   C45   S    
C44   H19   S    
C25   C29   A    
C14   N4    S    
C37   O15   S    
C27   C31   A    
C42   H12   S    
C28   C32   A    
C9    H7    S    
O12   C44   S    
Cu1   O7    S    
C43   H16   S    
C2    O2    A    
C52   H44   S    
Cu2   O8    S    
O15   C47   S    
C3    N1    A    
O14   C46   S    
C5    O19   S    
C36   O14   S    
C4    O18   S    
C47   H29   S    
C24   C34   A    
C42   H13   S    
C7    H5    S    
N6    H52   S    
C8    H6    S    
N5    H50   S    
C5    C9    A    
C41   H9    S    
C13   N3    S    
C26   C33   A    
C8    C12   A    
C6    O20   S    
O16   C48   S    
C47   H28   S    
C20   O7    A    
C49   H34   S    
C9    C11   A    
Cu1   O1    S    
N3    H45   S    
C10   C12   A    
C2    C33   S    
C20   C22   S    
C26   C30   A    
C45   H22   S    
C46   H25   S    
C24   H2    S    
C50   H38   S    
C46   H26   S    
C30   O12   S    
C20   O6    A    
N5    H49   S    
C10   H8    S    
C25   H3    S    
C48   H32   S    
N4    H48   S    
C44   H20   S    
C41   H11   S    
C19   C21   S    
C36   C39   A    
C24   C28   A    
C43   H15   S    
C6    C10   A    
C19   O8    A    
C45   H23   S    
C42   H14   S    
C36   C38   A    
N6    H51   S    
Cu1   O5    S    
O11   C43   S    
C37   C39   A    
C52   H42   S    
Cu2   O2    S    
C38   C40   A    
C47   H27   S    
C35   C40   A    
O9    C41   S    
N3    H46   S    
C26   H4    S    
C45   H21   S    
C13   C16   A    
C38   O16   S    
C14   C15   A    
C5    N1    A    
C6    N2    A    
Cu1   N1    S    
C51   H41   S    
Cu2   N2    S    
N4    H47   S    
C29   O11   S    
