data_mof_unit_11716.cif
_audit_creation_date              2013-03-05T15:58:57-0500
_audit_creation_method            fapswitch 2.2
_symmetry_space_group_name_H-M    P1
_symmetry_Int_Tables_number       1
_space_group_crystal_system       triclinic
_cell_length_a                    10.795044
_cell_length_b                    12.574861
_cell_length_c                    13.228221
_cell_angle_alpha                 81.285037
_cell_angle_beta                  94.623909
_cell_angle_gamma                 103.718963
_cell_volume                      1722.4424665

loop_
_atom_site_label
_atom_site_type_symbol
_atom_site_description
_atom_site_fract_x
_atom_site_fract_y
_atom_site_fract_z
_atom_type_partial_charge
O1    O     O_R   0.468120 0.366740 0.627160 -0.541226
O2    O     O_R   0.510770 0.544830 0.662520 -0.590407
C1    C     C_R   0.485665 0.438038 0.691954 0.961637
O3    O     O_R   0.663880 0.410950 0.482330 -0.599478
O4    O     O_R   0.706530 0.589040 0.517700 -0.547404
C2    C     C_R   0.742892 0.503217 0.497109 0.960132
Zn1   Zn    Zn3+2 0.471520 0.381090 0.476390 1.048688
Zn2   Zn    Zn3+2 0.528480 0.618910 0.523610 1.031727
O5    O     O_R   0.489230 0.455170 0.337480 -0.608511
O6    O     O_R   0.531880 0.633260 0.372840 -0.604849
O7    O     O_R   0.293470 0.410960 0.482300 -0.583244
O8    O     O_R   0.336120 0.589050 0.517670 -0.627623
C3    C     C_R   0.514275 0.562151 0.308696 0.879368
C4    C     C_R   0.257869 0.499745 0.493225 0.972358
C5    C     C_3   0.894974 0.408998 0.434496 0.147830
H1    H     H_    0.858487 0.330485 0.484979 0.209077
C6    C     C_3   0.037216 0.416011 0.417217 0.383324
H2    H     H_    0.938908 0.617452 0.352632 0.172301
H3    H     H_    0.153660 0.653400 0.385689 0.222157
C7    C     C_3   0.960171 0.615652 0.436126 0.133900
C8    C     C_3   0.939538 0.482072 0.607687 0.388005
C9    C     C_3   0.880571 0.505288 0.494643 -0.312344
C10   C     C_3   0.120633 0.495759 0.491666 -0.253083
C11   C     C_3   0.101869 0.615778 0.456228 -0.422670
C12   C     C_3   0.072042 0.455345 0.601895 0.028096
H4    H     H_    0.060223 0.364253 0.614688 0.185732
H5    H     H_    0.143148 0.669069 0.516140 0.272182
C13   C     C_R   0.651416 0.721670 0.063808 0.439603
H6    H     H_    0.755532 0.708990 0.889994 0.192607
C14   C     C_R   0.528951 0.602585 0.199877 -0.344331
C15   C     C_R   0.395136 0.294678 0.836727 0.523642
C16   C     C_R   0.371629 0.266496 0.941157 -0.231290
C17   C     C_R   0.415658 0.343477 0.008680 -0.080826
C18   C     C_R   0.487307 0.450735 0.974150 0.120763
C19   C     C_R   0.533312 0.469734 0.874951 -0.127841
C20   C     C_R   0.522067 0.537593 0.036203 0.027424
C21   C     C_R   0.614097 0.635583 0.002424 -0.194076
C22   C     C_R   0.674329 0.642391 0.911893 -0.142276
C23   C     C_R   0.638959 0.558975 0.851488 0.468219
C24   C     C_R   0.466988 0.531378 0.129844 0.387732
C25   C     C_R   0.615860 0.701928 0.165060 0.255760
C26   C     C_R   0.475384 0.397995 0.802755 -0.156717
H7    H     H_    0.396963 0.315071 0.088257 0.212397
H8    H     H_    0.315327 0.185773 0.970059 0.175305
C27   C     C_R   0.312743 0.088380 0.345325 -0.186720
H9    H     H_    0.296765 0.256777 0.328568 0.185125
H10   H     H_    0.243136 0.069863 0.283247 0.213419
N1    N     N_R   0.433240 0.222190 0.444680 -0.118277
C28   C     C_R   0.650486 0.798418 0.634673 0.043001
C29   C     C_R   0.661971 0.893668 0.678665 -0.240008
C30   C     C_R   0.591179 0.970477 0.637021 0.288712
C31   C     C_R   0.519405 0.956592 0.542531 -0.056454
C32   C     C_R   0.502345 0.853130 0.506629 0.178541
C33   C     C_R   0.461778 0.037805 0.483479 -0.037755
C34   C     C_R   0.373773 0.009099 0.400171 0.091470
C35   C     C_R   0.352563 0.903455 0.371032 0.228850
C36   C     C_R   0.418460 0.828073 0.422882 -0.189600
C37   C     C_R   0.495642 0.149252 0.498312 0.083448
C38   C     C_R   0.342995 0.194765 0.370156 0.064394
N2    N     N_R   0.566070 0.776970 0.554790 -0.118329
H11   H     H_    0.574954 0.181448 0.547969 0.181568
H12   H     H_    0.702161 0.737503 0.668806 0.217566
H13   H     H_    0.719488 0.904001 0.748972 0.185830
H14   H     H_    0.402923 0.749804 0.395855 0.214241
O9    O     O_3   0.819218 0.399229 0.342524 -0.653848
H15   H     H_    0.809376 0.473024 0.309767 0.344360
Br1   Br    Br    0.194211 0.497922 0.716033 -0.362351
Br2   Br    Br    0.931516 0.758756 0.457527 -0.322640
Br3   Br    Br    0.689388 0.814622 0.250545 -0.293404
O10   O     O_3   0.728970 0.822908 0.029543 -0.669779
H16   H     H_    0.707960 0.842019 0.955752 0.339299
O11   O     O_3   0.350950 0.459062 0.150185 -0.732241
H17   H     H_    0.314833 0.478972 0.209108 0.373826
O12   O     O_3   0.339912 0.223409 0.767306 -0.692168
H18   H     H_    0.286424 0.155576 0.804086 0.358989
O13   O     O_3   0.718337 0.561771 0.775441 -0.722202
H19   H     H_    0.714250 0.484707 0.766118 0.363305
Br4   Br    Br    0.243822 0.859982 0.254613 -0.433376
Br5   Br    Br    0.574131 0.070733 0.729072 -0.414947
Br6   Br    Br    0.058471 0.262708 0.440245 -0.393661
Br7   Br    Br    0.078138 0.470014 0.274110 -0.412642
Br8   Br    Br    0.956906 0.609341 0.681690 -0.287277
Br9   Br    Br    0.834185 0.353577 0.689097 -0.450037

loop_
_geom_bond_atom_site_label_1
_geom_bond_atom_site_label_2
_geom_bond_distance
_ccdc_geom_bond_type
C34   C35   1.400891 A    
C1    C26   1.479934 S    
C15   C26   1.411490 A    
H9    C38   1.081714 S    
C12   Br1   1.973470 S    
C11   H5    1.112703 S    
Zn1   O7    2.053548 S    
C6    C10   1.585679 S    
C28   N2    1.354371 A    
N1    C38   1.352281 A    
C20   C21   1.424447 A    
C22   C23   1.378181 A    
O7    C4    1.294772 A    
C5    H1    1.110848 S    
C5    O9    1.414669 S    
C13   C25   1.392779 A    
C35   Br4   1.925542 S    
C35   C36   1.385340 A    
H2    C7    1.107746 S    
Zn1   O5    1.932432 S    
C18   C19   1.406929 A    
C19   C26   1.419204 A    
O5    C3    1.310222 A    
C5    C9    1.588874 S    
C7    C11   1.530980 S    
H6    C22   1.083006 S    
C10   C11   1.566476 S    
C14   C25   1.411481 A    
O10   H16   0.990489 S    
C18   C20   1.426590 A    
C37   H11   1.074209 S    
C8    C9    1.590268 S    
C29   H13   1.082880 S    
O3    Zn1   2.017910 S    
C32   N2    1.361335 A    
C31   C33   1.421755 A    
C29   C30   1.393323 A    
C27   H10   1.081040 S    
O2    Zn2   1.932432 S    
O12   H18   0.991772 S    
C30   C31   1.427915 A    
C17   H7    1.078214 S    
C8    Br9   1.965337 S    
C3    C14   1.460304 S    
C20   C24   1.400502 A    
O13   H19   0.985546 S    
O3    C2    1.297827 A    
C32   C36   1.398297 A    
C15   O12   1.381881 S    
C12   H4    1.110145 S    
C6    Br6   1.970359 S    
O1    C1    1.304029 A    
C4    C10   1.468954 S    
C19   C23   1.414488 A    
C21   C22   1.390087 A    
C15   C16   1.401363 A    
Zn2   O8    2.017911 S    
C17   C18   1.414734 A    
C16   H8    1.083137 S    
C14   C24   1.405272 A    
C23   O13   1.364349 S    
O8    C4    1.302037 A    
O9    H15   0.988772 S    
C31   C32   1.418313 A    
C36   H14   1.069254 S    
C25   Br3   1.929863 S    
C33   C37   1.401756 A    
C5    C6    1.550504 S    
C8    C12   1.555101 S    
C33   C34   1.427013 A    
C27   C38   1.383048 A    
C28   H12   1.076603 S    
C24   O11   1.381434 S    
O1    Zn1   1.977681 S    
C7    Br2   1.961276 S    
C13   O10   1.381236 S    
C7    C9    1.574685 S    
O11   H17   0.988253 S    
O6    C3    1.295759 A    
O4    Zn2   2.053548 S    
N1    C37   1.348018 A    
Zn1   N1    2.042963 S    
O2    C1    1.309336 A    
C16   C17   1.391452 A    
O4    C2    1.303923 A    
C13   C21   1.414309 A    
H3    C11   1.109935 S    
C6    Br7   1.960339 S    
C10   C12   1.559453 S    
C30   Br5   1.928053 S    
C8    Br8   1.964063 S    
C27   C34   1.403423 A    
Zn2   O6    1.977678 S    
C28   C29   1.384835 A    
Zn2   N2    2.030802 S    
C2    C9    1.483199 S    
