data_mof_unit_23890.cif
_audit_creation_date              2012-10-26T21:33:24-0400
_audit_creation_method            fapswitch 2.2
_symmetry_space_group_name_H-M    P1
_symmetry_Int_Tables_number       1
_space_group_crystal_system       triclinic
_cell_length_a                    28.027583
_cell_length_b                    18.315603
_cell_length_c                    17.107605
_cell_angle_alpha                 90.000157
_cell_angle_beta                  60.846616
_cell_angle_gamma                 90.0
_cell_volume                      7669.53173251

loop_
_atom_site_label
_atom_site_type_symbol
_atom_type_description
_atom_site_fract_x
_atom_site_fract_y
_atom_site_fract_z
_atom_type_partial_charge
C1    C     C_R   0.700726 0.265790 0.676467 0.898825
C2    C     C_R   0.084606 0.500000 0.544416 0.006318
C3    C     C_R   0.188714 0.222367 0.906415 0.010093
C4    C     C_R   0.074983 0.098769 0.933122 0.915100
C5    C     C_R   0.925016 0.901231 0.066878 0.915100
C6    C     C_R   0.925016 0.098769 0.066878 0.915099
C7    C     C_R   0.074983 0.901231 0.933122 0.915101
C8    C     C_R   0.574984 0.598769 0.933122 0.915100
C9    C     C_R   0.425017 0.401231 0.066878 0.915100
C10   C     C_R   0.425017 0.598769 0.066878 0.915101
C11   C     C_R   0.574984 0.401231 0.933122 0.915100
C12   C     C_R   0.539467 0.133289 0.529129 -0.058309
C13   C     C_R   0.415394 1.000000 0.455583 0.006318
C14   C     C_R   0.460533 0.866711 0.470870 -0.058309
C15   C     C_R   0.460533 0.133288 0.470871 -0.058309
C16   C     C_R   0.539467 0.866711 0.529128 -0.058309
C17   C     C_R   0.039467 0.633289 0.529130 -0.058309
C18   C     C_R   0.960533 0.366711 0.470871 -0.058309
C19   C     C_R   0.960533 0.633288 0.470871 -0.058309
C20   C     C_R   0.039467 0.366712 0.529129 -0.058309
C21   C     C_R   0.520925 0.199993 0.511658 0.138111
C22   C     C_R   0.479075 0.800007 0.488341 0.138111
C23   C     C_R   0.479074 0.199993 0.488343 0.138112
C24   C     C_R   0.584606 0.000000 0.544416 0.006318
C25   C     C_R   0.520926 0.800007 0.511657 0.138111
C26   C     C_R   0.020925 0.699993 0.511658 0.138110
C27   C     C_R   0.979075 0.300007 0.488342 0.138111
C28   C     C_R   0.979074 0.699993 0.488343 0.138111
C29   C     C_R   0.020926 0.300007 0.511657 0.138112
C30   C     C_R   0.479805 0.066784 0.486719 -0.010186
C31   C     C_R   0.520195 0.933216 0.513281 -0.010187
C32   C     C_R   0.520195 0.066784 0.513282 -0.010187
C33   C     C_R   0.479806 0.933216 0.486718 -0.010186
C34   C     C_R   0.979805 0.566784 0.486719 -0.010186
C35   C     C_R   0.075901 0.369381 0.563973 0.196747
C36   C     C_R   0.020195 0.433216 0.513281 -0.010186
C37   C     C_R   0.020194 0.566784 0.513282 -0.010186
C38   C     C_R   0.979805 0.433216 0.486718 -0.010187
C39   C     C_R   0.959132 0.500000 0.474635 0.017401
C40   C     C_R   0.040868 0.500000 0.525365 0.017401
C41   C     C_R   0.459132 1.000000 0.474635 0.017401
C42   C     C_R   0.540868 1.000000 0.525365 0.017401
C43   C     C_R   0.893991 0.433776 0.444904 -0.024195
C44   C     C_R   0.106009 0.566224 0.555096 -0.024195
C45   C     C_R   0.106009 0.433777 0.555096 -0.024194
C46   C     C_R   0.924099 0.630619 0.436027 0.196747
C47   C     C_R   0.893991 0.566223 0.444904 -0.024194
C48   C     C_R   0.393991 0.933776 0.444904 -0.024195
C49   C     C_R   0.606009 0.066224 0.555096 -0.024195
C50   C     C_R   0.606009 0.933777 0.555096 -0.024194
C51   C     C_R   0.393991 0.066223 0.444904 -0.024194
C52   C     C_R   0.845515 0.434640 0.437005 -0.162761
C53   C     C_R   0.154484 0.565360 0.562995 -0.162761
C54   C     C_R   0.154485 0.434640 0.562995 -0.162761
C55   C     C_R   0.845515 0.565360 0.437005 -0.162761
C56   C     C_R   0.345515 0.934640 0.437005 -0.162761
C57   C     C_R   0.924099 0.369380 0.436027 0.196747
C58   C     C_R   0.654485 0.065360 0.562994 -0.162761
C59   C     C_R   0.654485 0.934640 0.562995 -0.162761
C60   C     C_R   0.345515 0.065360 0.437005 -0.162761
C61   C     C_R   0.826795 0.500000 0.420415 0.098758
C62   C     C_R   0.173205 0.500000 0.579585 0.098757
C63   C     C_R   0.326795 1.000000 0.420414 0.098757
C64   C     C_R   0.673205 0.000000 0.579585 0.098758
C65   C     C_R   0.075901 0.630620 0.563974 0.196748
C66   C     C_R   0.575901 0.869381 0.563973 0.196747
C67   C     C_R   0.424099 0.130619 0.436027 0.196747
C68   C     C_R   0.424099 0.869380 0.436026 0.196748
C69   C     C_R   0.299274 0.734210 0.323533 0.898825
C70   C     C_R   0.575901 0.130620 0.563973 0.196748
C71   C     C_R   0.720206 0.262390 0.954061 0.116860
C72   C     C_R   0.279794 0.737610 0.045939 0.116860
C73   C     C_R   0.279794 0.262391 0.045938 0.116857
C74   C     C_R   0.720206 0.737610 0.954061 0.116860
C75   C     C_R   0.220206 0.762390 0.954061 0.116860
C76   C     C_R   0.779794 0.237610 0.045939 0.116860
C77   C     C_R   0.779794 0.762390 0.045939 0.116860
C78   C     C_R   0.220206 0.237608 0.954062 0.116858
C79   C     C_R   0.775902 0.280908 0.914542 -0.128611
C80   C     C_R   0.299274 0.265790 0.323533 0.898823
C81   C     C_R   0.224098 0.719089 0.085456 -0.128612
C82   C     C_R   0.305522 0.231966 0.959684 -0.144877
C83   C     C_R   0.694475 0.768019 0.040325 -0.144887
C84   C     C_R   0.275902 0.780911 0.914544 -0.128611
C85   C     C_R   0.724097 0.219092 0.085458 -0.128611
C86   C     C_R   0.805525 0.731981 0.959675 -0.144887
C87   C     C_R   0.194478 0.268034 0.040316 -0.144878
C88   C     C_R   0.805526 0.268015 0.959673 -0.144889
C89   C     C_R   0.194475 0.731982 0.040325 -0.144887
C90   C     C_R   0.275898 0.219071 0.914554 -0.128616
C91   C     C_R   0.700726 0.734210 0.676467 0.898824
C92   C     C_R   0.724098 0.780912 0.085456 -0.128611
C93   C     C_R   0.305525 0.768018 0.959675 -0.144888
C94   C     C_R   0.694474 0.231985 0.040327 -0.144889
C95   C     C_R   0.775902 0.719088 0.914544 -0.128612
C96   C     C_R   0.224102 0.280928 0.085446 -0.128616
C97   C     C_R   0.644963 0.326373 0.944379 -0.223492
C98   C     C_R   0.355037 0.673627 0.055620 -0.223491
C99   C     C_R   0.355037 0.326373 0.055620 -0.223489
C100  C     C_R   0.644964 0.673627 0.944379 -0.223491
C101  C     C_R   0.144963 0.826373 0.944380 -0.223491
C102  C     C_R   0.200726 0.765790 0.676467 0.898825
C103  C     C_R   0.855037 0.173627 0.055621 -0.223492
C104  C     C_R   0.855036 0.826373 0.055621 -0.223492
C105  C     C_R   0.144963 0.173627 0.944380 -0.223489
C106  C     C_R   0.617631 0.347342 0.897330 -0.072130
C107  C     C_R   0.382369 0.652658 0.102669 -0.072131
C108  C     C_R   0.382369 0.347342 0.102669 -0.072132
C109  C     C_R   0.617632 0.652657 0.897330 -0.072130
C110  C     C_R   0.117631 0.847342 0.897331 -0.072130
C111  C     C_R   0.882369 0.152658 0.102669 -0.072130
C112  C     C_R   0.882368 0.847343 0.102670 -0.072130
C113  C     C_R   0.799274 0.234210 0.323533 0.898825
C114  C     C_R   0.117631 0.152658 0.897331 -0.072131
C115  C     C_R   0.633711 0.321385 0.812912 -0.263277
C116  C     C_R   0.366289 0.678615 0.187088 -0.263277
C117  C     C_R   0.366288 0.321386 0.187088 -0.263277
C118  C     C_R   0.633712 0.678614 0.812911 -0.263276
C119  C     C_R   0.133711 0.821385 0.812912 -0.263277
C120  C     C_R   0.866289 0.178615 0.187088 -0.263277
C121  C     C_R   0.866288 0.821386 0.187088 -0.263276
C122  C     C_R   0.133712 0.178614 0.812912 -0.263278
C123  C     C_R   0.677951 0.275664 0.772366 -0.103653
C124  C     C_R   0.799274 0.765790 0.323533 0.898824
C125  C     C_R   0.322048 0.724336 0.227634 -0.103653
C126  C     C_R   0.322047 0.275666 0.227634 -0.103658
C127  C     C_R   0.677952 0.724335 0.772366 -0.103654
C128  C     C_R   0.177952 0.775664 0.772366 -0.103653
C129  C     C_R   0.822049 0.224336 0.227634 -0.103653
C130  C     C_R   0.822048 0.775665 0.227634 -0.103654
C131  C     C_R   0.177953 0.224334 0.772366 -0.103658
C132  C     C_R   0.703913 0.248633 0.821091 0.156796
C133  C     C_R   0.296086 0.751367 0.178909 0.156797
C134  C     C_R   0.296085 0.248635 0.178909 0.156804
C135  C     C_R   0.200726 0.234209 0.676467 0.898824
C136  C     C_R   0.703914 0.751367 0.821091 0.156797
C137  C     C_R   0.203914 0.748633 0.821091 0.156797
C138  C     C_R   0.796087 0.251367 0.178909 0.156796
C139  C     C_R   0.796086 0.748633 0.178909 0.156797
C140  C     C_R   0.203915 0.251364 0.821090 0.156804
C141  C     C_R   0.690572 0.129498 0.537497 0.907631
C142  C     C_R   0.309428 0.870501 0.462502 0.907631
C143  C     C_R   0.309428 0.129499 0.462502 0.907631
C144  C     C_R   0.690571 0.870501 0.537498 0.907631
C145  C     C_R   0.190572 0.629498 0.537498 0.907631
C146  C     C_R   0.915394 0.500000 0.455584 0.006318
C147  C     C_R   0.809428 0.370501 0.462502 0.907631
C148  C     C_R   0.809428 0.629499 0.462502 0.907631
C149  C     C_R   0.190571 0.370501 0.537498 0.907631
C150  C     C_R   0.688714 0.277632 0.906415 0.010101
C151  C     C_R   0.311286 0.722368 0.093585 0.010100
C152  C     C_R   0.311286 0.277633 0.093585 0.010092
C153  C     C_R   0.688714 0.722367 0.906415 0.010100
C154  C     C_R   0.188714 0.777632 0.906415 0.010100
C155  C     C_R   0.811286 0.222368 0.093585 0.010101
C156  C     C_R   0.811286 0.777633 0.093585 0.010101
H1    H     H_    0.651573 0.217656 0.072346 0.156732
H2    H     H_    0.203588 0.694508 0.151376 0.153542
H3    H     H_    0.348420 0.217621 0.927673 0.156734
H4    H     H_    0.651574 0.782350 0.072343 0.156733
H5    H     H_    0.296412 0.805492 0.848624 0.153542
H6    H     H_    0.703587 0.194512 0.151378 0.153543
H7    H     H_    0.848426 0.717650 0.927657 0.156733
H8    H     H_    0.151580 0.282378 0.072327 0.156734
H9    H     H_    0.633319 0.349482 0.009581 0.177523
H10   H     H_    0.366682 0.650518 0.990418 0.177523
H11   H     H_    0.366682 0.349481 0.990417 0.177527
H12   H     H_    0.348426 0.782349 0.927656 0.156732
H13   H     H_    0.633319 0.650517 0.009581 0.177524
H14   H     H_    0.133319 0.849482 0.009581 0.177524
H15   H     H_    0.866681 0.150518 0.990419 0.177523
H16   H     H_    0.866681 0.849483 0.990419 0.177524
H17   H     H_    0.133318 0.150519 0.009583 0.177528
H18   H     H_    0.613470 0.340381 0.776434 0.202704
H19   H     H_    0.386530 0.659619 0.223566 0.202704
H20   H     H_    0.386530 0.340381 0.223566 0.202704
H21   H     H_    0.613470 0.659618 0.776433 0.202704
H22   H     H_    0.113470 0.840381 0.776434 0.202704
H23   H     H_    0.203595 0.305523 0.151359 0.153537
H24   H     H_    0.886530 0.159619 0.223566 0.202704
H25   H     H_    0.886530 0.840382 0.223567 0.202704
H26   H     H_    0.113470 0.159619 0.776434 0.202704
H27   H     H_    0.796412 0.694506 0.848625 0.153542
H28   H     H_    0.151574 0.717651 0.072344 0.156732
H29   H     H_    0.848427 0.282344 0.927653 0.156732
H30   H     H_    0.703588 0.805494 0.151375 0.153542
H31   H     H_    0.296405 0.194477 0.848641 0.153537
H32   H     H_    0.796413 0.305487 0.848622 0.153543
I1    I     I_    0.065357 0.200592 0.495190 -0.205059
I2    I     I_    0.220191 0.500000 0.648243 -0.190168
I3    I     I_    0.279809 1.000000 0.351757 -0.190168
I4    I     I_    0.720191 0.000000 0.648243 -0.190165
I5    I     I_    0.057622 0.303383 0.679094 -0.305071
I6    I     I_    0.942378 0.696617 0.320906 -0.305070
I7    I     I_    0.942377 0.303382 0.320905 -0.305068
I8    I     I_    0.057623 0.696618 0.679095 -0.305069
I9    I     I_    0.557622 0.803383 0.679094 -0.305070
I10   I     I_    0.442378 0.196617 0.320906 -0.305070
I11   I     I_    0.442377 0.803382 0.320905 -0.305069
I12   I     I_    0.934643 0.799408 0.504811 -0.205064
I13   I     I_    0.557623 0.196618 0.679095 -0.305068
I14   I     I_    0.761047 0.159320 0.775526 -0.243318
I15   I     I_    0.238952 0.840678 0.224474 -0.243320
I16   I     I_    0.238945 0.159331 0.224477 -0.243315
I17   I     I_    0.761049 0.840677 0.775526 -0.243318
I18   I     I_    0.261048 0.659322 0.775526 -0.243320
I19   I     I_    0.738953 0.340680 0.224474 -0.243318
I20   I     I_    0.738951 0.659323 0.224474 -0.243318
I21   I     I_    0.261056 0.340669 0.775522 -0.243315
I22   I     I_    0.934644 0.200592 0.504809 -0.205066
I23   I     I_    0.065356 0.799408 0.495192 -0.205065
I24   I     I_    0.565357 0.700592 0.495189 -0.205065
I25   I     I_    0.434643 0.299408 0.504810 -0.205059
I26   I     I_    0.434644 0.700592 0.504808 -0.205065
I27   I     I_    0.565356 0.299408 0.495191 -0.205065
I28   I     I_    0.779809 0.499999 0.351757 -0.190164
O1    O     O_R   0.746490 0.236330 0.638080 -0.596262
O2    O     O_R   0.325830 0.813840 0.483730 -0.609017
O3    O     O_R   0.325830 0.186160 0.483730 -0.609017
O4    O     O_R   0.674170 0.813840 0.516270 -0.609017
O5    O     O_R   0.174170 0.686160 0.516270 -0.609017
O6    O     O_R   0.825830 0.313840 0.483730 -0.609017
O7    O     O_R   0.825830 0.686160 0.483730 -0.609017
O8    O     O_R   0.174170 0.313840 0.516270 -0.609017
O9    O     O_R   0.739960 0.127620 0.525000 -0.592222
O10   O     O_R   0.260040 0.872380 0.475000 -0.592222
O11   O     O_R   0.260040 0.127620 0.475000 -0.592223
O12   O     O_R   0.253510 0.763670 0.361920 -0.596262
O13   O     O_R   0.739960 0.872380 0.525000 -0.592222
O14   O     O_R   0.239960 0.627620 0.525000 -0.592222
O15   O     O_R   0.760040 0.372380 0.475000 -0.592222
O16   O     O_R   0.760040 0.627620 0.475000 -0.592222
O17   O     O_R   0.239960 0.372380 0.525000 -0.592223
O18   O     O_R   0.680700 0.294870 0.629350 -0.612814
O19   O     O_R   0.319300 0.705130 0.370650 -0.612814
O20   O     O_R   0.319300 0.294870 0.370650 -0.612814
O21   O     O_R   0.680700 0.705130 0.629350 -0.612814
O22   O     O_R   0.180700 0.794870 0.629350 -0.612814
O23   O     O_R   0.253510 0.236330 0.361920 -0.596260
O24   O     O_R   0.819300 0.205130 0.370650 -0.612814
O25   O     O_R   0.819300 0.794870 0.370650 -0.612814
O26   O     O_R   0.180700 0.205130 0.629350 -0.612814
O27   O     O_R   0.062020 0.072840 0.007170 -0.620324
O28   O     O_R   0.937980 0.927160 0.992830 -0.620324
O29   O     O_R   0.937980 0.072840 0.992830 -0.620325
O30   O     O_R   0.062020 0.927160 0.007170 -0.620324
O31   O     O_R   0.562020 0.572840 0.007170 -0.620324
O32   O     O_R   0.437980 0.427160 0.992830 -0.620324
O33   O     O_R   0.437980 0.572840 0.992830 -0.620324
O34   O     O_R   0.746490 0.763670 0.638080 -0.596261
O35   O     O_R   0.562020 0.427160 0.007170 -0.620325
O36   O     O_R   0.947860 0.073950 0.109290 -0.616317
O37   O     O_R   0.052140 0.926050 0.890710 -0.616317
O38   O     O_R   0.052140 0.073950 0.890710 -0.616317
O39   O     O_R   0.947860 0.926050 0.109290 -0.616317
O40   O     O_R   0.447860 0.573950 0.109290 -0.616317
O41   O     O_R   0.552140 0.426050 0.890710 -0.616317
O42   O     O_R   0.552140 0.573950 0.890710 -0.616317
O43   O     O_R   0.447860 0.426050 0.109290 -0.616317
O44   O     O_R   0.246490 0.736330 0.638080 -0.596262
O45   O     O_R   0.753510 0.263670 0.361920 -0.596262
O46   O     O_R   0.753510 0.736330 0.361920 -0.596262
O47   O     O_R   0.246490 0.263670 0.638080 -0.596260
O48   O     O_R   0.674170 0.186160 0.516270 -0.609017
Zn1   Zn    Zn3+2 0.792340 0.208750 0.507670 1.090042
Zn2   Zn    Zn3+2 0.494040 0.500000 0.919480 1.010078
Zn3   Zn    Zn3+2 0.005960 1.000000 0.080520 1.010079
Zn4   Zn    Zn3+2 0.994040 1.000000 0.919480 1.010077
Zn5   Zn    Zn3+2 0.207660 0.791250 0.492330 1.090042
Zn6   Zn    Zn3+2 0.207660 0.208750 0.492330 1.090044
Zn7   Zn    Zn3+2 0.792340 0.791250 0.507670 1.090043
Zn8   Zn    Zn3+2 0.292340 0.708750 0.507670 1.090042
Zn9   Zn    Zn3+2 0.707660 0.291250 0.492330 1.090042
Zn10  Zn    Zn3+2 0.707660 0.708750 0.492330 1.090043
Zn11  Zn    Zn3+2 0.292340 0.291250 0.507670 1.090044
Zn12  Zn    Zn3+2 0.505960 0.500000 0.080520 1.010078

loop_
_geom_bond_atom_site_label_1
_geom_bond_atom_site_label_2
_ccdc_geom_bond_type
C100  C153  A    
C133  I15   S    
C145  O14   A    
C69   O12   A    
C77   C92   A    
C135  O47   A    
C136  C153  A    
C31   C42   A    
C123  C132  A    
C27   C29   A    
C34   C37   A    
C132  C150  A    
C6    C111  S    
C80   O20   A    
C6    O29   A    
O21   Zn10  S    
C133  C151  A    
O42   Zn2   S    
C4    O38   A    
C121  C130  A    
C67   I10   S    
C95   H27   S    
C53   C145  S    
C14   C33   A    
C13   C41   A    
C44   C65   A    
C19   C46   A    
C62   I2    S    
C71   C94   A    
C26   C28   A    
C3    C105  A    
C16   C31   A    
C83   C92   A    
C7    O30   A    
O38   Zn4   S    
C59   C64   A    
C28   I12   S    
O18   Zn9   S    
C113  C129  S    
C20   C29   A    
C57   I7    S    
C68   I11   S    
C10   O40   A    
C17   C26   A    
O26   Zn6   S    
C80   O23   A    
C4    C114  S    
C148  O7    A    
O27   Zn3   S    
C144  O4    A    
C37   C40   A    
C131  C135  S    
C52   C61   A    
O10   Zn5   S    
C38   C39   A    
C92   H30   S    
C43   C52   A    
C71   C150  S    
C145  O5    A    
C90   H31   S    
O17   Zn11  S    
C16   C25   A    
C24   C42   A    
O15   Zn9   S    
C103  C111  A    
C21   I27   S    
C85   C94   A    
C51   C67   A    
C63   I3    S    
C9    O32   A    
C142  O2    A    
C131  C140  A    
C18   C57   A    
O12   Zn5   S    
C13   C51   A    
C20   C35   A    
C147  O15   A    
C44   C53   A    
C113  O24   A    
C96   H23   S    
C83   H4    S    
C93   H12   S    
C2    C44   A    
C120  H24   S    
C22   C25   A    
C140  I21   S    
C97   C150  A    
C31   C33   A    
C30   C41   A    
C46   I6    S    
C26   I23   S    
C148  O16   A    
C61   I28   S    
C117  C126  A    
C76   C88   A    
C4    O27   A    
C72   C81   A    
O23   Zn6   S    
C22   I26   S    
C104  H16   S    
C65   I8    S    
C81   C89   A    
C119  C128  A    
C70   I13   S    
C15   C23   A    
C87   H8    S    
C74   C83   A    
C47   C146  A    
C69   C125  S    
C100  C109  A    
O37   Zn4   S    
C105  H17   S    
C12   C32   A    
C103  H15   S    
C85   H6    S    
C10   C107  S    
O34   Zn7   S    
C130  C139  A    
C74   C95   A    
O9    Zn1   S    
C79   C88   A    
C64   I4    S    
C109  C118  A    
C142  O10   A    
C54   C149  S    
C99   H11   S    
C98   C151  A    
C77   C156  S    
C2    C45   A    
C24   C50   A    
O46   Zn10  S    
C102  O22   A    
O19   Zn8   S    
C115  C123  A    
C79   H32   S    
C129  C138  A    
O4    Zn10  S    
C120  C129  A    
C89   H28   S    
O16   Zn10  S    
C105  C114  A    
C36   C40   A    
C127  C136  A    
C8    O31   A    
C139  I20   S    
C104  C112  A    
O6    Zn1   S    
C43   C57   A    
C17   C37   A    
C54   C62   A    
C58   C64   A    
C101  C110  A    
O8    Zn6   S    
C12   C21   A    
C27   I22   S    
C11   O35   A    
C71   C79   A    
C34   C39   A    
C74   C153  S    
C111  C120  A    
C9    C108  S    
O20   Zn11  S    
C114  C122  A    
O33   Zn2   S    
O44   Zn8   S    
O22   Zn5   S    
C132  I14   S    
C128  C137  A    
C1    C123  S    
O7    Zn7   S    
C15   C67   A    
C99   C108  A    
C8    O42   A    
C141  O9    A    
C53   C62   A    
C144  O13   A    
O36   Zn3   S    
C18   C27   A    
C124  O46   A    
C1    O18   A    
C72   C151  S    
C134  C152  A    
C87   C96   A    
C91   O21   A    
C11   C106  S    
O3    Zn11  S    
C56   C63   A    
C124  C130  S    
C101  H14   S    
C113  O45   A    
O35   Zn12  S    
C19   C28   A    
C50   C66   A    
C75   C84   A    
C98   H10   S    
C147  O6    A    
C91   C127  S    
C72   C93   A    
C117  H20   S    
C103  C155  A    
C88   H29   S    
C119  H22   S    
C59   C144  S    
C94   H1    S    
O47   Zn11  S    
C116  C125  A    
C21   C23   A    
C73   C152  S    
O43   Zn12  S    
C101  C154  A    
O1    Zn1   S    
C60   C63   A    
C104  C156  A    
O29   Zn4   S    
C16   C66   A    
C49   C58   A    
C50   C59   A    
O30   Zn3   S    
C35   C45   A    
C78   C87   A    
C11   O41   A    
C122  C131  A    
O5    Zn5   S    
C135  O26   A    
C15   C30   A    
C121  H25   S    
C23   I25   S    
C125  C133  A    
C24   C49   A    
C48   C56   A    
C138  C155  A    
C12   C70   A    
C46   C47   A    
C32   C42   A    
C81   H2    S    
C116  H19   S    
C100  H13   S    
O45   Zn9   S    
C17   C65   A    
C108  C117  A    
C102  O44   A    
O41   Zn2   S    
C2    C40   A    
C143  O11   A    
C48   C68   A    
C19   C34   A    
C110  C119  A    
C77   C86   A    
C13   C48   A    
C138  I19   S    
C124  O25   A    
C134  I16   S    
C86   H7    S    
C5    C112  S    
C52   C147  S    
C99   C152  A    
C76   C155  S    
C102  C128  S    
O48   Zn9   S    
C82   C90   A    
C7    C110  S    
C6    O36   A    
C106  C115  A    
C49   C70   A    
C10   O33   A    
C33   C41   A    
C115  H18   S    
C51   C60   A    
C9    O43   A    
C149  O8    A    
C18   C38   A    
C76   C85   A    
C56   C142  S    
C112  C121  A    
C60   C143  S    
C43   C146  A    
C8    C109  S    
C25   I24   S    
C30   C32   A    
C82   H3    S    
O13   Zn7   S    
C75   C154  S    
C14   C22   A    
C55   C148  S    
C136  I17   S    
C80   C126  S    
C139  C156  A    
C78   C90   A    
C97   H9    S    
C55   C61   A    
C39   C146  A    
C36   C38   A    
C141  O48   A    
C45   C54   A    
C137  I18   S    
C73   C82   A    
O14   Zn8   S    
C29   I1    S    
C84   C93   A    
C5    O28   A    
C69   O19   A    
C5    O39   A    
O24   Zn1   S    
O11   Zn6   S    
C149  O17   A    
C107  C116  A    
C66   I9    S    
O2    Zn8   S    
C86   C95   A    
C35   I5    S    
C143  O3    A    
C20   C36   A    
C118  H21   S    
O25   Zn7   S    
C47   C55   A    
C122  H26   S    
O32   Zn2   S    
C126  C134  A    
C118  C127  A    
C75   C89   A    
C14   C68   A    
O39   Zn3   S    
O40   Zn12  S    
C1    O1    A    
C3    C140  A    
C7    O37   A    
C73   C96   A    
O28   Zn4   S    
O31   Zn12  S    
C3    C78   S    
C137  C154  A    
C58   C141  S    
C84   H5    S    
C98   C107  A    
C91   O34   A    
C97   C106  A    
