data_mof_unit_13565.cif
_audit_creation_date              2012-12-11T14:34:13-0500
_audit_creation_method            fapswitch 2.2
_symmetry_space_group_name_H-M    P1
_symmetry_Int_Tables_number       1
_space_group_crystal_system       triclinic
_cell_length_a                    13.933837
_cell_length_b                    13.959655
_cell_length_c                    27.438093
_cell_angle_alpha                 89.901755
_cell_angle_beta                  89.917162
_cell_angle_gamma                 119.895665
_cell_volume                      4626.82884633

loop_
_atom_site_label
_atom_site_type_symbol
_atom_type_description
_atom_site_fract_x
_atom_site_fract_y
_atom_site_fract_z
_atom_type_partial_charge
C1    C     C_R   0.235436 0.786207 0.569429 0.545070
C2    C     C_1   0.701666 0.855488 0.861579 -0.091215
C3    C     C_2   0.727804 0.030046 0.133015 0.243058
C4    C     C_2   0.084992 0.675827 0.121756 0.301013
C5    C     C_2   0.341865 0.371063 0.127297 0.300519
C6    C     C_2   0.636659 0.079298 0.213323 0.205860
C7    C     C_2   0.955671 0.529750 0.203658 0.208820
C8    C     C_2   0.439005 0.322910 0.214933 0.208391
C9    C     C_2   0.840589 0.948773 0.691618 0.277348
C10   C     C_2   0.158109 0.004454 0.682560 0.290975
C11   C     C_2   0.958735 0.212689 0.692219 0.203873
C12   C     C_2   0.710636 0.673695 0.705575 0.261778
C13   C     C_1   0.120245 0.887305 0.853414 0.032332
C14   C     C_2   0.388492 0.994600 0.711964 0.213101
C15   C     C_2   0.065146 0.454274 0.719022 0.218040
C16   C     C_2   0.569086 0.626882 0.818537 0.245067
C17   C     C_2   0.332792 0.887876 0.826953 0.291235
C18   C     C_2   0.237094 0.492184 0.824939 0.281118
C19   C     C_1   0.122050 0.247868 0.854570 -0.061871
C20   C     C_1   0.612298 0.802357 0.661178 -0.039076
C21   C     C_1   0.190252 0.816893 0.659038 0.009679
C22   C     C_1   0.182847 0.371203 0.658172 -0.034791
C23   C     C_1   0.589461 0.789235 0.618554 0.019916
C24   C     C_1   0.205999 0.802658 0.617255 0.053802
C25   C     C_1   0.195846 0.400179 0.616324 0.032161
C26   C     C_R   0.106592 0.222552 0.088540 0.614836
C27   C     C_R   0.212998 0.447679 0.568946 0.547740
C28   C     C_R   0.843701 0.912806 0.096671 0.546185
C29   C     C_R   0.114988 0.893417 0.088725 0.620398
C30   C     C_R   0.071787 0.164173 0.943108 0.516918
C31   C     C_R   0.779311 0.886677 0.951027 0.573462
C32   C     C_R   0.090957 0.930690 0.943598 0.520047
C33   C     C_R   0.625797 0.899331 0.363648 -0.134585
C34   C     C_R   0.133232 0.706356 0.355505 -0.128112
C35   C     C_R   0.280814 0.385077 0.361350 -0.131266
C36   C     C_R   0.669559 0.926091 0.316835 -0.015539
C37   C     C_R   0.108386 0.716582 0.307583 -0.004222
C38   C     C_R   0.549773 0.763711 0.569690 0.543761
C39   C     C_R   0.269247 0.354467 0.312447 -0.003137
C40   C     C_R   0.729011 0.957268 0.217063 -0.035924
C41   C     C_R   0.081143 0.740698 0.207602 -0.016812
C42   C     C_R   0.251502 0.316476 0.210813 -0.024720
C43   C     C_R   0.233450 0.786567 0.431252 0.543041
C44   C     C_R   0.212437 0.445099 0.431698 0.542311
C45   C     C_R   0.556437 0.767763 0.432170 0.546723
C46   C     C_R   0.676582 0.012772 0.239359 -0.011903
C47   C     C_R   0.034661 0.633273 0.228869 -0.018167
C48   C     C_R   0.349899 0.338582 0.236239 -0.029989
C49   C     C_3   0.665239 0.722737 0.791712 0.033449
C50   C     C_R   0.652173 0.999167 0.289052 -0.108324
C51   C     C_R   0.053681 0.623187 0.278104 -0.154061
C52   C     C_R   0.358924 0.362532 0.286154 -0.156663
C53   C     C_R   0.756037 0.964718 0.166508 -0.012538
C54   C     C_R   0.089162 0.760104 0.156404 0.000295
C55   C     C_R   0.241678 0.310637 0.158928 0.000692
C56   C     C_R   0.808519 0.906647 0.147860 -0.001984
C57   C     C_R   0.120205 0.867540 0.139602 -0.008705
C58   C     C_R   0.134558 0.265340 0.138383 -0.003812
C59   C     C_R   0.688952 0.766634 0.371407 -0.130576
C60   C     C_3   0.273735 0.928064 0.792761 0.014851
C61   C     C_R   0.218490 0.904699 0.367388 -0.134248
C62   C     C_R   0.087322 0.335489 0.365182 -0.137806
C63   C     C_R   0.736905 0.795827 0.325055 0.015956
C64   C     C_R   0.190660 0.915696 0.319690 0.018151
C65   C     C_R   0.074589 0.304557 0.316511 0.010653
C66   C     C_R   0.722129 0.872030 0.296519 0.063291
C67   C     C_R   0.139576 0.821673 0.289004 0.060584
C68   C     C_R   0.167045 0.317857 0.289390 0.061985
C69   C     C_R   0.792967 0.744868 0.305651 -0.129864
C70   C     C_R   0.216709 0.019451 0.301562 -0.119378
C71   C     C_3   0.138988 0.400368 0.797362 0.010615
C72   C     C_R   0.972483 0.267397 0.293865 -0.131630
C73   C     C_R   0.828894 0.764536 0.257476 -0.115246
C74   C     C_R   0.197889 0.030912 0.252790 -0.096270
C75   C     C_R   0.962948 0.247948 0.244179 -0.133509
C76   C     C_R   0.807126 0.833495 0.227850 0.015542
C77   C     C_R   0.156620 0.939845 0.221460 0.009638
C78   C     C_R   0.055309 0.265583 0.216792 -0.005862
C79   C     C_3   0.541862 0.818170 0.741614 -0.277948
C80   C     C_3   0.106695 0.726904 0.737276 -0.267263
C81   C     C_3   0.268037 0.340826 0.730436 -0.252512
C82   C     C_3   0.641607 0.710826 0.734521 -0.033268
C83   C     C_R   0.754449 0.889351 0.247186 0.043003
C84   C     C_R   0.124572 0.833683 0.239349 0.024019
C85   C     C_R   0.158019 0.299074 0.238971 0.028368
C86   C     C_R   0.834719 0.844009 0.178870 -0.150945
C87   C     C_R   0.149208 0.954559 0.172290 -0.143084
C88   C     C_R   0.044418 0.247358 0.167507 -0.159384
C89   C     C_R   0.628348 0.814306 0.389579 0.000111
C90   C     C_R   0.192399 0.800501 0.384723 0.001983
C91   C     C_R   0.191704 0.382162 0.386763 -0.003068
C92   C     C_3   0.744720 0.925336 0.724823 -0.038763
C93   C     C_3   0.291229 0.899861 0.738397 -0.099734
C94   C     C_3   0.111311 0.901826 0.713919 -0.045089
C95   C     C_3   0.061353 0.225354 0.717498 -0.062459
C96   C     C_3   0.771949 0.933551 0.780174 -0.200793
C97   C     C_3   0.094665 0.923032 0.768058 -0.217312
C98   C     C_3   0.044119 0.195444 0.772664 -0.201199
C99   C     C_1   0.731688 0.870509 0.903420 -0.001242
C100  C     C_1   0.104425 0.904637 0.894703 0.052833
C101  C     C_1   0.102225 0.210894 0.895315 0.019858
C102  C     C_3   0.637255 0.813975 0.713804 0.019457
C103  C     C_3   0.177167 0.838900 0.710449 0.028022
C104  C     C_3   0.152106 0.430842 0.740533 -0.072787
C105  C     C_3   0.164648 0.342299 0.710283 -0.005667
C106  C     C_3   0.568827 0.838864 0.796761 -0.248238
C107  C     C_3   0.085989 0.745700 0.790926 -0.235860
C108  C     C_3   0.248802 0.299135 0.783735 -0.232072
C109  C     C_3   0.676530 0.836447 0.808935 -0.038921
C110  C     C_3   0.144512 0.871281 0.802777 0.025400
C111  C     C_3   0.138718 0.286927 0.803621 -0.041724
C112  C     C_2   0.769020 0.717661 0.805791 0.251179
C113  C     C_2   0.327210 0.052600 0.801558 0.177650
C114  C     C_2   0.032688 0.389174 0.819480 0.235450
Cr1   Cr    Cr6+3 0.164410 0.584450 0.499910 1.046743
Cr2   Cr    Cr6+3 0.415550 0.579960 0.499910 1.035782
Cr3   Cr    Cr6+3 0.420040 0.835590 0.499910 1.044090
Cr4   Cr    Cr6+3 0.155170 0.075460 0.019960 1.127222
Cr5   Cr    Cr6+3 0.924540 0.079710 0.019960 1.075969
Cr6   Cr    Cr6+3 0.920290 0.844830 0.019960 1.110285
H1    H     H_    0.580978 0.921492 0.806426 0.136096
H2    H     H_    0.580598 0.937842 0.377932 0.135484
H3    H     H_    0.112360 0.625139 0.369044 0.140605
H4    H     H_    0.361468 0.419081 0.378327 0.136169
H5    H     H_    0.876016 0.801606 0.164367 0.136029
H6    H     H_    0.169919 0.036055 0.159071 0.151104
H7    H     H_    0.963002 0.216507 0.151859 0.127590
H8    H     H_    0.869813 0.722164 0.242785 0.145793
H9    H     H_    0.219541 0.111698 0.239060 0.151087
H10   H     H_    0.883845 0.221369 0.226885 0.149594
H11   H     H_    0.806269 0.687484 0.327270 0.117901
H12   H     H_    0.995338 0.707878 0.797080 0.174524
H13   H     H_    0.253514 0.091816 0.324751 0.118962
H14   H     H_    0.900959 0.256332 0.314266 0.128410
H15   H     H_    0.693753 0.702924 0.392112 0.129325
H16   H     H_    0.262559 0.976724 0.390450 0.123276
H17   H     H_    0.017876 0.330991 0.385102 0.130656
H18   H     H_    0.726373 0.992674 0.716537 0.138579
H19   H     H_    0.027417 0.845786 0.698773 0.156637
H20   H     H_    0.079824 0.165165 0.699368 0.161300
H21   H     H_    0.783076 0.013358 0.794064 0.129551
H22   H     H_    0.004620 0.885492 0.775524 0.132523
H23   H     H_    0.245455 0.217924 0.785243 0.165825
H24   H     H_    0.042803 0.115891 0.777991 0.126145
H25   H     H_    0.851677 0.936727 0.787296 0.135676
H26   H     H_    0.130778 0.012387 0.775741 0.143973
H27   H     H_    0.962574 0.179121 0.786334 0.149832
H28   H     H_    0.839386 0.787594 0.822497 0.075961
H29   H     H_    0.344473 0.109565 0.771639 0.170638
H30   H     H_    0.952474 0.327212 0.806000 0.120265
H31   H     H_    0.771937 0.119490 0.135081 0.103688
H32   H     H_    0.106495 0.615189 0.134294 0.114895
H33   H     H_    0.420103 0.431454 0.143129 0.129624
H34   H     H_    0.462356 0.739468 0.736734 0.141144
H35   H     H_    0.582524 0.045788 0.182088 0.169095
H36   H     H_    0.950327 0.452167 0.214070 0.120431
H37   H     H_    0.522764 0.369901 0.228920 0.137911
H38   H     H_    0.610752 0.039608 0.305483 0.147908
H39   H     H_    0.023009 0.541658 0.293904 0.106141
H40   H     H_    0.435300 0.383773 0.305079 0.104127
H41   H     H_    0.528978 0.884984 0.726569 0.118496
H42   H     H_    0.025994 0.676048 0.718530 0.170560
H43   H     H_    0.288553 0.288172 0.707519 0.200898
H44   H     H_    0.833931 0.959822 0.652857 0.121337
H45   H     H_    0.150838 0.679131 0.736856 0.188195
H46   H     H_    0.127683 0.998691 0.645679 0.122879
H47   H     H_    0.956312 0.212795 0.652696 0.124933
H48   H     H_    0.556216 0.640373 0.728750 0.107202
H49   H     H_    0.319114 0.837661 0.740371 0.080796
H50   H     H_    0.231390 0.509854 0.735012 0.158185
H51   H     H_    0.702047 0.593667 0.713606 0.174977
H52   H     H_    0.468591 0.035661 0.729790 0.096304
H53   H     H_    0.981680 0.416319 0.733238 0.163277
H54   H     H_    0.532429 0.641344 0.850594 0.126603
H55   H     H_    0.421065 0.921833 0.822678 0.086952
H56   H     H_    0.341622 0.425409 0.728829 0.140708
H57   H     H_    0.280967 0.472565 0.852237 0.134850
H58   H     H_    0.497437 0.777069 0.818616 0.168239
H59   H     H_    0.114068 0.701284 0.815452 0.232681
H60   H     H_    0.320422 0.356259 0.806513 0.176647
O1    O     O_R   0.137150 0.468200 0.553200 -0.484224
O2    O     O_R   0.140110 0.470540 0.446010 -0.526071
O3    O     O_R   0.529460 0.669570 0.446010 -0.518125
O4    O     O_R   0.330430 0.859890 0.446010 -0.514254
O5    O     O_R   0.176710 0.690910 0.450560 -0.509056
O6    O     O_R   0.309090 0.485800 0.450560 -0.505443
O7    O     O_R   0.514200 0.823290 0.450560 -0.505539
O8    O     O_3   0.333333 0.666667 0.499990 -0.279124
O9    O     O_R   0.176750 0.985260 0.074180 -0.497059
O10   O     O_R   0.014740 0.191490 0.074180 -0.536062
O11   O     O_R   0.808510 0.823250 0.074180 -0.464194
O12   O     O_R   0.531800 0.668950 0.553200 -0.496349
O13   O     O_R   0.146100 0.172630 0.068980 -0.448269
O14   O     O_R   0.827370 0.973470 0.068980 -0.448802
O15   O     O_R   0.026530 0.853900 0.068980 -0.475950
O16   O     O_3   0.000000 0.000000 0.020040 -0.338886
O17   O     O_R   0.148270 0.170520 0.969620 -0.473420
O18   O     O_R   0.829480 0.977750 0.969620 -0.507873
O19   O     O_R   0.022250 0.851730 0.969620 -0.462735
O20   O     O_2   0.773464 0.633080 0.800424 -0.481708
O21   O     O_2   0.346606 0.090247 0.842854 -0.476854
O22   O     O_2   0.034791 0.448552 0.852657 -0.432144
O23   O     O_R   0.331050 0.862850 0.553200 -0.487619
O24   O     O_2   0.652445 0.983540 0.103782 -0.450496
O25   O     O_2   0.058289 0.672746 0.079198 -0.443302
O26   O     O_2   0.338380 0.358778 0.083201 -0.457708
O27   O     O_2   0.659914 0.170791 0.228166 -0.498597
O28   O     O_2   0.891030 0.528803 0.173402 -0.463405
O29   O     O_2   0.418691 0.252719 0.183922 -0.473042
O30   O     O_2   0.926109 0.957092 0.707158 -0.578477
O31   O     O_2   0.231587 0.093149 0.697232 -0.541199
O32   O     O_2   0.878643 0.202371 0.714896 -0.556938
O33   O     O_2   0.772116 0.728256 0.672424 -0.503907
O34   O     O_R   0.179100 0.982980 0.967000 -0.445993
O35   O     O_2   0.380551 0.024655 0.671132 -0.445717
O36   O     O_2   0.086911 0.513045 0.682976 -0.525445
O37   O     O_2   0.534884 0.531476 0.805764 -0.498052
O38   O     O_2   0.285141 0.821164 0.859618 -0.436142
O39   O     O_2   0.263891 0.589095 0.818752 -0.500517
O40   O     O_R   0.017020 0.196120 0.967000 -0.462902
O41   O     O_R   0.803880 0.820900 0.967000 -0.497053
O42   O     O_R   0.173970 0.688730 0.549930 -0.488497
O43   O     O_R   0.311270 0.485240 0.549930 -0.503523
O44   O     O_R   0.514760 0.826030 0.549930 -0.499089

loop_
_geom_bond_atom_site_label_1
_geom_bond_atom_site_label_2
_ccdc_geom_bond_type
C52   H40   S    
C71   C104  S    
C97   H22   S    
C2    C109  S    
C34   H3    S    
C68   C85   A    
C44   O2    A    
C9    H44   S    
C34   C37   A    
C3    C53   S    
C97   H26   S    
C26   O13   A    
Cr1   O42   S    
C15   O36   D    
Cr5   O10   S    
C92   H18   S    
C93   C103  S    
C8    C48   S    
C26   O10   A    
Cr3   O4    S    
C36   C50   A    
C4    O25   D    
C82   H48   S    
C50   H38   S    
C40   C46   A    
C96   H25   S    
Cr2   O8    S    
C80   C107  S    
C93   H49   S    
C95   H20   S    
Cr6   O16   S    
C104  H50   S    
C35   H4    S    
C32   O19   A    
C37   C51   A    
Cr1   O5    S    
Cr4   O9    S    
C36   C66   A    
C20   C102  S    
C98   H27   S    
C43   O5    A    
C16   H54   S    
Cr5   O18   S    
Cr2   O3    S    
C43   O4    A    
C92   C96   S    
Cr6   O19   S    
C76   C83   A    
Cr5   O16   S    
C59   C89   A    
C38   O44   A    
Cr4   O13   S    
C72   H14   S    
C95   C105  S    
C66   C83   A    
C31   O41   A    
C94   H19   S    
C31   C99   S    
C4    C54   S    
C7    H36   S    
C63   C69   A    
C18   H57   S    
C74   C77   A    
C71   C111  S    
C70   C74   A    
C70   H13   S    
C28   O14   A    
C114  O22   D    
C79   C102  S    
C69   C73   A    
C113  O21   D    
C15   C104  S    
C3    H31   S    
Cr4   O16   S    
C14   C93   S    
C6    H35   S    
C75   H10   S    
C92   C102  S    
C107  H59   S    
C60   C93   S    
C39   C52   A    
Cr2   O12   S    
C81   C108  S    
C67   C84   A    
C31   O18   A    
C86   H5    S    
C11   H47   S    
C3    O24   D    
C81   H43   S    
C40   C83   A    
C60   C113  S    
C65   C72   A    
C12   O33   D    
C79   H41   S    
C72   C75   A    
C8    H37   S    
C9    C92   S    
C104  C105  S    
Cr1   O1    S    
C12   H51   S    
C35   C91   A    
C28   C56   S    
C4    H32   S    
C77   C87   A    
C81   C105  S    
C95   C98   S    
C43   C90   S    
C15   H53   S    
C80   C103  S    
C33   C36   A    
Cr6   O15   S    
C64   C67   A    
C113  H29   S    
C32   C100  S    
C106  H58   S    
C16   C49   S    
C14   H52   S    
Cr3   O7    S    
Cr6   O11   S    
C45   O7    A    
C47   C51   A    
C94   C97   S    
C29   O15   A    
C41   C84   A    
Cr2   O6    S    
C22   C25   T    
C57   C87   A    
C79   C106  S    
C1    O42   A    
C82   C102  S    
C7    C47   S    
C49   C82   S    
C61   C64   A    
C35   C39   A    
C34   C90   A    
C39   C68   A    
C13   C110  S    
C33   C89   A    
C11   O32   D    
C56   C86   A    
C20   C23   T    
C9    O30   D    
C69   H11   S    
C65   C68   A    
C62   C91   A    
C38   O12   A    
C41   C47   A    
C12   C82   S    
C16   O37   D    
Cr4   O34   S    
C42   C85   A    
C42   C48   A    
C26   C58   S    
C80   H42   S    
C6    O27   D    
C44   C91   S    
C27   O1    A    
C49   C112  S    
C97   C110  S    
C78   C85   A    
C29   C57   S    
C94   C103  S    
C64   C70   A    
Cr5   O40   S    
C5    O26   D    
C107  C110  S    
C29   O9    A    
C21   C24   T    
C55   C58   A    
C25   C27   S    
C114  H30   S    
C8    O29   D    
C22   C105  S    
C28   O11   A    
C76   C86   A    
C80   H45   S    
Cr1   O2    S    
C45   C89   S    
C61   C90   A    
C45   O3    A    
C108  H60   S    
C30   O40   A    
C81   H56   S    
C53   C56   A    
C11   C95   S    
C18   C71   S    
C78   C88   A    
C98   C111  S    
C6    C46   S    
C62   C65   A    
C98   H24   S    
C27   O43   A    
C5    C55   S    
C107  H12   S    
Cr3   O8    S    
C58   C88   A    
C2    C99   T    
C7    O28   D    
C18   O39   D    
C19   C111  S    
C10   H46   S    
C88   H7    S    
C23   C38   S    
C96   C109  S    
C46   C50   A    
C59   C63   A    
C77   C84   A    
C108  C111  S    
Cr5   O14   S    
Cr2   O43   S    
C96   H21   S    
C49   C109  S    
C32   O34   A    
Cr6   O41   S    
C54   C57   A    
C79   H34   S    
Cr1   O8    S    
C19   C101  T    
C33   H2    S    
C13   C100  T    
C42   C55   A    
C5    H33   S    
C37   C67   A    
C106  H1    S    
C51   H39   S    
C73   C76   A    
C30   C101  S    
C14   O35   D    
C108  H23   S    
C62   H17   S    
C75   C78   A    
C41   C54   A    
C63   C66   A    
C60   C110  S    
C17   C60   S    
C21   C103  S    
C112  H28   S    
C10   O31   D    
C48   C52   A    
C30   O17   A    
C71   C114  S    
C1    C24   S    
C73   H8    S    
C40   C53   A    
C74   H9    S    
C10   C94   S    
Cr3   O44   S    
Cr3   O23   S    
Cr4   O17   S    
C112  O20   D    
C87   H6    S    
C59   H15   S    
C17   O38   D    
C17   H55   S    
C61   H16   S    
C44   O6    A    
C106  C109  S    
C1    O23   A    
