data_mof_unit_34356.cif
_audit_creation_date              2012-12-11T15:08:42-0500
_audit_creation_method            fapswitch 2.2
_symmetry_space_group_name_H-M    P1
_symmetry_Int_Tables_number       1
_space_group_crystal_system       triclinic
_cell_length_a                    26.805213
_cell_length_b                    7.073991
_cell_length_c                    11.974669
_cell_angle_alpha                 90.125943
_cell_angle_beta                  103.331264
_cell_angle_gamma                 90.241713
_cell_volume                      2209.41703073

loop_
_atom_site_label
_atom_site_type_symbol
_atom_type_description
_atom_site_fract_x
_atom_site_fract_y
_atom_site_fract_z
_atom_type_partial_charge
O1    O     O_R   0.437360 0.505910 0.042120 -0.538428
O2    O     O_R   0.562640 0.005910 0.957880 -0.538124
O3    O     O_R   0.542480 0.176660 0.157100 -0.541000
O4    O     O_R   0.457520 0.676660 0.842900 -0.541071
C1    C     C_R   0.556395 0.345033 0.198034 0.691041
C2    C     C_R   0.443576 0.844085 0.801937 0.690952
O5    O     O_R   0.436520 0.176250 0.054800 -0.541362
O6    O     O_R   0.563480 0.676250 0.945200 -0.541622
O7    O     O_R   0.455920 0.005040 0.854840 -0.538210
O8    O     O_R   0.544080 0.505040 0.145160 -0.538171
C3    C     C_R   0.417482 0.344418 0.063537 0.687644
C4    C     C_R   0.582505 0.844967 0.936443 0.687891
O9    O     O_3   0.506490 0.338900 0.934520 -0.373379
O10   O     O_3   0.493510 0.838900 0.065480 -0.373527
V1    V     V_3+5 0.498800 0.064400 0.012150 1.423373
V2    V     V_3+5 0.501200 0.564400 0.987850 1.422706
C5    C     C_R   0.680234 0.864220 0.756965 -0.151704
C6    C     C_R   0.319700 0.348125 0.243131 -0.150735
H1    H     H_    0.598095 0.858704 0.721813 0.103986
H2    H     H_    0.401820 0.342243 0.278242 0.104261
H3    H     H_    0.679665 0.868546 0.666308 0.140296
H4    H     H_    0.320240 0.345247 0.333797 0.140122
C7    C     C_R   0.631775 0.853451 0.903401 -0.029850
C8    C     C_R   0.368220 0.351057 0.096677 -0.030475
C9    C     C_R   0.867506 0.852976 0.210539 -0.188264
C10   C     C_R   0.132556 0.363773 0.789389 -0.187578
C11   C     C_R   0.821590 0.846591 0.245353 -0.110860
C12   C     C_R   0.178479 0.361175 0.754534 -0.109860
C13   C     C_R   0.774957 0.847908 0.164548 -0.162142
C14   C     C_R   0.225086 0.357803 0.835381 -0.162101
C15   C     C_R   0.773016 0.855121 0.045169 0.070422
C16   C     C_R   0.226996 0.357023 0.954829 0.070321
C17   C     C_R   0.820352 0.860419 0.010169 0.055786
C18   C     C_R   0.179645 0.358212 0.989839 0.055743
C19   C     C_R   0.725797 0.857078 0.959824 0.061628
C20   C     C_R   0.274201 0.355087 0.040229 0.061500
C21   C     C_R   0.726834 0.863085 0.841182 0.083424
C22   C     C_R   0.273127 0.352168 0.158895 0.083334
C23   C     C_R   0.774250 0.867449 0.808992 -0.069930
C24   C     C_R   0.225700 0.352956 0.191080 -0.069783
C25   C     C_R   0.819970 0.866492 0.892613 -0.251422
C26   C     C_R   0.180001 0.356462 0.107437 -0.251718
C27   C     C_R   0.677334 0.852912 0.988370 -0.210211
C28   C     C_R   0.322683 0.355649 0.011707 -0.210517
C29   C     C_R   0.633311 0.858854 0.788002 -0.190072
C30   C     C_R   0.366632 0.346781 0.212072 -0.189381
C31   C     C_R   0.867463 0.859679 0.093953 -0.066128
C32   C     C_R   0.132554 0.361992 0.906028 -0.066680
H5    H     H_    0.673348 0.848466 0.075772 0.095678
H6    H     H_    0.326693 0.358276 0.924295 0.095964
H7    H     H_    0.903335 0.852791 0.274877 0.104003
H8    H     H_    0.096752 0.367245 0.725038 0.104283
H9    H     H_    0.741282 0.843024 0.198998 0.118959
H10   H     H_    0.258768 0.355624 0.800909 0.118958
H11   H     H_    0.822077 0.841218 0.335986 0.152975
H12   H     H_    0.178016 0.362017 0.663852 0.153195
H13   H     H_    0.855633 0.870134 0.864555 0.130161
H14   H     H_    0.144334 0.357447 0.135501 0.130361
C33   C     C_R   0.091470 0.862785 0.311101 -0.033202
C34   C     C_R   0.908491 0.357102 0.689143 -0.032931
C35   C     C_R   0.409011 0.849962 0.688002 -0.030584
C36   C     C_R   0.591040 0.354992 0.311754 -0.030181
C37   C     C_R   0.105501 0.884361 0.517025 -0.163130
C38   C     C_R   0.894498 0.318048 0.484171 -0.162462
C39   C     C_R   0.072114 0.879621 0.409206 -0.174590
C40   C     C_R   0.927886 0.331220 0.591739 -0.175358
C41   C     C_R   0.144384 0.851653 0.320532 -0.204374
C42   C     C_R   0.855577 0.369045 0.679349 -0.204469
C43   C     C_R   0.179379 0.859487 0.429064 0.106086
C44   C     C_R   0.820607 0.354109 0.571115 0.105783
C45   C     C_R   0.158715 0.875236 0.527776 0.138456
C46   C     C_R   0.841284 0.329147 0.473031 0.139090
C47   C     C_R   0.233887 0.854023 0.442866 0.083933
C48   C     C_R   0.766117 0.362304 0.557012 0.083609
C49   C     C_R   0.266675 0.862874 0.555660 0.067212
C50   C     C_R   0.733354 0.347217 0.444465 0.067211
C51   C     C_R   0.243889 0.877655 0.650711 -0.186860
C52   C     C_R   0.756145 0.323475 0.349987 -0.185968
C53   C     C_R   0.191128 0.883507 0.636682 -0.195311
C54   C     C_R   0.808891 0.314665 0.364361 -0.195310
C55   C     C_R   0.256696 0.840982 0.347771 -0.180224
C56   C     C_R   0.743298 0.383898 0.651605 -0.179732
C57   C     C_R   0.309478 0.834864 0.361876 -0.204560
C58   C     C_R   0.690527 0.392327 0.637197 -0.205119
C59   C     C_R   0.341878 0.841296 0.470909 0.135034
C60   C     C_R   0.658147 0.379566 0.528362 0.135171
C61   C     C_R   0.321171 0.856209 0.569578 0.085139
C62   C     C_R   0.678874 0.356283 0.430241 0.084914
C63   C     C_R   0.395110 0.831353 0.481898 -0.163556
C64   C     C_R   0.604901 0.390329 0.517044 -0.162957
C65   C     C_R   0.428440 0.834336 0.589902 -0.178758
C66   C     C_R   0.571561 0.378537 0.409265 -0.179424
C67   C     C_R   0.356100 0.861739 0.678278 -0.214747
C68   C     C_R   0.643969 0.343757 0.321771 -0.214529
H15   H     H_    0.175520 0.895574 0.712287 0.137824
H16   H     H_    0.824504 0.295809 0.289210 0.138290
H17   H     H_    0.343791 0.871676 0.757552 0.095529
H18   H     H_    0.656278 0.326445 0.242909 0.095267
H19   H     H_    0.469373 0.823712 0.597083 0.100826
H20   H     H_    0.530588 0.387889 0.401818 0.100714
H21   H     H_    0.325108 0.823907 0.286257 0.137790
H22   H     H_    0.674887 0.409552 0.712427 0.138304
H23   H     H_    0.089713 0.897298 0.592280 0.115249
H24   H     H_    0.910297 0.298248 0.409407 0.114903
H25   H     H_    0.031184 0.889967 0.402153 0.101468
H26   H     H_    0.968842 0.321132 0.599116 0.101428
H27   H     H_    0.156642 0.840097 0.241251 0.096335
H28   H     H_    0.843324 0.389060 0.758090 0.096285
H29   H     H_    0.265663 0.885828 0.738105 0.126174
H30   H     H_    0.734389 0.310375 0.262807 0.126183
H31   H     H_    0.234909 0.834779 0.260317 0.127465
H32   H     H_    0.765062 0.394811 0.738903 0.127571
H33   H     H_    0.410954 0.819263 0.406681 0.115472
H34   H     H_    0.589040 0.408538 0.591844 0.115181
O11   O     O_R   0.955980 0.206520 0.854760 -0.538158
O12   O     O_R   0.044020 0.706520 0.145240 -0.538291
O13   O     O_R   0.063490 0.536770 0.945200 -0.540706
O14   O     O_R   0.936510 0.036770 0.054800 -0.541103
C69   C     C_R   0.082852 0.368779 0.937947 0.680915
C70   C     C_R   0.917167 0.868219 0.062107 0.681157
O15   O     O_R   0.957530 0.536190 0.842880 -0.541135
O16   O     O_R   0.042470 0.036190 0.157120 -0.541123
O17   O     O_R   0.937350 0.707210 0.042130 -0.537945
O18   O     O_R   0.062650 0.207210 0.957870 -0.538413
C71   C     C_R   0.943243 0.367275 0.802582 0.692423
C72   C     C_R   0.056784 0.868271 0.197450 0.692267
O19   O     O_3   0.993540 0.373870 0.065440 -0.373414
O20   O     O_3   0.006460 0.873870 0.934560 -0.373565
V3    V     V_3+5 0.001200 0.648440 0.987860 1.423615
V4    V     V_3+5 0.998800 0.148440 0.012140 1.422769
C73   C     C_1   0.777486 0.872075 0.690006 0.299953
N1    N     N_1   0.780126 0.875471 0.594906 -0.362653
C74   C     C_1   0.222434 0.350529 0.310073 0.300181
N2    N     N_1   0.219769 0.348692 0.405175 -0.362999

loop_
_geom_bond_atom_site_label_1
_geom_bond_atom_site_label_2
_ccdc_geom_bond_type
C22   C24   A    
C37   C39   A    
O16   C72   A    
C7    C29   A    
C11   C13   A    
C58   H22   S    
O1    C3    A    
O2    C4    A    
O20   V3    S    
C26   H14   S    
C2    O7    A    
C45   C53   A    
C12   H12   S    
O3    V1    S    
C23   C25   A    
C69   O18   A    
C33   C72   S    
O15   C71   A    
C14   H10   S    
C4    C7    S    
C48   C50   A    
C16   C20   A    
C2    C35   S    
C34   C71   S    
C19   C21   A    
C58   C60   A    
O13   C69   A    
C52   C54   A    
C68   H18   S    
C3    C8    S    
C46   C54   A    
C7    C27   A    
C47   C55   A    
C43   C45   A    
C33   C41   A    
O12   V3    S    
C55   H31   S    
C18   C26   A    
C36   C66   A    
C44   C48   A    
C15   C17   A    
C43   C47   A    
C63   C65   A    
C19   C27   A    
C9    C31   A    
C70   O17   A    
C10   C32   A    
C59   C61   A    
C34   C40   A    
O6    V2    S    
O12   C72   A    
O17   V3    S    
C47   C49   A    
C64   H34   S    
O19   V3    S    
C48   C56   A    
C6    C30   A    
C39   H25   S    
C55   C57   A    
C13   H9    S    
C32   C69   S    
C62   C68   A    
C51   C53   A    
C63   H33   S    
C37   H23   S    
C60   C64   A    
O15   V3    S    
C59   C63   A    
C27   H5    S    
C5    H3    S    
C5    C29   A    
C41   C43   A    
C16   C18   A    
O4    V2    S    
O5    C3    A    
C9    H7    S    
C53   H15   S    
O14   V4    S    
C10   H8    S    
C64   C66   A    
O6    C4    A    
O18   V4    S    
C52   H30   S    
O1    V2    S    
C5    C21   A    
C51   H29   S    
O2    V1    S    
C49   C51   A    
C49   C61   A    
C31   C70   S    
C57   C59   A    
C37   C45   A    
C56   C58   A    
C36   C68   A    
C74   N2    T    
C17   C31   A    
C15   C19   A    
C20   C28   A    
O4    C2    A    
C54   H16   S    
C73   N1    T    
C67   H17   S    
O13   V3    S    
C66   H20   S    
C28   H6    S    
C38   H24   S    
C50   C62   A    
C57   H21   S    
C6    H4    S    
C50   C52   A    
C24   C26   A    
O3    C1    A    
O20   V4    S    
H1    C29   S    
C9    C11   A    
C56   H32   S    
C24   C74   S    
C11   H11   S    
C10   C12   A    
O11   C71   A    
C17   C25   A    
C12   C14   A    
C6    C22   A    
O19   V4    S    
C8    C30   A    
C1    O8    A    
C21   C23   A    
O8    V2    S    
C33   C39   A    
C20   C22   A    
C14   C16   A    
C41   H27   S    
C40   H26   S    
C23   C73   S    
C8    C28   A    
C61   C67   A    
O5    V1    S    
C1    C36   S    
C60   C62   A    
C38   C46   A    
O7    V1    S    
O14   C70   A    
C25   H13   S    
C18   C32   A    
C34   C42   A    
C13   C15   A    
O9    V2    S    
C42   C44   A    
O10   V1    S    
C44   C46   A    
C42   H28   S    
C65   H19   S    
C35   C67   A    
O16   V4    S    
H2    C30   S    
C35   C65   A    
C38   C40   A    
O11   V4    S    
