data_mof_unit_49143.cif
_audit_creation_date              2012-12-11T16:28:21-0500
_audit_creation_method            fapswitch 2.2
_symmetry_space_group_name_H-M    P1
_symmetry_Int_Tables_number       1
_space_group_crystal_system       triclinic
_cell_length_a                    16.780735
_cell_length_b                    7.2463
_cell_length_c                    15.037401
_cell_angle_alpha                 90.00104
_cell_angle_beta                  94.437651
_cell_angle_gamma                 89.997791
_cell_volume                      1823.03981081

loop_
_atom_site_label
_atom_site_type_symbol
_atom_type_description
_atom_site_fract_x
_atom_site_fract_y
_atom_site_fract_z
_atom_type_partial_charge
O1    O     O_R   0.663460 0.361760 0.165970 -0.527802
O2    O     O_R   0.336540 0.638240 0.834030 -0.527821
O3    O     O_R   0.836540 0.861760 0.334030 -0.527796
O4    O     O_R   0.163460 0.138240 0.665970 -0.527783
O5    O     O_R   0.827100 0.689870 0.163730 -0.536289
O6    O     O_R   0.172900 0.310130 0.836270 -0.536284
O7    O     O_R   0.672900 0.189870 0.336270 -0.536197
O8    O     O_R   0.327100 0.810130 0.663730 -0.536202
C1    C     C_R   0.853928 0.523062 0.144345 0.771743
C2    C     C_R   0.146074 0.476938 0.855656 0.771733
C3    C     C_R   0.646069 0.023068 0.355651 0.771734
C4    C     C_R   0.353929 0.976933 0.644346 0.771671
O9    O     O_R   0.663490 0.691370 0.155500 -0.542288
O10   O     O_R   0.336510 0.308630 0.844500 -0.542289
O11   O     O_R   0.836510 0.191370 0.344500 -0.542305
O12   O     O_R   0.163490 0.808630 0.655500 -0.542302
O13   O     O_R   0.671770 0.863320 0.325740 -0.501766
O14   O     O_R   0.328230 0.136680 0.674260 -0.501742
O15   O     O_R   0.828230 0.363320 0.174260 -0.501769
O16   O     O_R   0.171770 0.636680 0.825740 -0.501779
C5    C     C_R   0.636214 0.522970 0.133372 0.836172
C6    C     C_R   0.363787 0.477029 0.866628 0.836162
C7    C     C_R   0.863777 0.022964 0.366639 0.836080
C8    C     C_R   0.136222 0.977036 0.633362 0.836090
O17   O     O_3   0.752910 0.528800 0.305860 -0.371480
O18   O     O_3   0.247090 0.471200 0.694140 -0.371462
O19   O     O_3   0.747090 0.028800 0.194140 -0.371552
O20   O     O_3   0.252910 0.971200 0.805860 -0.371566
V1    V     V_3+5 0.749460 0.803010 0.239640 1.562643
V2    V     V_3+5 0.250540 0.196990 0.760360 1.562619
V3    V     V_3+5 0.750540 0.303010 0.260360 1.562778
V4    V     V_3+5 0.249460 0.696990 0.739640 1.562742
C9    C     C_1   0.468948 0.994784 0.530227 0.086868
C10   C     C_1   0.531054 0.005225 0.469774 0.086895
C11   C     C_1   0.031057 0.494786 0.969779 0.087275
C12   C     C_1   0.968946 0.505214 0.030226 0.087245
C13   C     C_R   0.027034 0.132526 0.325002 0.082882
C14   C     C_R   0.972958 0.867499 0.675005 0.082837
C15   C     C_R   0.472883 0.631944 0.175097 0.082843
C16   C     C_R   0.527112 0.367948 0.824920 0.082696
C17   C     C_R   0.098681 0.225303 0.312874 0.397526
C18   C     C_R   0.901301 0.774761 0.687139 0.397536
C19   C     C_R   0.401153 0.724336 0.187304 0.397745
C20   C     C_R   0.598834 0.275499 0.812734 0.397750
C21   C     C_R   0.163408 0.203744 0.375354 0.163659
C22   C     C_R   0.836578 0.796321 0.624656 0.163770
C23   C     C_R   0.336457 0.702796 0.124787 0.163844
C24   C     C_R   0.663534 0.297073 0.875245 0.163936
C25   C     C_R   0.155283 0.096659 0.451316 0.308636
C26   C     C_R   0.844710 0.903381 0.548688 0.308571
C27   C     C_R   0.344657 0.596005 0.048747 0.308499
C28   C     C_R   0.655340 0.403928 0.951265 0.308431
C29   C     C_R   0.077695 0.051319 0.477478 -0.113202
C30   C     C_R   0.922301 0.948696 0.522526 -0.113203
C31   C     C_R   0.422274 0.550994 0.022563 -0.113186
C32   C     C_R   0.577725 0.448974 0.977444 -0.113156
C33   C     C_R   0.011412 0.066098 0.411865 -0.119831
C34   C     C_R   0.988583 0.933911 0.588139 -0.119801
C35   C     C_R   0.488549 0.565810 0.088187 -0.119875
C36   C     C_R   0.511450 0.434148 0.911821 -0.119817
C37   C     C_R   0.066483 0.986478 0.565424 -0.067544
C38   C     C_R   0.933514 0.013524 0.434578 -0.067539
C39   C     C_R   0.433522 0.486449 0.934571 -0.067474
C40   C     C_R   0.566478 0.513540 0.065432 -0.067456
C41   C     C_1   0.416441 0.986157 0.581950 -0.093266
C42   C     C_1   0.583558 0.013848 0.418048 -0.093160
C43   C     C_1   0.083566 0.486167 0.918058 -0.093143
C44   C     C_1   0.916437 0.513833 0.081947 -0.093128
O21   O     O_3   0.223713 0.022723 0.494146 -0.560270
C45   C     C_3   0.237377 0.850009 0.454084 -0.132892
H1    H     H_    0.292711 0.788181 0.486037 0.172134
H2    H     H_    0.246293 0.864898 0.381806 0.207039
H3    H     H_    0.187721 0.751687 0.463464 0.114047
O22   O     O_3   0.776283 0.977322 0.505853 -0.560274
C46   C     C_3   0.762626 0.150052 0.545903 -0.132843
H4    H     H_    0.753713 0.135190 0.618185 0.207058
H5    H     H_    0.707292 0.211874 0.513950 0.172110
H6    H     H_    0.812283 0.248363 0.536511 0.114021
O23   O     O_3   0.276269 0.522033 0.005841 -0.560243
C47   C     C_3   0.262654 0.349183 0.045789 -0.132678
H7    H     H_    0.207342 0.287354 0.013785 0.172072
H8    H     H_    0.253720 0.363847 0.118075 0.207004
H9    H     H_    0.312344 0.250982 0.036356 0.113793
O24   O     O_3   0.723730 0.477902 0.994163 -0.560280
C48   C     C_3   0.737367 0.650697 0.954173 -0.132687
H10   H     H_    0.746386 0.635910 0.881911 0.207127
H11   H     H_    0.792640 0.712605 0.986228 0.172048
H12   H     H_    0.687650 0.748898 0.963497 0.113848
O25   O     O_3   0.109093 0.315346 0.233678 -0.509709
C49   C     C_3   0.082597 0.498718 0.242168 -0.076493
H13   H     H_    0.088108 0.570957 0.178021 0.199177
H14   H     H_    0.120161 0.574215 0.294536 0.146387
H15   H     H_    0.018562 0.504539 0.256692 0.091044
O26   O     O_3   0.890868 0.684771 0.766347 -0.509711
C50   C     C_3   0.917396 0.501409 0.757910 -0.076611
H16   H     H_    0.879917 0.425900 0.705476 0.146236
H17   H     H_    0.911793 0.429169 0.822041 0.199164
H18   H     H_    0.981459 0.495623 0.743511 0.091171
O27   O     O_3   0.390638 0.813919 0.266599 -0.509708
C51   C     C_3   0.416825 0.997555 0.258280 -0.077430
H19   H     H_    0.411121 0.069496 0.322471 0.199126
H20   H     H_    0.379188 0.072905 0.205935 0.146543
H21   H     H_    0.480866 0.003999 0.243826 0.091596
O28   O     O_3   0.609346 0.185794 0.733462 -0.509674
C52   C     C_3   0.582955 0.002282 0.741767 -0.077030
H22   H     H_    0.620385 0.926827 0.794288 0.146085
H23   H     H_    0.588776 0.930183 0.677627 0.199160
H24   H     H_    0.518835 0.996196 0.755980 0.091580
Br1   Br    Br    0.734080 0.697678 0.648120 -0.491657
Br2   Br    Br    0.265902 0.302425 0.351895 -0.491799
Br3   Br    Br    0.766076 0.198672 0.851777 -0.491878
Br4   Br    Br    0.233900 0.801075 0.148282 -0.492070
Br5   Br    Br    0.965651 0.070833 0.214922 -0.495647
Br6   Br    Br    0.034350 0.929170 0.785082 -0.495666
Br7   Br    Br    0.534394 0.570482 0.285131 -0.495285
Br8   Br    Br    0.465615 0.429379 0.714876 -0.495393

loop_
_geom_bond_atom_site_label_1
_geom_bond_atom_site_label_2
_ccdc_geom_bond_type
O17   V3    S    
C17   O25   S    
O1    C5    A    
C8    C37   S    
C16   C36   A    
C31   C35   A    
O19   V1    S    
O13   V1    S    
C52   H22   S    
O3    C7    A    
C11   C12   S    
O15   V3    S    
C10   C42   T    
C20   O28   S    
C50   H18   S    
C9    C41   T    
C33   C38   A    
C2    C43   S    
O7    C3    A    
C52   H23   S    
C35   C40   A    
C26   C30   A    
C36   C39   A    
O9    V1    S    
C19   O27   S    
C14   C18   A    
C26   O22   S    
C30   C34   A    
O4    C8    A    
C25   C29   A    
C13   Br5   S    
C23   Br4   S    
O1    V3    S    
O2    V4    S    
C18   C22   A    
O3    V1    S    
C5    C40   S    
C6    C39   S    
C14   C34   A    
C29   C37   A    
C1    O15   A    
C7    C38   S    
C50   H16   S    
C2    O16   A    
C31   C39   A    
O2    C6    A    
C32   C40   A    
C45   H1    S    
O14   V2    S    
C11   C43   T    
C16   C20   A    
C3    C42   S    
C34   C37   A    
O11   C7    A    
O12   C8    A    
C25   O21   S    
O21   C45   S    
O10   V2    S    
C47   H9    S    
O28   C52   S    
O5    V1    S    
C48   H11   S    
C52   H24   S    
O7    V3    S    
O22   C46   S    
O8    V4    S    
O24   C48   S    
C47   H8    S    
C29   C33   A    
C21   Br2   S    
C15   C19   A    
C30   C38   A    
C48   H10   S    
C51   H21   S    
O4    V2    S    
C32   C36   A    
C46   H4    S    
O5    C1    A    
C49   H14   S    
O27   C51   S    
C21   C25   A    
O8    C4    A    
C15   C35   A    
C12   C44   T    
C45   H3    S    
C51   H20   S    
C9    C10   S    
O9    C5    A    
C46   H5    S    
O6    V2    S    
C15   Br7   S    
C49   H15   S    
O16   V4    S    
C48   H12   S    
C3    O13   A    
C18   O26   S    
C47   H7    S    
O6    C2    A    
C23   C27   A    
C50   H17   S    
O11   V3    S    
O18   V4    S    
O12   V4    S    
C4    C41   S    
C22   C26   A    
O10   C6    A    
C28   O24   S    
C1    C44   S    
C49   H13   S    
C16   Br8   S    
C14   Br6   S    
O20   V2    S    
C51   H19   S    
C27   C31   A    
C13   C17   A    
O26   C50   S    
C46   H6    S    
C27   O23   S    
O23   C47   S    
C28   C32   A    
C24   C28   A    
C24   Br3   S    
C22   Br1   S    
C4    O14   A    
C17   C21   A    
C45   H2    S    
O25   C49   S    
C19   C23   A    
C13   C33   A    
C20   C24   A    
