data_mof_unit_51331.cif
_audit_creation_date              2012-12-10T19:07:38-0500
_audit_creation_method            fapswitch 2.2
_symmetry_space_group_name_H-M    P1
_symmetry_Int_Tables_number       1
_space_group_crystal_system       triclinic
_cell_length_a                    10.86247
_cell_length_b                    10.871584
_cell_length_c                    9.596099
_cell_angle_alpha                 90.214146
_cell_angle_beta                  91.093545
_cell_angle_gamma                 92.731786
_cell_volume                      1131.71874611

loop_
_atom_site_label
_atom_site_type_symbol
_atom_type_description
_atom_site_fract_x
_atom_site_fract_y
_atom_site_fract_z
_atom_type_partial_charge
C1    C     C_R   0.490592 0.262132 0.499308 0.805883
C2    C     C_R   0.940895 0.511702 0.619741 -0.091051
C3    C     C_3   0.940823 0.464693 0.767749 0.289765
C4    C     C_3   0.080313 0.461199 0.760160 0.306007
C5    C     C_R   0.421614 0.059738 0.607980 -0.047356
C6    C     C_R   0.466342 0.128323 0.494162 -0.107226
C7    C     C_R   0.482624 0.063816 0.368554 -0.161539
C8    C     C_R   0.480714 0.934913 0.367385 -0.149735
C9    C     C_R   0.467085 0.868748 0.492366 -0.125707
C10   C     C_R   0.424239 0.932063 0.606450 -0.004952
C11   C     C_3   0.457607 0.921656 0.755526 0.134480
C12   C     C_R   0.262531 0.492296 0.498254 0.853227
C13   C     C_3   0.449750 0.061861 0.762466 0.723919
C14   C     C_R   0.544816 0.599368 0.074745 0.116806
C15   C     C_R   0.445487 0.405386 0.072456 0.025119
C16   C     C_R   0.446641 0.405358 0.923825 0.028869
C17   C     C_R   0.534631 0.604339 0.929610 0.159772
C18   C     C_3   0.647314 0.690008 0.927322 0.147688
C19   C     C_3   0.669026 0.664931 0.083825 0.789447
C20   C     C_R   0.491722 0.737221 0.498985 0.808817
C21   C     C_R   0.736606 0.489673 0.501363 0.880867
C22   C     C_R   0.067901 0.511306 0.615093 -0.136657
C23   C     C_R   0.128678 0.481262 0.494800 -0.199344
C24   C     C_R   0.058096 0.433112 0.379571 0.271323
C25   C     C_R   0.928474 0.423493 0.387656 0.303794
C26   C     C_R   0.869180 0.472335 0.504077 -0.170709
Cu1   Cu    Cu3+1 0.499990 0.499980 0.640670 1.049458
Cu2   Cu    Cu3+1 0.500010 0.500020 0.359330 1.059465
H1    H     H_    0.551168 0.890011 0.763111 0.065239
H2    H     H_    0.402605 0.327731 0.126043 0.190136
H3    H     H_    0.404192 0.330126 0.866089 0.223470
H4    H     H_    0.619585 0.784533 0.913097 0.067490
H5    H     H_    0.913819 0.534411 0.844141 0.125984
H6    H     H_    0.127526 0.530473 0.830863 0.113460
H7    H     H_    0.505222 0.112151 0.273211 0.190428
H8    H     H_    0.497694 0.888548 0.270648 0.221568
N1    N     N_R   0.500790 0.500930 0.147930 -0.193709
N2    N     N_R   0.500790 0.500890 0.852020 -0.181258
O1    O     O_R   0.500000 0.319640 0.618810 -0.561277
O2    O     O_R   0.500010 0.319680 0.381230 -0.586302
O3    O     O_R   0.319650 0.499970 0.618810 -0.566827
O4    O     O_R   0.319660 0.500010 0.381230 -0.546471
O5    O     O_R   0.499990 0.680320 0.618770 -0.562724
O6    O     O_R   0.500000 0.680360 0.381190 -0.552300
O7    O     O_R   0.680340 0.499990 0.618770 -0.519555
O8    O     O_R   0.680350 0.500030 0.381190 -0.503759
Cl1   Cl    Cl    0.128759 0.370903 0.232109 -0.593579
Cl2   Cl    Cl    0.319997 0.107274 0.858902 -0.576633
O9    O     O_3   0.559019 0.130932 0.805551 -0.574523
C27   C     C_3   0.668820 0.097296 0.740448 -0.364440
H9    H     H_    0.656238 0.041106 0.644155 0.128235
H10   H     H_    0.725705 0.046611 0.816095 0.164790
H11   H     H_    0.720880 0.182266 0.709335 0.254139
O10   O     O_3   0.739620 0.650361 0.839012 -0.551380
C28   C     C_3   0.789712 0.751888 0.763437 -0.326701
H12   H     H_    0.819727 0.830260 0.832701 0.136237
H13   H     H_    0.722754 0.782039 0.683268 0.170368
H14   H     H_    0.872755 0.724778 0.708629 0.180951
O11   O     O_3   0.759598 0.578498 0.113948 -0.551676
C29   C     C_3   0.878604 0.635747 0.125702 -0.206428
H15   H     H_    0.888593 0.691692 0.222749 0.183018
H16   H     H_    0.902865 0.691408 0.032735 0.149594
H17   H     H_    0.946668 0.563246 0.132155 0.203356
O12   O     O_3   0.666001 0.762924 0.182512 -0.605051
C30   C     C_3   0.721874 0.875335 0.136487 -0.433534
H18   H     H_    0.653105 0.929889 0.079977 0.194730
H19   H     H_    0.803348 0.864108 0.071029 0.162383
H20   H     H_    0.753529 0.929933 0.229399 0.227213
Cl3   Cl    Cl    0.842738 0.332000 0.264031 -0.609675
O13   O     O_3   0.879222 0.348016 0.779394 -0.600205
C31   C     C_3   0.861517 0.321398 0.921313 -0.113470
H21   H     H_    0.784551 0.374272 0.961451 0.228234
H22   H     H_    0.947023 0.340266 0.985182 0.228743
H23   H     H_    0.836235 0.222119 0.932525 0.181172
O14   O     O_3   0.129677 0.342636 0.780268 -0.532349
C32   C     C_3   0.103750 0.254633 0.672977 -0.061535
H24   H     H_    0.183792 0.251471 0.603135 0.138902
H25   H     H_    0.018916 0.269044 0.610575 0.161184
H26   H     H_    0.090611 0.162623 0.721301 0.205312
Cl4   Cl    Cl    0.344231 0.828670 0.845778 -0.581401

loop_
_geom_bond_atom_site_label_1
_geom_bond_atom_site_label_2
_ccdc_geom_bond_type
C28   H12   S    
C32   H26   S    
C21   C26   S    
C7    C8    A    
C16   H3    S    
C12   C23   S    
Cu2   O8    S    
C29   H17   S    
C32   H25   S    
C5    C6    A    
Cu2   O2    S    
Cu1   N2    S    
C15   C16   A    
C29   H16   S    
C18   C19   S    
C8    H8    S    
C15   N1    A    
C4    O14   S    
C12   O4    A    
C1    O2    A    
Cu1   O1    S    
C8    C9    A    
C30   H19   S    
C2    C22   A    
C27   H10   S    
C23   C24   A    
O13   C31   S    
C9    C10   A    
C5    C13   S    
Cu1   O7    S    
O11   C29   S    
C14   C17   A    
C20   O6    A    
C17   C18   S    
C21   O7    A    
C4    H6    S    
C27   H11   S    
C1    C6    S    
C3    O13   S    
C32   H24   S    
C10   C11   S    
C31   H22   S    
C18   O10   S    
C19   O11   S    
C25   C26   A    
Cu2   O6    S    
C29   H15   S    
O14   C32   S    
C12   O3    A    
C13   Cl2   S    
C4    C22   S    
Cu1   O3    S    
C9    C20   S    
C19   O12   S    
C30   H20   S    
C27   H9    S    
C2    C26   A    
C24   C25   A    
C13   O9    S    
C30   H18   S    
C28   H13   S    
C25   Cl3   S    
C3    C4    S    
C20   O5    A    
C15   H2    S    
C21   O8    A    
O10   C28   S    
C24   Cl1   S    
C7    H7    S    
C14   C19   S    
C31   H23   S    
C6    C7    A    
O12   C30   S    
C2    C3    S    
C5    C10   A    
C14   N1    A    
C11   C13   S    
Cu2   N1    S    
Cu2   O4    S    
C17   N2    A    
C11   Cl4   S    
C1    O1    A    
Cu1   O5    S    
C31   H21   S    
C18   H4    S    
C11   H1    S    
O9    C27   S    
C28   H14   S    
Cu1   Cu2   S    
C3    H5    S    
C22   C23   A    
C16   N2    A    
