data_mof_unit_24242.cif
_audit_creation_date              2012-12-10T18:58:10-0500
_audit_creation_method            fapswitch 2.2
_symmetry_space_group_name_H-M    P1
_symmetry_Int_Tables_number       1
_space_group_crystal_system       triclinic
_cell_length_a                    10.977306
_cell_length_b                    10.824341
_cell_length_c                    9.537088
_cell_angle_alpha                 90.144387
_cell_angle_beta                  101.869602
_cell_angle_gamma                 90.308189
_cell_volume                      1108.9630376

loop_
_atom_site_label
_atom_site_type_symbol
_atom_type_description
_atom_site_fract_x
_atom_site_fract_y
_atom_site_fract_z
_atom_type_partial_charge
C1    C     C_R   0.497467 0.262299 0.499189 0.839486
C2    C     C_R   0.484399 0.129237 0.495574 -0.075640
C3    C     C_R   0.469396 0.063984 0.365420 -0.198059
C4    C     C_R   0.469861 0.935153 0.365697 -0.191411
C5    C     C_R   0.485343 0.870839 0.496135 -0.096679
C6    C     C_R   0.482506 0.936868 0.621260 0.140927
C7    C     C_3   0.568247 0.932231 0.764685 -0.476884
C8    C     C_3   0.566403 0.072408 0.764750 -0.458050
C9    C     C_R   0.553820 0.595219 0.086777 0.247835
C10   C     C_R   0.436327 0.412726 0.059147 -0.051545
C11   C     C_R   0.436371 0.412712 0.910265 -0.053620
C12   C     C_R   0.262444 0.495106 0.442662 0.855208
C13   C     C_R   0.554231 0.594969 0.939359 0.256383
C14   C     C_3   0.687878 0.632480 0.966212 -0.502231
C15   C     C_3   0.686839 0.634128 0.125017 -0.478186
C16   C     C_R   0.497845 0.737753 0.499509 0.809660
C17   C     C_R   0.737625 0.496271 0.557105 0.840830
C18   C     C_2   0.126021 0.487278 0.410621 -0.234106
C19   C     C_2   0.063382 0.428100 0.500338 -0.066441
C20   C     C_2   0.872878 0.481761 0.585847 -0.311109
C21   C     C_2   0.927787 0.442773 0.480434 -0.200778
C22   C     C_R   0.481729 0.064016 0.620893 0.122986
Cu1   Cu    Cu3+1 0.499990 0.499980 0.640670 0.969071
Cu2   Cu    Cu3+1 0.500010 0.500020 0.359330 0.971025
H1    H     H_    0.872269 0.423626 0.374648 0.208956
H2    H     H_    0.658040 0.115015 0.760706 0.211526
H3    H     H_    0.386708 0.340733 0.103005 0.146040
H4    H     H_    0.387003 0.340631 0.842736 0.151806
H5    H     H_    0.747881 0.559149 0.935566 0.224067
H6    H     H_    0.701748 0.725404 0.923248 0.194032
H7    H     H_    0.747214 0.562574 0.186433 0.239199
H8    H     H_    0.698108 0.728297 0.172867 0.200149
H9    H     H_    0.926801 0.500783 0.692611 0.189346
H10   H     H_    0.463615 0.111780 0.264640 0.160339
H11   H     H_    0.464281 0.886717 0.265026 0.167636
H12   H     H_    0.522945 0.890815 0.847673 0.201067
H13   H     H_    0.660862 0.893828 0.759087 0.197069
H14   H     H_    0.518964 0.111952 0.846864 0.195150
N1    N     N_R   0.500780 0.500930 0.148120 -0.189826
N2    N     N_R   0.500790 0.500890 0.852210 -0.189359
O1    O     O_R   0.500000 0.319640 0.618810 -0.574767
O2    O     O_R   0.500010 0.319680 0.381230 -0.597995
O3    O     O_R   0.320680 0.500000 0.575130 -0.567278
O4    O     O_R   0.320690 0.500040 0.337550 -0.561586
O5    O     O_R   0.499990 0.680320 0.618770 -0.580863
O6    O     O_R   0.500000 0.680360 0.381190 -0.582409
O7    O     O_R   0.679310 0.499960 0.662450 -0.580887
O8    O     O_R   0.679320 0.500000 0.424870 -0.582769
C23   C     C_2   0.125156 0.339163 0.611591 0.891221
O9    O     O_2   0.088693 0.327604 0.723685 -0.601549
O10   O     O_R   0.220479 0.263449 0.584186 -0.775347
H15   H     H_    0.251779 0.203774 0.665180 0.319334
C24   C     C_2   0.061227 0.551345 0.279188 0.853897
O11   O     O_2   0.087845 0.658626 0.258204 -0.586495
O12   O     O_R   0.976615 0.486398 0.175284 -0.771235
H16   H     H_    0.946494 0.537368 0.086119 0.332861

loop_
_geom_bond_atom_site_label_1
_geom_bond_atom_site_label_2
_ccdc_geom_bond_type
C16   O5    A    
C2    C22   A    
C8    C22   S    
O12   H16   S    
C15   H7    S    
C6    C7    S    
Cu1   O5    S    
C8    H2    S    
C7    H12   S    
C19   C23   S    
Cu2   O8    S    
Cu1   O1    S    
C17   O8    A    
Cu1   Cu2   S    
Cu2   O6    S    
Cu2   N1    S    
C2    C3    A    
C7    H13   S    
C4    H11   S    
C10   H3    S    
C7    C8    S    
C12   O4    A    
C13   C14   S    
C11   N2    A    
C8    H14   S    
C11   H4    S    
C14   H6    S    
C20   H9    S    
C1    O1    A    
C19   C21   S    
C18   C19   D    
C12   O3    A    
C24   O12   S    
C9    C15   S    
C5    C6    A    
Cu2   O4    S    
C18   C24   S    
Cu1   O7    S    
C10   C11   A    
C13   N2    A    
C14   H5    S    
C12   C18   S    
O10   H15   S    
C6    C22   A    
C17   O7    A    
C1    O2    A    
C9    N1    A    
C17   C20   S    
Cu2   O2    S    
C20   C21   D    
C1    C2    S    
C16   O6    A    
C23   O9    D    
Cu1   N2    S    
C9    C13   A    
C14   C15   S    
C4    C5    A    
C5    C16   S    
C21   H1    S    
C3    H10   S    
C24   O11   D    
Cu1   O3    S    
C3    C4    A    
C10   N1    A    
C23   O10   S    
C15   H8    S    
