data_mof_unit_47015.cif
_audit_creation_date              2012-12-10T17:48:48-0500
_audit_creation_method            fapswitch 2.2
_symmetry_space_group_name_H-M    P1
_symmetry_Int_Tables_number       1
_space_group_crystal_system       triclinic
_cell_length_a                    10.72284
_cell_length_b                    14.692605
_cell_length_c                    14.659849
_cell_angle_alpha                 65.233996
_cell_angle_beta                  103.681428
_cell_angle_gamma                 102.891394
_cell_volume                      2017.44491517

loop_
_atom_site_label
_atom_site_type_symbol
_atom_type_description
_atom_site_fract_x
_atom_site_fract_y
_atom_site_fract_z
_atom_type_partial_charge
C1    C     C_R   0.482050 0.119336 0.311774 0.808711
C2    C     C_3   0.878930 0.997456 0.505276 0.068462
C3    C     C_3   0.917131 0.890760 0.574082 -0.385605
C4    C     C_3   0.965381 0.075303 0.548580 -0.369475
C5    C     C_R   0.484979 0.185880 0.203519 -0.077299
C6    C     C_R   0.533546 0.813253 0.796083 -0.053784
C7    C     C_R   0.509750 0.221330 0.030885 -0.191446
C8    C     C_R   0.495695 0.150871 0.129276 0.165655
C9    C     C_R   0.487717 0.289666 0.176554 -0.299525
C10   C     C_R   0.509900 0.361309 0.079879 0.089844
C11   C     C_R   0.517902 0.325113 0.006165 0.114791
C12   C     C_R   0.260734 0.998560 0.503296 0.758883
C13   C     C_R   0.523979 0.467643 0.054312 0.076211
C14   C     C_R   0.533853 0.535383 0.952077 0.062986
C15   C     C_R   0.543470 0.495783 0.881429 -0.220815
C16   C     C_R   0.535976 0.392739 0.908346 -0.214573
C17   C     C_R   0.532405 0.508722 0.127841 -0.224225
C18   C     C_R   0.544286 0.612437 0.101085 -0.233881
C19   C     C_R   0.544797 0.678913 0.000064 0.163645
C20   C     C_R   0.536801 0.640886 0.924271 0.087656
C21   C     C_R   0.552127 0.783304 0.973734 -0.201448
C22   C     C_R   0.547708 0.850290 0.872306 -0.197425
C23   C     C_R   0.521504 0.880474 0.687979 0.785640
C24   C     C_R   0.527762 0.709548 0.822446 -0.258759
C25   C     C_R   0.721041 0.284175 0.669998 0.151839
C26   C     C_R   0.683910 0.202551 0.638491 0.027749
C27   C     C_R   0.519268 0.285311 0.509676 -0.029737
C28   C     C_R   0.550936 0.371480 0.535756 -0.054359
C29   C     C_R   0.652712 0.368901 0.618591 0.084553
C30   C     C_R   0.484376 0.458878 0.483597 0.099288
C31   C     C_R   0.518845 0.541559 0.516792 0.083563
C32   C     C_R   0.617823 0.533909 0.601163 -0.246871
C33   C     C_R   0.682908 0.450057 0.650392 -0.203907
C34   C     C_R   0.740338 0.998529 0.502214 0.779875
C35   C     C_R   0.384827 0.466637 0.399084 -0.245656
C36   C     C_R   0.319591 0.550565 0.350176 -0.204978
C37   C     C_R   0.351516 0.631080 0.382097 0.164627
C38   C     C_R   0.452316 0.628814 0.464881 -0.026740
C39   C     C_R   0.283711 0.714608 0.330989 -0.320307
C40   C     C_R   0.316640 0.796168 0.361082 0.068235
C41   C     C_R   0.482117 0.715192 0.490858 0.005694
C42   C     C_3   0.048992 0.030068 0.397604 -0.513065
C43   C     C_3   0.904014 0.026346 0.396316 -0.407399
C44   C     C_3   0.059644 0.887171 0.570626 0.140447
C45   C     C_3   0.110598 0.073247 0.553772 0.153776
C46   C     C_3   0.123874 0.996651 0.508607 0.051809
Cu1   Cu    Cu3+1 0.465900 0.918260 0.475680 0.920976
Cu2   Cu    Cu3+1 0.534100 0.081740 0.524320 0.919084
H1    H     H_    0.059619 0.979966 0.360998 0.182602
H2    H     H_    0.939326 0.061492 0.622399 0.171249
H3    H     H_    0.902832 0.871627 0.653134 0.166214
H4    H     H_    0.544581 0.365827 0.851880 0.155849
H5    H     H_    0.511790 0.683678 0.761465 0.150114
H6    H     H_    0.552185 0.930434 0.853380 0.151166
H7    H     H_    0.551253 0.640661 0.159894 0.151015
H8    H     H_    0.517246 0.195365 0.973401 0.137094
H9    H     H_    0.471572 0.312763 0.232959 0.152572
H10   H     H_    0.089904 0.108357 0.351051 0.170993
H11   H     H_    0.561614 0.542575 0.805178 0.138569
H12   H     H_    0.534260 0.463110 0.207781 0.147472
H13   H     H_    0.559864 0.812967 0.031535 0.132323
H14   H     H_    0.756895 0.449267 0.715237 0.156840
H15   H     H_    0.559572 0.721515 0.550657 0.118622
H16   H     H_    0.265103 0.861009 0.321199 0.119707
H17   H     H_    0.243450 0.552638 0.286031 0.143483
H18   H     H_    0.733248 0.136573 0.675065 0.139689
H19   H     H_    0.441238 0.279336 0.450151 0.130684
H20   H     H_    0.873402 0.101452 0.345167 0.170079
H21   H     H_    0.647475 0.591709 0.631966 0.122527
H22   H     H_    0.354715 0.409065 0.368028 0.127903
H23   H     H_    0.206140 0.717076 0.267682 0.137242
H24   H     H_    0.845898 0.969928 0.364981 0.181955
H25   H     H_    0.058108 0.838771 0.528503 0.137205
H26   H     H_    0.852424 0.832490 0.548301 0.146402
H27   H     H_    0.148205 0.150292 0.501529 0.098033
H28   H     H_    0.942635 0.152852 0.497353 0.152902
N1    N     N_R   0.585360 0.204570 0.560800 -0.199175
N2    N     N_R   0.414550 0.795430 0.439160 -0.173514
O1    O     O_R   0.455060 0.022100 0.338110 -0.578424
O2    O     O_R   0.512640 0.160150 0.379180 -0.583462
O3    O     O_R   0.288900 0.930980 0.479450 -0.590706
O4    O     O_R   0.346480 0.069030 0.520520 -0.587985
O5    O     O_R   0.487360 0.839850 0.620820 -0.588422
O6    O     O_R   0.544940 0.977900 0.661890 -0.586922
O7    O     O_R   0.653520 0.930970 0.479480 -0.589063
O8    O     O_R   0.711100 0.069020 0.520550 -0.590677
N3    N     N_2   0.131090 0.842229 0.673227 -0.403122
H29   H     H_    0.229997 0.863915 0.681001 0.268267
C47   C     C_3   0.098671 0.733851 0.724809 -0.720226
H30   H     H_    0.150497 0.709441 0.804512 0.239527
H31   H     H_    0.128882 0.693728 0.685796 0.226260
H32   H     H_    0.992969 0.712562 0.726676 0.229657
C48   C     C_3   0.495959 0.040713 0.152182 -0.838536
H33   H     H_    0.576692 0.011201 0.214492 0.239113
H34   H     H_    0.401755 0.996163 0.173783 0.237614
H35   H     H_    0.509744 0.029260 0.085147 0.210204
N4    N     N_2   0.826897 0.283573 0.750905 -0.438028
H36   H     H_    0.898927 0.344667 0.731587 0.252254
C49   C     C_3   0.873717 0.189197 0.820275 -0.720229
H37   H     H_    0.941713 0.201126 0.885596 0.236447
H38   H     H_    0.926619 0.162900 0.781290 0.211956
H39   H     H_    0.791779 0.130695 0.850464 0.231211
N5    N     N_2   0.191464 0.055552 0.654180 -0.410366
H40   H     H_    0.273355 0.108153 0.654002 0.261711
C50   C     C_3   0.138491 0.015192 0.747964 -0.673418
H41   H     H_    0.217121 0.989209 0.813495 0.224739
H42   H     H_    0.062688 0.949250 0.752017 0.255375
H43   H     H_    0.098695 0.075128 0.755011 0.204713

loop_
_geom_bond_atom_site_label_1
_geom_bond_atom_site_label_2
_ccdc_geom_bond_type
N3    H29   S    
C48   H33   S    
C19   C20   A    
Cu1   O1    S    
C42   H10   S    
N4    H36   S    
C7    C8    A    
C22   H6    S    
C45   C46   S    
C7    C11   A    
C50   H42   S    
C43   H24   S    
C23   O5    A    
C30   C35   A    
C1    C5    S    
Cu1   O7    S    
C36   C37   A    
C19   C21   A    
C42   C46   S    
C30   C31   A    
C15   C16   A    
C6    C22   A    
C29   C33   A    
C18   C19   A    
C34   O8    A    
C3    H26   S    
C20   C24   A    
C45   N5    S    
Cu1   Cu2   S    
C35   H22   S    
C33   H14   S    
Cu1   O5    S    
C47   H31   S    
C44   N3    S    
C9    C10   A    
C21   H13   S    
C2    C34   S    
C48   H34   S    
C21   C22   A    
C7    H8    S    
N4    C49   S    
C44   C46   S    
C4    C45   S    
C25   C29   A    
C50   H43   S    
C3    C44   S    
C26   N1    A    
C23   O6    A    
C26   H18   S    
C14   C20   A    
C38   C41   A    
C12   C46   S    
C39   C40   A    
C3    H3    S    
C36   H17   S    
C43   H20   S    
Cu2   O8    S    
C17   H12   S    
C24   H5    S    
Cu2   O6    S    
C4    H2    S    
C34   O7    A    
Cu2   N1    S    
C2    C4    S    
C5    C9    A    
C37   C38   A    
C11   C16   A    
C31   C32   A    
C2    C43   S    
C6    C24   A    
C17   C18   A    
C12   O4    A    
N5    C50   S    
C47   H32   S    
C18   H7    S    
C25   N4    S    
C49   H38   S    
C48   H35   S    
N3    C47   S    
C1    O1    A    
C40   N2    A    
C42   C43   S    
C41   H15   S    
C41   N2    A    
C28   C29   A    
C15   H11   S    
C8    C48   S    
C16   H4    S    
C27   N1    A    
C10   C13   A    
C5    C8    A    
C32   H21   S    
C50   H41   S    
C40   H16   S    
C31   C38   A    
C13   C17   A    
C45   H27   S    
C32   C33   A    
Cu2   O2    S    
C28   C30   A    
C2    C3    S    
C25   C26   A    
C37   C39   A    
C49   H37   S    
C6    C23   S    
Cu2   O4    S    
C12   O3    A    
C9    H9    S    
Cu1   O3    S    
C44   H25   S    
C4    H28   S    
C27   H19   S    
C10   C11   A    
C42   H1    S    
C49   H39   S    
N5    H40   S    
C1    O2    A    
C39   H23   S    
C14   C15   A    
C35   C36   A    
Cu1   N2    S    
C47   H30   S    
C13   C14   A    
C27   C28   A    
