data_mof_unit_15317.cif
_audit_creation_date              2012-12-10T20:46:48-0500
_audit_creation_method            fapswitch 2.2
_symmetry_space_group_name_H-M    P1
_symmetry_Int_Tables_number       1
_space_group_crystal_system       triclinic
_cell_length_a                    12.87662
_cell_length_b                    8.934394
_cell_length_c                    8.105785
_cell_angle_alpha                 89.978008
_cell_angle_beta                  97.552806
_cell_angle_gamma                 89.96977
_cell_volume                      924.437676739

loop_
_atom_site_label
_atom_site_type_symbol
_atom_type_description
_atom_site_fract_x
_atom_site_fract_y
_atom_site_fract_z
_atom_type_partial_charge
C1    C     C_R   0.499968 0.217982 0.500009 0.930385
C2    C     C_R   0.500012 0.782017 0.499986 0.932335
C3    C     C_R   0.297635 0.494943 0.466894 0.869336
C4    C     C_R   0.702441 0.503476 0.533082 0.873958
C5    C     C_R   0.814724 0.511715 0.554505 -0.118934
C6    C     C_R   0.185458 0.485562 0.445559 -0.116406
C7    C     C_R   0.019841 0.398274 0.305780 -0.232973
C8    C     C_R   0.980231 0.598766 0.694837 -0.249844
C9    C     C_R   0.127862 0.408110 0.311224 0.202133
C10   C     C_R   0.871795 0.586172 0.691307 0.209363
C11   C     C_R   0.135587 0.551111 0.570004 -0.297357
C12   C     C_R   0.864344 0.448429 0.428618 -0.296853
C13   C     C_R   0.028987 0.537632 0.566252 0.138666
C14   C     C_R   0.970862 0.461343 0.432921 0.131128
C15   C     C_1   0.499972 0.065186 0.500017 -0.196731
C16   C     C_1   0.499997 0.934813 0.499974 -0.198400
H1    H     H_    0.819518 0.389516 0.325764 0.172984
H2    H     H_    0.180336 0.611191 0.672032 0.167988
H3    H     H_    0.974676 0.337554 0.204908 0.154167
H4    H     H_    0.026871 0.658092 0.794909 0.152721
N1    N     N_1   0.500020 0.500000 0.073640 -0.035070
N2    N     N_1   0.499980 0.500000 0.926360 -0.033441
O1    O     O_R   0.499990 0.285340 0.636850 -0.612895
O2    O     O_R   0.500010 0.714660 0.363150 -0.612926
O3    O     O_R   0.500010 0.285340 0.363150 -0.620862
O4    O     O_R   0.499990 0.714660 0.636850 -0.619643
O5    O     O_R   0.346350 0.500000 0.614250 -0.622351
O6    O     O_R   0.653650 0.500000 0.385750 -0.620376
O7    O     O_R   0.346360 0.500000 0.340500 -0.623937
O8    O     O_R   0.653640 0.500000 0.659500 -0.606730
Zn1   Zn    Zn3+2 0.499990 0.500000 0.682780 0.985460
Zn2   Zn    Zn3+2 0.500010 0.500000 0.317220 0.978462
N3    N     N_2   0.818530 0.653820 0.816521 -0.283860
H5    H     H_    0.762654 0.732061 0.772841 0.228786
C17   C     C_3   0.875493 0.686722 0.978545 -0.769158
H6    H     H_    0.818986 0.711396 0.067262 0.249288
H7    H     H_    0.926282 0.786313 0.971223 0.230688
H8    H     H_    0.923335 0.588748 0.026540 0.246118
N4    N     N_2   0.176535 0.329702 0.188903 -0.306768
H9    H     H_    0.249227 0.284528 0.228104 0.238618
C18   C     C_3   0.167984 0.401839 0.027922 -0.740077
H10   H     H_    0.208126 0.512149 0.038297 0.244379
H11   H     H_    0.084382 0.417590 0.976889 0.237123
H12   H     H_    0.205181 0.330578 0.939956 0.241507

loop_
_geom_bond_atom_site_label_1
_geom_bond_atom_site_label_2
_ccdc_geom_bond_type
C12   H1    S    
O2    Zn2   S    
C11   H2    S    
C8    C13   A    
C1    C15   S    
O7    Zn2   S    
C11   C13   A    
C18   H10   S    
C17   H6    S    
O6    Zn2   S    
C3    C6    S    
O3    Zn2   S    
C3    O5    A    
N3    H5    S    
C5    C10   A    
C2    O4    A    
C13   C14   A    
C1    O3    A    
C18   H11   S    
C3    O7    A    
C8    H4    S    
C6    C9    A    
C8    C10   A    
C4    O6    A    
C12   C14   A    
C1    O1    A    
C10   N3    S    
C7    H3    S    
C6    C11   A    
C2    O2    A    
O8    Zn1   S    
C18   H12   S    
N2    Zn1   S    
O5    Zn1   S    
C15   C16   T    
N1    Zn2   S    
C9    N4    S    
C17   H8    S    
C2    C16   S    
C17   H7    S    
C5    C12   A    
N4    C18   S    
N4    H9    S    
C7    C9    A    
N3    C17   S    
N1    N2    T    
O4    Zn1   S    
C7    C14   A    
C4    O8    A    
C4    C5    S    
O1    Zn1   S    
