data_mof_unit_9486.cif
_audit_creation_date              2012-12-11T17:24:59-0500
_audit_creation_method            fapswitch 2.2
_symmetry_space_group_name_H-M    P1
_symmetry_Int_Tables_number       1
_space_group_crystal_system       triclinic
_cell_length_a                    6.948696
_cell_length_b                    20.457639
_cell_length_c                    24.511548
_cell_angle_alpha                 90.178265
_cell_angle_beta                  90.590701
_cell_angle_gamma                 89.634921
_cell_volume                      3484.14042547

loop_
_atom_site_label
_atom_site_type_symbol
_atom_type_description
_atom_site_fract_x
_atom_site_fract_y
_atom_site_fract_z
_atom_type_partial_charge
O1    O     O_R   0.507280 0.423750 0.460310 -0.536273
O2    O     O_R   0.171030 0.555650 0.437630 -0.542022
O3    O     O_R   0.004080 0.576250 0.539690 -0.546080
C1    C     C_R   0.339092 0.575943 0.422048 0.721187
O4    O     O_R   0.177330 0.422980 0.453960 -0.536182
O5    O     O_R   0.010420 0.442640 0.556140 -0.534635
C2    C     C_R   0.345758 0.399054 0.443004 0.689429
O6    O     O_R   0.500930 0.557360 0.443860 -0.530664
O7    O     O_3   0.340310 0.506600 0.533500 -0.366155
V1    V     V_3+5 0.064140 0.498780 0.493780 1.413885
O8    O     O_R   0.680890 0.444350 0.562370 -0.538270
C3    C     C_R   0.850590 0.424323 0.578105 0.723959
O9    O     O_R   0.674590 0.577020 0.546040 -0.528727
C4    C     C_R   0.843144 0.601226 0.556369 0.736213
V2    V     V_3+5 0.564550 0.501220 0.506220 1.436390
O10   O     O_3   0.838250 0.493400 0.466500 -0.368427
C5    C     C_R   0.970488 0.838435 0.910768 -0.102657
C6    C     C_R   0.850514 0.662845 0.587611 -0.145898
C7    C     C_R   0.971036 0.720042 0.907833 0.211143
C8    C     C_R   0.977126 0.778583 0.937462 -0.195830
C9    C     C_R   0.952919 0.840377 0.853794 -0.230755
C10   C     C_R   0.929319 0.782395 0.822259 0.051781
C11   C     C_R   0.948802 0.721741 0.850269 0.121297
C12   C     C_R   0.891440 0.782124 0.764095 -0.041921
C13   C     C_R   0.900845 0.721266 0.734525 0.027035
C14   C     C_R   0.929145 0.663120 0.764307 -0.181035
C15   C     C_R   0.947174 0.663348 0.820578 -0.181419
C16   C     C_R   0.835174 0.839227 0.734386 0.379954
C17   C     C_R   0.815750 0.837297 0.677764 -0.246856
C18   C     C_R   0.834639 0.779212 0.648611 0.004702
C19   C     C_R   0.875261 0.719995 0.676240 0.092568
C20   C     C_R   0.804665 0.779973 0.591847 -0.202187
C21   C     C_R   0.813871 0.722482 0.561204 0.408473
C22   C     C_R   0.884775 0.661822 0.644199 -0.263634
H1    H     H_    0.962837 0.616552 0.840727 0.156960
H2    H     H_    0.914933 0.614608 0.661689 0.111622
H3    H     H_    0.777677 0.882090 0.656560 0.143968
H4    H     H_    0.991737 0.777586 0.981528 0.103340
H5    H     H_    0.965499 0.887842 0.835650 0.174064
H6    H     H_    0.932708 0.615550 0.745529 0.123382
H7    H     H_    0.770161 0.825369 0.571121 0.126330
H8    H     H_    0.619163 0.199442 0.788519 0.111526
C23   C     C_R   0.729967 0.265593 0.728463 -0.154302
H9    H     H_    0.588127 0.278022 0.712782 0.111352
C24   C     C_R   0.894179 0.294091 0.705855 0.136474
C25   C     C_R   0.076333 0.276989 0.726931 -0.155086
H10   H     H_    0.204851 0.298345 0.710043 0.112083
C26   C     C_R   0.094039 0.232173 0.770066 -0.153504
H11   H     H_    0.235865 0.219791 0.785788 0.111171
C27   C     C_R   0.929814 0.203774 0.792738 0.137948
C28   C     C_R   0.747676 0.220767 0.771596 -0.155331
C29   C     C_1   0.876293 0.340451 0.661062 -0.060110
C30   C     C_1   0.947665 0.157926 0.837876 -0.056790
C31   C     C_1   0.960882 0.120019 0.875857 -0.194585
C32   C     C_1   0.863146 0.378917 0.623455 -0.191324
C33   C     C_R   0.587675 0.787443 0.247113 0.226172
C34   C     C_R   0.441014 0.795381 0.207210 -0.050328
C35   C     C_R   0.271995 0.758590 0.211568 -0.252647
H12   H     H_    0.158085 0.764346 0.181417 0.146790
C36   C     C_R   0.247849 0.713821 0.254424 0.418137
C37   C     C_R   0.392456 0.706411 0.294777 -0.104390
C38   C     C_R   0.563168 0.743410 0.290772 0.181499
C39   C     C_1   0.461359 0.841230 0.161913 -0.016950
C40   C     C_1   0.366646 0.660257 0.339610 -0.005185
C41   C     C_1   0.349611 0.621700 0.376934 -0.196420
C42   C     C_1   0.475435 0.879303 0.124037 -0.198639
C43   C     C_R   0.472904 0.162664 0.088597 -0.042228
C44   C     C_R   0.348495 0.338297 0.410225 -0.046962
C45   C     C_R   0.543248 0.278024 0.094364 -0.130111
C46   C     C_R   0.532485 0.220431 0.064141 -0.189419
C47   C     C_R   0.419542 0.163432 0.143752 -0.199634
C48   C     C_R   0.417614 0.222425 0.174814 0.056702
C49   C     C_R   0.492051 0.279388 0.149831 0.065563
C50   C     C_R   0.357494 0.225563 0.230790 -0.064235
C51   C     C_R   0.406477 0.281719 0.263179 -0.020797
C52   C     C_R   0.490299 0.335672 0.236923 -0.241774
C53   C     C_R   0.520644 0.336518 0.180596 0.375009
C54   C     C_R   0.247356 0.175440 0.255569 0.125096
C55   C     C_R   0.234129 0.172209 0.312422 0.416452
C56   C     C_R   0.286953 0.226240 0.344927 -0.021635
C57   C     C_R   0.366440 0.282814 0.320580 0.060041
C58   C     C_R   0.246702 0.226051 0.401158 -0.130677
C59   C     C_R   0.276119 0.281394 0.433132 -0.171317
C60   C     C_R   0.396085 0.338880 0.354583 -0.167851
H13   H     H_    0.445378 0.384829 0.338804 0.085346
H14   H     H_    0.235708 0.280531 0.475709 0.106592
H15   H     H_    0.596039 0.321327 0.074240 0.155846
H16   H     H_    0.575707 0.220561 0.021791 0.111082
H17   H     H_    0.391758 0.116909 0.162321 0.101993
H18   H     H_    0.536157 0.378321 0.259100 0.121193
H19   H     H_    0.184094 0.183839 0.420513 0.140766
O11   O     O_R   0.323320 0.942780 0.056240 -0.533418
O12   O     O_R   0.647300 0.077050 0.046060 -0.536366
O13   O     O_R   0.813840 0.057330 0.943840 -0.535097
C61   C     C_R   0.478775 0.101180 0.056867 0.696455
O14   O     O_R   0.653250 0.944380 0.062400 -0.536253
O15   O     O_R   0.819830 0.923720 0.960300 -0.534577
C62   C     C_R   0.485175 0.924443 0.078309 0.724754
O16   O     O_R   0.317330 0.076390 0.039790 -0.535223
O17   O     O_3   0.483830 0.993470 0.966560 -0.365324
V3    V     V_3+5 0.760140 0.001210 0.006210 1.422224
O18   O     O_R   0.149290 0.922840 0.953850 -0.540600
C63   C     C_R   0.980442 0.899090 0.943079 0.708306
O19   O     O_R   0.143340 0.055500 0.937510 -0.539733
C64   C     C_R   0.973583 0.075280 0.921629 0.723931
V4    V     V_3+5 0.259690 0.998600 0.993650 1.410290
O20   O     O_3   0.986130 0.006520 0.033440 -0.364500
N1    N     N_3   0.713436 0.737211 0.330989 -0.595454
H20   H     H_    0.758875 0.688411 0.332018 0.242035
H21   H     H_    0.656071 0.749043 0.369051 0.228406
N2    N     N_3   0.763008 0.823777 0.244058 -0.598335
H22   H     H_    0.728717 0.873602 0.244537 0.219814
H23   H     H_    0.828118 0.812966 0.206821 0.228972
O21   O     O_3   0.076825 0.680073 0.258357 -0.552847
C65   C     C_3   0.098979 0.618542 0.232823 0.081414
H24   H     H_    0.234920 0.593558 0.245997 0.110528
H25   H     H_    0.099595 0.624824 0.187737 0.119546
C66   C     C_3   0.930398 0.574866 0.248126 -0.296812
H26   H     H_    0.916667 0.573728 0.293271 0.198406
H27   H     H_    0.794794 0.595239 0.230472 0.191525
C67   C     C_3   0.960197 0.505116 0.227344 -0.824246
H28   H     H_    0.977505 0.504818 0.182373 0.229764
H29   H     H_    0.833809 0.474940 0.237894 0.243379
H30   H     H_    0.090440 0.482966 0.246613 0.222473
O22   O     O_3   0.603018 0.390608 0.156309 -0.577595
C68   C     C_3   0.478360 0.445289 0.160362 0.056227
H31   H     H_    0.490272 0.467361 0.201778 0.120639
H32   H     H_    0.325266 0.431851 0.152059 0.121732
C69   C     C_3   0.537715 0.496085 0.118247 -0.263344
H33   H     H_    0.692978 0.507338 0.123434 0.203147
H34   H     H_    0.515073 0.475775 0.076573 0.191012
C70   C     C_3   0.421826 0.559243 0.124021 -0.863673
H35   H     H_    0.265542 0.549293 0.119431 0.228191
H36   H     H_    0.464719 0.594214 0.091871 0.237578
H37   H     H_    0.450543 0.581954 0.164478 0.220756
O23   O     O_3   0.139903 0.119473 0.335128 -0.557951
C71   C     C_3   0.276479 0.074731 0.357135 0.061819
H38   H     H_    0.208247 0.050436 0.392430 0.143281
H39   H     H_    0.409438 0.098615 0.373379 0.102849
C72   C     C_3   0.329801 0.022350 0.314964 -0.306538
H40   H     H_    0.196396 0.000464 0.297656 0.213388
H41   H     H_    0.411773 0.045070 0.281374 0.182146
C73   C     C_3   0.453401 0.968292 0.340377 -0.806032
H42   H     H_    0.590499 0.988724 0.356464 0.237886
H43   H     H_    0.487135 0.930841 0.308958 0.236076
H44   H     H_    0.375206 0.944335 0.374080 0.224890
N3    N     N_3   0.116260 0.135019 0.224878 -0.629153
H45   H     H_    0.078390 0.156217 0.187518 0.241313
H46   H     H_    0.174531 0.088332 0.219541 0.219735
O24   O     O_3   0.768087 0.724354 0.506140 -0.583905
C74   C     C_3   0.938193 0.723174 0.474795 0.064360
H47   H     H_    0.908771 0.693154 0.437820 0.149464
H48   H     H_    0.064330 0.699887 0.495843 0.106773
C75   C     C_3   0.989761 0.792560 0.457140 -0.323950
H49   H     H_    0.861457 0.816564 0.438346 0.213944
H50   H     H_    0.034388 0.821513 0.493497 0.184751
C76   C     C_3   0.153110 0.792047 0.415987 -0.775435
H51   H     H_    0.283067 0.767876 0.433627 0.231040
H52   H     H_    0.190002 0.843016 0.405029 0.225777
H53   H     H_    0.108033 0.765831 0.378277 0.264363
N4    N     N_3   0.986805 0.658674 0.936106 -0.682524
H54   H     H_    0.978082 0.665732 0.978287 0.228032
H55   H     H_    0.124250 0.639799 0.928642 0.224140
O25   O     O_3   0.791598 0.897961 0.759331 -0.583710
C77   C     C_3   0.595796 0.897890 0.774222 0.056075
H56   H     H_    0.564594 0.856247 0.801962 0.132310
H57   H     H_    0.501599 0.894455 0.737243 0.129327
C78   C     C_3   0.550391 0.961735 0.804097 -0.290654
H58   H     H_    0.646106 0.966349 0.840534 0.198078
H59   H     H_    0.577871 0.003705 0.776612 0.198316
C79   C     C_3   0.341328 0.964162 0.822344 -0.797273
H60   H     H_    0.242420 0.959322 0.786681 0.231414
H61   H     H_    0.312120 0.011621 0.842782 0.234175
H62   H     H_    0.313775 0.924091 0.851612 0.232638

loop_
_geom_bond_atom_site_label_1
_geom_bond_atom_site_label_2
_ccdc_geom_bond_type
V3    O20   S    
C73   H44   S    
C79   H60   S    
O13   C64   A    
C13   C19   A    
C76   H51   S    
C48   C50   A    
C4    C6    S    
C36   O21   S    
C7    C8    A    
C72   C73   S    
C1    O6    A    
C46   H16   S    
O19   V4    S    
N4    H54   S    
O11   C62   A    
C24   C25   A    
C33   C34   A    
C55   O23   S    
C79   H61   S    
C14   C15   A    
C77   H56   S    
C10   C12   A    
C16   C17   A    
N3    H46   S    
C72   H41   S    
C21   O24   S    
C70   H37   S    
O5    C3    A    
C1    C41   S    
C56   C57   A    
C61   O16   A    
C38   N1    S    
V4    O20   S    
C35   C36   A    
V2    O10   S    
C5    C8    A    
N1    H20   S    
C7    N4    S    
C74   C75   S    
C66   H26   S    
C67   H30   S    
N3    H45   S    
C2    C44   S    
O8    V2    S    
C60   H13   S    
C78   C79   S    
N2    H22   S    
O13   V3    S    
C70   H35   S    
C65   H25   S    
O14   C62   A    
C74   H47   S    
C45   C49   A    
O1    V2    S    
C11   C15   A    
O7    V1    S    
C33   N2    S    
C75   H50   S    
C45   H15   S    
C29   C32   T    
H8    C28   S    
C69   C70   S    
C26   C27   A    
C39   C42   T    
C77   H57   S    
O1    C2    A    
O9    C4    A    
C43   C61   S    
O25   C77   S    
O18   C63   A    
O19   C64   A    
N4    H55   S    
C34   C39   S    
C66   H27   S    
C52   C53   A    
C10   C11   A    
O12   C61   A    
C79   H62   S    
C25   C26   A    
C27   C30   S    
C50   C51   A    
C44   C60   A    
O14   V3    S    
C72   H40   S    
C75   C76   S    
C56   C58   A    
O12   V3    S    
O4    C2    A    
C54   C55   A    
C51   C57   A    
C24   C29   S    
C15   H1    S    
C13   C14   A    
C30   C31   T    
C5    C9    A    
C58   H19   S    
C36   C37   A    
C66   C67   S    
C37   C40   S    
O2    C1    A    
C51   C52   A    
C17   C18   A    
C8    H4    S    
C47   H17   S    
C20   H7    S    
C65   C66   S    
C27   C28   A    
C75   H49   S    
C19   C22   A    
N2    H23   S    
C5    C63   S    
C12   C13   A    
C6    C22   A    
C67   H28   S    
O15   C63   A    
O3    C4    A    
C54   N3    S    
C70   H36   S    
C78   H58   S    
O6    V2    S    
O9    V2    S    
C23   H9    S    
O22   C68   S    
C33   C38   A    
O2    V1    S    
C57   C60   A    
C53   O22   S    
C16   O25   S    
C69   H33   S    
O11   V4    S    
C73   H43   S    
O16   V4    S    
C25   H10   S    
C26   H11   S    
C68   H32   S    
C31   C64   S    
C71   H39   S    
C44   C59   A    
C9    H5    S    
C12   C16   A    
C48   C49   A    
O5    V1    S    
O8    C3    A    
O21   C65   S    
C76   H53   S    
C77   C78   S    
C71   H38   S    
O17   V4    S    
C68   C69   S    
C43   C46   A    
C20   C21   A    
C42   C62   S    
C35   H12   S    
C47   C48   A    
C23   C24   A    
O3    V1    S    
V1    O10   S    
C40   C41   T    
C18   C20   A    
C14   H6    S    
C34   C35   A    
C18   C19   A    
C23   C28   A    
C68   H31   S    
C71   C72   S    
C78   H59   S    
O17   V3    S    
C22   H2    S    
N1    H21   S    
O18   V4    S    
C43   C47   A    
C74   H48   S    
O7    V2    S    
C37   C38   A    
C6    C21   A    
C45   C46   A    
C67   H29   S    
C3    C32   S    
C55   C56   A    
C7    C11   A    
O4    V1    S    
C59   H14   S    
C76   H52   S    
C58   C59   A    
C50   C54   A    
C17   H3    S    
C49   C53   A    
O24   C74   S    
O23   C71   S    
C65   H24   S    
C9    C10   A    
O15   V3    S    
C73   H42   S    
C52   H18   S    
C69   H34   S    
