data_mof_unit_63842.cif
_audit_creation_date              2013-03-05T16:42:32-0500
_audit_creation_method            fapswitch 2.2
_symmetry_space_group_name_H-M    P1
_symmetry_Int_Tables_number       1
_space_group_crystal_system       triclinic
_cell_length_a                    17.854445
_cell_length_b                    16.545727
_cell_length_c                    19.387541
_cell_angle_alpha                 88.293254
_cell_angle_beta                  94.98377
_cell_angle_gamma                 88.442332
_cell_volume                      5700.63218165

loop_
_atom_site_label
_atom_site_type_symbol
_atom_site_description
_atom_site_fract_x
_atom_site_fract_y
_atom_site_fract_z
_atom_type_partial_charge
O1    O     O_R   0.391260 0.567930 0.500000 -0.526079
O2    O     O_R   0.608740 0.432070 0.500000 -0.526024
O3    O     O_R   0.608740 0.567930 0.500000 -0.545025
O4    O     O_R   0.391260 0.432070 0.500000 -0.544861
C1    C     C_R   0.355469 0.501102 0.503781 0.905015
C2    C     C_R   0.644523 0.498897 0.496204 0.905060
O5    O     O_R   0.499990 0.567930 0.400140 -0.524128
O6    O     O_R   0.500010 0.432070 0.599860 -0.524428
O7    O     O_R   0.500010 0.567930 0.599860 -0.536912
O8    O     O_R   0.499990 0.432070 0.400140 -0.537178
C3    C     C_R   0.507173 0.500734 0.367744 0.918578
C4    C     C_R   0.492878 0.499262 0.632273 0.918325
Cu1   Cu    Cu3+1 0.500000 0.580420 0.500000 1.155566
Cu2   Cu    Cu3+1 0.500000 0.419580 0.500000 1.155511
C5    C     C_R   0.521457 0.574902 0.252558 0.320064
C6    C     C_R   0.478551 0.424969 0.747361 0.319754
C7    C     C_R   0.468486 0.571767 0.741990 0.319335
C8    C     C_R   0.532418 0.428151 0.258297 0.319059
C9    C     C_R   0.517570 0.574071 0.179978 0.237703
C10   C     C_R   0.482815 0.425585 0.819952 0.238106
C11   C     C_R   0.473371 0.572754 0.814785 0.241479
C12   C     C_R   0.527871 0.426931 0.185518 0.241699
C13   C     C_R   0.517481 0.500019 0.146263 -0.281040
C14   C     C_R   0.483533 0.499509 0.853858 -0.281080
C15   C     C_R   0.519959 0.501596 0.292241 -0.314053
C16   C     C_R   0.480338 0.498342 0.707825 -0.314425
N1    N     N_R   0.458096 0.451578 0.036887 -0.130146
N2    N     N_R   0.543213 0.547651 0.963254 -0.130023
N3    N     N_R   0.449719 0.451839 0.968034 -0.123395
N4    N     N_R   0.551589 0.547395 0.032109 -0.123314
C17   C     C_R   0.492105 0.499886 0.930043 0.535189
C18   C     C_R   0.509174 0.499373 0.070091 0.535786
C19   C     C_R   0.842926 0.569017 0.473507 0.319173
C20   C     C_R   0.156856 0.431039 0.525630 0.319049
C21   C     C_R   0.149704 0.574639 0.494754 0.314360
C22   C     C_R   0.850352 0.425620 0.505146 0.314317
C23   C     C_R   0.763863 0.567897 0.469402 0.244041
C24   C     C_R   0.235925 0.432035 0.529933 0.243921
C25   C     C_R   0.228589 0.576640 0.498148 0.235014
C26   C     C_R   0.771487 0.423510 0.501983 0.234763
C27   C     C_R   0.727411 0.496366 0.488871 -0.354407
C28   C     C_R   0.272544 0.503654 0.510964 -0.354538
C29   C     C_R   0.885598 0.498579 0.493313 -0.204361
C30   C     C_R   0.114319 0.501649 0.506105 -0.204396
C31   C     C_1   0.966246 0.499860 0.497742 0.234016
C32   C     C_1   0.033662 0.500483 0.501572 0.234013
C33   C     C_R   0.551808 0.825940 0.546759 0.165155
C34   C     C_R   0.448358 0.174030 0.453181 0.165059
C35   C     C_R   0.450535 0.834417 0.456310 0.153167
C36   C     C_R   0.549318 0.165624 0.543933 0.153272
C37   C     C_R   0.548734 0.739863 0.546748 0.404045
C38   C     C_R   0.451463 0.260103 0.453112 0.404066
C39   C     C_R   0.453557 0.748651 0.452195 0.391601
C40   C     C_R   0.546283 0.251398 0.547958 0.391870
N5    N     N_R   0.500000 0.701220 0.500000 -0.303484
N6    N     N_R   0.500000 0.298780 0.500000 -0.303497
C41   C     C_R   0.501597 0.873702 0.501606 -0.197824
C42   C     C_R   0.498404 0.126302 0.498519 -0.197816
C43   C     C_1   0.500903 0.962975 0.501140 0.244434
C44   C     C_1   0.499109 0.037028 0.499006 0.244400
Cl1   Cl    Cl    0.536089 0.668848 0.291025 -0.332168
Cl2   Cl    Cl    0.462961 0.331276 0.708725 -0.332553
Cl3   Cl    Cl    0.432414 0.660418 0.695657 -0.366873
Cl4   Cl    Cl    0.568803 0.339831 0.304942 -0.367473
N7    N     N_R   0.510978 0.649035 0.140405 0.189596
O9    O     O_R   0.567219 0.697490 0.141539 -0.178412
O10   O     O_R   0.450221 0.666808 0.100218 -0.225541
N8    N     N_R   0.489099 0.350499 0.859327 0.189490
O11   O     O_R   0.432335 0.302774 0.858733 -0.178971
O12   O     O_R   0.550297 0.331782 0.898651 -0.224759
N9    N     N_R   0.464771 0.648105 0.848753 0.189290
O13   O     O_R   0.416506 0.655808 0.894888 -0.236196
O14   O     O_R   0.504733 0.709562 0.833158 -0.170939
N10   N     N_R   0.537001 0.351526 0.151762 0.189250
O15   O     O_R   0.585399 0.344018 0.105724 -0.236811
O16   O     O_R   0.497338 0.289849 0.167408 -0.170855
Cl5   Cl    Cl    0.889149 0.657199 0.448644 -0.318462
Cl6   Cl    Cl    0.110442 0.342750 0.549921 -0.318200
Cl7   Cl    Cl    0.094595 0.665229 0.480404 -0.317719
Cl8   Cl    Cl    0.905594 0.335165 0.519845 -0.317568
N11   N     N_R   0.720879 0.635667 0.437272 0.189041
O17   O     O_R   0.734422 0.709207 0.455633 -0.182359
O18   O     O_R   0.675185 0.624454 0.382744 -0.288494
N12   N     N_R   0.278724 0.363983 0.561785 0.189079
O19   O     O_R   0.265094 0.290617 0.542984 -0.182368
O20   O     O_R   0.324222 0.374713 0.616539 -0.287131
N13   N     N_R   0.263026 0.653752 0.493402 0.191493
O21   O     O_R   0.243678 0.703093 0.440966 -0.176340
O22   O     O_R   0.300623 0.681274 0.547819 -0.257395
N14   N     N_R   0.737189 0.346386 0.507311 0.191735
O23   O     O_R   0.756757 0.297516 0.560019 -0.176107
O24   O     O_R   0.699602 0.318299 0.453134 -0.256902
N15   N     N_R   0.606951 0.864289 0.592123 0.189415
O25   O     O_R   0.651585 0.916449 0.567213 -0.216402
O26   O     O_R   0.612100 0.848251 0.658475 -0.166097
N16   N     N_R   0.393332 0.135647 0.407724 0.189272
O27   O     O_R   0.348419 0.083762 0.432605 -0.216012
O28   O     O_R   0.388595 0.151337 0.341328 -0.166163
N17   N     N_R   0.394841 0.881687 0.413437 0.188485
O29   O     O_R   0.324004 0.865367 0.413839 -0.166220
O30   O     O_R   0.415144 0.936984 0.370291 -0.214603
N18   N     N_R   0.604902 0.118408 0.586983 0.188605
O31   O     O_R   0.675734 0.134888 0.586912 -0.166174
O32   O     O_R   0.584479 0.063001 0.629969 -0.214855
N19   N     N_R   0.601976 0.693784 0.592729 0.169478
O33   O     O_R   0.587978 0.681694 0.656810 -0.243666
O34   O     O_R   0.671674 0.689300 0.578391 -0.263714
N20   N     N_R   0.398556 0.306160 0.406785 0.169495
O35   O     O_R   0.412850 0.317721 0.342719 -0.243443
O36   O     O_R   0.328799 0.311167 0.420884 -0.263861
N21   N     N_R   0.414378 0.715419 0.391369 0.188643
O37   O     O_R   0.408064 0.757158 0.333037 -0.193440
O38   O     O_R   0.375070 0.651125 0.394510 -0.277711
N22   N     N_R   0.585315 0.284732 0.608799 0.188464
O39   O     O_R   0.591349 0.243166 0.667217 -0.193823
O40   O     O_R   0.624872 0.348837 0.605579 -0.277588

loop_
_geom_bond_atom_site_label_1
_geom_bond_atom_site_label_2
_geom_bond_distance
_ccdc_geom_bond_type
Cu2   N6    1.998722 S    
C1    C28   1.498682 S    
N15   O25   1.300982 A    
N1    N3    1.330143 A    
C9    C13   1.405743 A    
N21   O37   1.302188 A    
C25   N13   1.435223 S    
N13   O21   1.301344 A    
O3    C2    1.300654 A    
C8    Cl4   1.772825 S    
N22   O39   1.302189 A    
C31   C32   1.199852 T    
O5    C3    1.301875 A    
N19   O34   1.299107 A    
C36   C40   1.423467 A    
N10   O16   1.301186 A    
C11   N9    1.437944 S    
O1    C1    1.295403 A    
C7    C16   1.420473 A    
N12   O20   1.299063 A    
C24   C28   1.422973 A    
C5    C15   1.418983 A    
C35   N17   1.437631 S    
C3    C15   1.500700 S    
C42   C44   1.476551 S    
C35   C41   1.397112 A    
N20   O35   1.299243 A    
O7    Cu1   1.940890 S    
C5    C9    1.403328 A    
C10   C14   1.405564 A    
N8    O11   1.301113 A    
N7    O10   1.300941 A    
C2    C27   1.498559 S    
N16   O28   1.300598 A    
O3    Cu1   1.946866 S    
C6    C10   1.403144 A    
C39   N21   1.448639 S    
C43   C44   1.224194 T    
N15   O26   1.300589 A    
C8    C12   1.407049 A    
Cu1   Cu2   2.661216 S    
C6    C16   1.418901 A    
C23   N11   1.436291 S    
O2    C2    1.295342 A    
C8    C15   1.420441 A    
C6    Cl2   1.760162 S    
N11   O18   1.299094 A    
C30   C32   1.435811 S    
N11   O17   1.300975 A    
C25   C28   1.425730 A    
C39   N5    1.396507 A    
C33   N15   1.436047 S    
C40   N6    1.396369 A    
N10   O15   1.301360 A    
C36   C42   1.397175 A    
C22   C26   1.405515 A    
C20   C30   1.400162 A    
N12   O19   1.300994 A    
O8    Cu2   1.940892 S    
N9    O14   1.301198 A    
C33   C37   1.426756 A    
C19   C23   1.407592 A    
C4    C16   1.500592 S    
C19   C29   1.400143 A    
C21   C25   1.405597 A    
C33   C41   1.406571 A    
N14   O24   1.301204 A    
N17   O29   1.301052 A    
C34   C38   1.426697 A    
O6    C4    1.301878 A    
N16   O27   1.301023 A    
C5    Cl1   1.760069 S    
N21   O38   1.293085 A    
N18   O32   1.301306 A    
C21   C30   1.398511 A    
C29   C31   1.435796 S    
C26   C27   1.425653 A    
N17   O30   1.301291 A    
C36   N18   1.437676 S    
N13   O22   1.301235 A    
C22   Cl8   1.771855 S    
O1    Cu1   1.958040 S    
C12   N10   1.437915 S    
O6    Cu2   1.953132 S    
C34   N16   1.435979 S    
C24   N12   1.436275 S    
N1    C18   1.356081 A    
C20   C24   1.407532 A    
C10   N8    1.435218 S    
N2    C17   1.356185 A    
O4    C1    1.300679 A    
N22   O40   1.293112 A    
C34   C42   1.406586 A    
N19   O33   1.299174 A    
C13   C18   1.471727 S    
N2    N4    1.330173 A    
C14   C17   1.471869 S    
N9    O13   1.301395 A    
N3    C17   1.357157 A    
O4    Cu2   1.946868 S    
C20   Cl6   1.770625 S    
N4    C18   1.357145 A    
C19   Cl5   1.770589 S    
N14   O23   1.301344 A    
C35   C39   1.423499 A    
C40   N22   1.448466 S    
C21   Cl7   1.771900 S    
N20   O36   1.299103 A    
C9    N7    1.435474 S    
C37   N5    1.383869 A    
C23   C27   1.422929 A    
N18   O31   1.301068 A    
O2    Cu2   1.958038 S    
O7    C4    1.296613 A    
C7    C11   1.407036 A    
C37   N19   1.432656 S    
C41   C43   1.476554 S    
O8    C3    1.296549 A    
O5    Cu1   1.953134 S    
C38   N20   1.432639 S    
N8    O12   1.301480 A    
N7    O9    1.300964 A    
C11   C14   1.408875 A    
C12   C13   1.408707 A    
C22   C29   1.398493 A    
C26   N14   1.435153 S    
C7    Cl3   1.772807 S    
C38   N6    1.383755 A    
Cu1   N5    1.998722 S    
