data_mof_unit_13502.cif
_audit_creation_date              2012-12-11T14:54:33-0500
_audit_creation_method            fapswitch 2.2
_symmetry_space_group_name_H-M    P1
_symmetry_Int_Tables_number       1
_space_group_crystal_system       triclinic
_cell_length_a                    18.921784
_cell_length_b                    10.913141
_cell_length_c                    18.845727
_cell_angle_alpha                 89.818066
_cell_angle_beta                  89.850714
_cell_angle_gamma                 90.033619
_cell_volume                      3891.53554876

loop_
_atom_site_label
_atom_site_type_symbol
_atom_type_description
_atom_site_fract_x
_atom_site_fract_y
_atom_site_fract_z
_atom_type_partial_charge
C1    C     C_R   0.730273 0.376372 0.645776 0.590542
C2    C     C_R   0.214470 0.839410 0.450729 0.380958
C3    C     C_R   0.982351 0.543225 0.471012 0.178607
C4    C     C_3   0.504384 0.838736 0.586608 -0.209317
C5    C     C_3   0.545158 0.871312 0.405272 -0.253746
C6    C     C_3   0.980736 0.345671 0.593737 -0.217437
C7    C     C_3   0.029400 0.360290 0.414203 -0.271201
C8    C     C_R   0.211810 0.343452 0.541888 0.362632
C9    C     C_R   0.786573 0.341056 0.458147 0.345722
C10   C     C_R   0.726596 0.955760 0.451326 -0.119336
C11   C     C_R   0.208881 0.818604 0.523201 -0.155731
C12   C     C_R   0.214414 0.326826 0.468939 -0.189173
C13   C     C_R   0.785380 0.326194 0.531304 -0.093230
C14   C     C_R   0.772166 0.859050 0.435223 -0.018909
C15   C     C_R   0.242519 0.897420 0.571279 0.001827
C16   C     C_R   0.250754 0.411379 0.425668 -0.018455
C17   C     C_R   0.269751 0.376224 0.354236 0.585283
C18   C     C_R   0.749113 0.411070 0.574173 -0.002056
C19   C     C_R   0.805390 0.793072 0.489678 0.300547
C20   C     C_R   0.282449 0.996607 0.547352 0.379517
C21   C     C_R   0.282230 0.514905 0.455414 0.374006
C22   C     C_R   0.717044 0.513731 0.543904 0.356391
C23   C     C_R   0.794917 0.826395 0.560225 -0.118833
C24   C     C_R   0.289357 0.015865 0.474816 -0.152181
C25   C     C_R   0.281409 0.529344 0.527902 -0.176954
C26   C     C_R   0.717523 0.527478 0.471393 -0.101241
C27   C     C_R   0.749720 0.923654 0.576090 0.002782
C28   C     C_R   0.229948 0.876341 0.645638 0.607229
C29   C     C_R   0.254849 0.937981 0.426774 -0.001574
C30   C     C_R   0.247086 0.443268 0.571648 -0.012636
C31   C     C_R   0.751922 0.441396 0.428020 0.007002
C32   C     C_R   0.538328 0.062675 0.972962 -0.110713
C33   C     C_R   0.529010 0.067122 0.045354 -0.128493
C34   C     C_R   0.021537 0.554307 0.969337 -0.092888
C35   C     C_R   0.015459 0.557497 0.041759 -0.109039
C36   C     C_R   0.497077 0.169365 0.075857 0.005372
C37   C     C_R   0.517161 0.161438 0.929900 0.036948
C38   C     C_R   0.996934 0.666582 0.075560 0.015936
C39   C     C_R   0.787967 0.830724 0.361746 0.594407
C40   C     C_R   0.013842 0.661796 0.929000 0.025197
C41   C     C_R   0.479092 0.271254 0.033621 -0.115632
C42   C     C_R   0.489143 0.267200 0.960560 -0.077092
C43   C     C_R   0.990506 0.775592 0.036109 -0.120407
C44   C     C_R   0.999825 0.773393 0.962781 -0.124800
C45   C     C_R   0.530176 0.155213 0.647615 0.582938
C46   C     C_R   0.466259 0.153257 0.354983 0.533335
C47   C     C_R   0.030332 0.655837 0.647601 0.522780
C48   C     C_R   0.966359 0.653038 0.354961 0.589843
C49   C     C_R   0.785681 0.028998 0.973198 -0.114810
C50   C     C_3   0.473947 0.383721 0.459284 -0.246502
C51   C     C_R   0.219111 0.055529 0.021425 -0.122687
C52   C     C_R   0.304854 0.489212 0.966582 -0.102930
C53   C     C_R   0.683475 0.430949 0.044432 -0.072794
C54   C     C_R   0.786723 0.015710 0.045783 0.306954
C55   C     C_R   0.211673 0.028196 0.950231 0.317247
C56   C     C_R   0.305780 0.487468 0.039169 0.315566
C57   C     C_R   0.677336 0.422129 0.972073 0.327493
C58   C     C_R   0.749187 0.919369 0.077373 0.026927
C59   C     C_R   0.253350 0.935478 0.919249 0.029287
C60   C     C_R   0.253017 0.423327 0.076834 0.034459
C61   C     C_3   0.480574 0.387872 0.539307 -0.275646
C62   C     C_R   0.737426 0.396827 0.929833 0.022565
C63   C     C_R   0.704144 0.845277 0.035795 0.304737
C64   C     C_R   0.308757 0.883129 0.958831 0.319192
C65   C     C_R   0.193978 0.377396 0.040481 0.281357
C66   C     C_R   0.803149 0.377449 0.962013 0.298272
C67   C     C_R   0.702520 0.860635 0.962779 -0.128689
C68   C     C_R   0.317220 0.914237 0.029970 -0.092352
C69   C     C_R   0.191728 0.384619 0.966768 -0.104465
C70   C     C_R   0.809163 0.389308 0.035022 -0.069124
C71   C     C_R   0.745332 0.949378 0.931155 -0.096100
C72   C     C_3   0.993390 0.887162 0.455053 -0.233273
C73   C     C_R   0.269782 0.995732 0.062477 -0.110135
C74   C     C_R   0.247940 0.438858 0.929486 -0.093514
C75   C     C_R   0.749549 0.420077 0.075932 -0.073400
C76   C     C_R   0.741848 0.967574 0.648034 0.589126
C77   C     C_R   0.258730 0.969279 0.352665 0.624428
C78   C     C_R   0.240793 0.472640 0.646121 0.598132
C79   C     C_R   0.758906 0.471679 0.353623 0.592327
C80   C     C_R   0.727163 0.372992 0.854870 0.591467
C81   C     C_R   0.269872 0.380665 0.148069 0.585256
C82   C     C_R   0.230534 0.880954 0.851883 0.597756
C83   C     C_3   0.999795 0.893281 0.535221 -0.261749
C84   C     C_R   0.769621 0.879176 0.147878 0.597901
C85   C     C_R   0.535001 0.156252 0.855148 0.545920
C86   C     C_R   0.468102 0.157813 0.146778 0.531815
C87   C     C_R   0.034188 0.656445 0.854774 0.546407
C88   C     C_R   0.968228 0.657507 0.146788 0.551778
C89   C     C_R   0.739982 0.976252 0.856282 0.546991
C90   C     C_R   0.272857 0.021648 0.138517 0.563621
C91   C     C_R   0.240670 0.473050 0.855438 0.569063
C92   C     C_R   0.758695 0.469592 0.146272 0.568491
C93   C     C_R   0.493785 0.152002 0.427425 -0.001903
C94   C     C_R   0.714762 0.987327 0.521663 0.337871
C95   C     C_R   0.499751 0.161076 0.576957 0.039039
C96   C     C_R   0.993298 0.650388 0.427683 0.069025
C97   C     C_R   0.000126 0.664681 0.577063 -0.005544
C98   C     C_R   0.508714 0.261219 0.462763 -0.014377
C99   C     C_R   0.514912 0.264585 0.535799 0.033550
C100  C     C_R   0.016152 0.756859 0.461229 0.041006
C101  C     C_R   0.022629 0.762031 0.534060 -0.011095
C102  C     C_R   0.484478 0.049073 0.542527 0.190537
C103  C     C_R   0.489856 0.041502 0.468757 0.158994
C104  C     C_R   0.977433 0.555408 0.544704 0.184965
Cr1   Cr    Cr6+3 0.771950 0.169480 0.750100 1.071394
Cr2   Cr    Cr6+3 0.383410 0.010620 0.249390 1.060092
Cr3   Cr    Cr6+3 0.116590 0.510620 0.750610 1.080357
Cr4   Cr    Cr6+3 0.883410 0.510620 0.249390 1.085866
Cr5   Cr    Cr6+3 0.228050 0.169480 0.249900 1.069274
Cr6   Cr    Cr6+3 0.271950 0.669480 0.750100 1.074516
Cr7   Cr    Cr6+3 0.728050 0.669480 0.249900 1.072851
Cr8   Cr    Cr6+3 0.614930 0.323340 0.749170 1.106374
Cr9   Cr    Cr6+3 0.385070 0.323340 0.250830 1.081815
Cr10  Cr    Cr6+3 0.114930 0.823340 0.749170 1.078554
Cr11  Cr    Cr6+3 0.885070 0.823340 0.250830 1.088532
Cr12  Cr    Cr6+3 0.616590 0.010620 0.750610 1.063824
F1    F     F_    0.827188 0.093432 0.084578 -0.609769
F2    F     F_    0.180343 0.765087 0.404439 -0.611537
F3    F     F_    0.177157 0.260767 0.583222 -0.608218
F4    F     F_    0.819362 0.256334 0.417006 -0.632987
F5    F     F_    0.847825 0.696877 0.474381 -0.688209
F6    F     F_    0.312396 0.076009 0.593708 -0.625890
F7    F     F_    0.316562 0.599137 0.414758 -0.593884
F8    F     F_    0.682920 0.598296 0.584156 -0.644030
F9    F     F_    0.160558 0.087682 0.913199 -0.605294
F10   F     F_    0.360560 0.544756 0.071804 -0.593726
F11   F     F_    0.611984 0.438633 0.944077 -0.607418
F12   F     F_    0.664880 0.753495 0.064622 -0.601340
F13   F     F_    0.352054 0.796997 0.930455 -0.602054
F14   F     F_    0.139191 0.324910 0.075939 -0.636370
F15   F     F_    0.861570 0.351096 0.922958 -0.618316
F16   F     F_    0.671412 0.083029 0.536659 -0.647052
H1    H     H_    0.816062 0.103280 0.950103 0.214858
H2    H     H_    0.042910 0.955078 0.553128 0.167654
H3    H     H_    0.418138 0.378885 0.441481 0.181246
H4    H     H_    0.517758 0.459762 0.557959 0.174560
H5    H     H_    0.507283 0.453062 0.431719 0.159956
H6    H     H_    0.428751 0.385876 0.567337 0.150952
H7    H     H_    0.033239 0.944450 0.426915 0.157998
H8    H     H_    0.948332 0.906616 0.562760 0.145576
H9    H     H_    0.701070 0.007458 0.409429 0.166162
H10   H     H_    0.177231 0.742351 0.542174 0.128087
H11   H     H_    0.190994 0.244800 0.446850 0.156105
H12   H     H_    0.183358 0.120667 0.045134 0.231106
H13   H     H_    0.809113 0.244603 0.553828 0.173278
H14   H     H_    0.822053 0.777241 0.602100 0.142863
H15   H     H_    0.319743 0.093756 0.455918 0.122276
H16   H     H_    0.306720 0.610001 0.549617 0.165204
H17   H     H_    0.692282 0.608202 0.449433 0.156683
H18   H     H_    0.562788 0.981581 0.950847 0.163661
H19   H     H_    0.543543 0.988028 0.077033 0.170779
H20   H     H_    0.034030 0.466906 0.945375 0.178883
H21   H     H_    0.020951 0.472152 0.070751 0.204373
H22   H     H_    0.453715 0.350920 0.056363 0.194983
H23   H     H_    0.347870 0.536009 0.939789 0.225702
H24   H     H_    0.474324 0.345165 0.928145 0.171324
H25   H     H_    0.975465 0.860785 0.061303 0.171804
H26   H     H_    0.995676 0.857789 0.932680 0.162747
H27   H     H_    0.430558 0.964387 0.626976 0.291506
H28   H     H_    0.508761 0.808980 0.642862 0.145121
H29   H     H_    0.558580 0.858752 0.566856 0.192059
H30   H     H_    0.481364 0.762206 0.555638 0.163190
H31   H     H_    0.434316 0.899287 0.417544 0.296337
H32   H     H_    0.533250 0.777796 0.385582 0.147851
H33   H     H_    0.588491 0.864141 0.444496 0.148874
H34   H     H_    0.636975 0.454013 0.075348 0.196749
H35   H     H_    0.563111 0.928979 0.360087 0.169790
H36   H     H_    0.917529 0.490331 0.630543 0.254073
H37   H     H_    0.981489 0.318200 0.650551 0.148467
H38   H     H_    0.036381 0.352188 0.575197 0.200019
H39   H     H_    0.952862 0.273454 0.563337 0.163432
H40   H     H_    0.921457 0.411483 0.417617 0.330508
H41   H     H_    0.013519 0.266342 0.398365 0.161545
H42   H     H_    0.071124 0.352821 0.455037 0.146659
H43   H     H_    0.051319 0.408921 0.367264 0.175928
H44   H     H_    0.668685 0.802547 0.931009 0.181987
H45   H     H_    0.358753 0.870200 0.060144 0.206364
H46   H     H_    0.145767 0.350153 0.939152 0.202805
H47   H     H_    0.861077 0.381647 0.058737 0.196556
H48   H     H_    0.938154 0.897910 0.436312 0.188191
N1    N     N_2   0.458638 0.945136 0.581365 -0.479033
N2    N     N_2   0.482781 0.922479 0.438468 -0.489391
N3    N     N_2   0.943650 0.461165 0.585527 -0.488499
N4    N     N_2   0.968910 0.424449 0.442900 -0.483488
O1    O     O_R   0.787510 0.042610 0.670410 -0.524485
O2    O     O_R   0.454250 0.051070 0.169440 -0.519263
O3    O     O_R   0.045750 0.551070 0.830560 -0.511801
O4    O     O_R   0.954250 0.551070 0.169440 -0.514870
O5    O     O_R   0.681210 0.959150 0.825320 -0.508836
O6    O     O_R   0.318790 0.959150 0.174680 -0.478376
O7    O     O_R   0.181210 0.459150 0.825320 -0.490569
O8    O     O_R   0.818790 0.459150 0.174680 -0.494467
O9    O     O_3   0.667820 0.167810 0.749960 -0.276790
O10   O     O_3   0.332180 0.167810 0.250040 -0.310602
O11   O     O_3   0.167820 0.667810 0.749960 -0.292984
O12   O     O_R   0.212490 0.042610 0.329590 -0.511386
O13   O     O_3   0.832180 0.667810 0.250040 -0.298934
O14   O     O_R   0.765670 0.292090 0.675090 -0.521417
O15   O     O_R   0.234330 0.292090 0.324910 -0.533665
O16   O     O_R   0.265670 0.792090 0.675090 -0.518945
O17   O     O_R   0.734330 0.792090 0.324910 -0.527865
O18   O     O_R   0.670220 0.409020 0.668560 -0.447543
O19   O     O_R   0.329780 0.409020 0.331440 -0.453848
O20   O     O_R   0.170220 0.909020 0.668560 -0.486564
O21   O     O_R   0.829780 0.909020 0.331440 -0.489386
O22   O     O_R   0.556580 0.251590 0.674980 -0.496533
O23   O     O_R   0.287510 0.542610 0.670410 -0.543523
O24   O     O_R   0.443420 0.251590 0.325020 -0.507137
O25   O     O_R   0.056580 0.751590 0.674980 -0.507780
O26   O     O_R   0.943420 0.751590 0.325020 -0.506334
O27   O     O_R   0.545890 0.049670 0.670030 -0.503460
O28   O     O_R   0.454110 0.049670 0.329970 -0.523181
O29   O     O_R   0.045890 0.549670 0.670030 -0.512082
O30   O     O_R   0.954110 0.549670 0.329970 -0.525739
O31   O     O_R   0.681340 0.957860 0.676500 -0.459854
O32   O     O_R   0.318660 0.957860 0.323500 -0.489260
O33   O     O_R   0.181340 0.457860 0.676500 -0.445393
O34   O     O_R   0.712490 0.542610 0.329590 -0.550484
O35   O     O_R   0.818660 0.457860 0.323500 -0.455039
O36   O     O_R   0.787380 0.044010 0.830940 -0.507386
O37   O     O_R   0.212620 0.044010 0.169060 -0.474185
O38   O     O_R   0.287380 0.544010 0.830940 -0.494763
O39   O     O_R   0.712620 0.544010 0.169060 -0.471251
O40   O     O_R   0.765540 0.293390 0.823910 -0.464552
O41   O     O_R   0.234460 0.293390 0.176090 -0.472446
O42   O     O_R   0.265540 0.793390 0.823910 -0.448003
O43   O     O_R   0.734460 0.793390 0.176090 -0.446107
O44   O     O_R   0.670090 0.410410 0.829090 -0.451300
O45   O     O_R   0.556450 0.252890 0.823790 -0.478826
O46   O     O_R   0.329910 0.410410 0.170910 -0.443213
O47   O     O_R   0.170090 0.910410 0.829090 -0.442653
O48   O     O_R   0.829910 0.910410 0.170910 -0.450688
O49   O     O_R   0.443550 0.252890 0.176210 -0.501146
O50   O     O_R   0.056450 0.752890 0.823790 -0.502383
O51   O     O_R   0.943550 0.752890 0.176210 -0.502782
O52   O     O_R   0.545750 0.051070 0.830560 -0.520856

loop_
_geom_bond_atom_site_label_1
_geom_bond_atom_site_label_2
_ccdc_geom_bond_type
C3    C104  A    
C82   O47   A    
C16   C21   A    
Cr8   O44   S    
C55   C59   A    
C85   O52   A    
C44   H26   S    
C41   C42   A    
C19   C23   A    
C1    O14   A    
C59   C82   S    
C13   H13   S    
Cr12  O5    S    
Cr7   O17   S    
Cr11  O51   S    
C65   F14   S    
C2    F2    S    
C50   H5    S    
C57   C62   A    
Cr2   O10   S    
C61   C99   S    
C51   H12   S    
C52   H23   S    
Cr1   O9    S    
C82   O42   A    
C59   C64   A    
C45   O27   A    
C87   O50   A    
C81   O41   A    
C13   C18   A    
C2    C29   A    
C34   C40   A    
C64   C68   A    
C40   C87   S    
C37   C85   S    
C77   O12   A    
C73   C90   S    
C41   H22   S    
Cr12  O27   S    
C52   C74   A    
C50   H3    S    
C78   O33   A    
C54   C58   A    
C95   C99   A    
C70   H47   S    
C67   C71   A    
C10   C94   A    
C49   C54   A    
C103  N2    S    
C7    H42   S    
Cr3   O3    S    
C68   H45   S    
Cr4   O13   S    
C33   C36   A    
Cr5   O12   S    
C34   C35   A    
Cr9   O10   S    
Cr1   O1    S    
C37   C42   A    
C17   O19   A    
C9    C13   A    
C78   O23   A    
C83   H2    S    
C21   C25   A    
C14   C39   S    
Cr3   O33   S    
Cr4   O35   S    
C11   C15   A    
C72   H7    S    
C55   F9    S    
C16   C17   S    
C7    H43   S    
C3    C96   A    
Cr7   O34   S    
C5    H33   S    
C4    N1    S    
C83   C101  S    
C3    N4    S    
C20   F6    S    
C63   F12   S    
C95   C102  A    
Cr9   O49   S    
Cr1   O36   S    
Cr9   O19   S    
C26   C31   A    
H31   N2    S    
C47   O25   A    
C93   C103  A    
C36   C41   A    
C53   C75   A    
C35   H21   S    
Cr12  O31   S    
C84   O48   A    
C1    O18   A    
Cr3   O11   S    
C83   H8    S    
Cr7   O39   S    
C48   O30   A    
C6    H39   S    
C92   O39   A    
C15   C20   A    
C23   H14   S    
C63   C67   A    
C50   C98   S    
C86   O49   A    
Cr10  O11   S    
C62   C66   A    
Cr6   O16   S    
C22   F8    S    
C28   O20   A    
C5    H32   S    
C12   C16   A    
Cr9   O46   S    
C35   C38   A    
C85   O45   A    
Cr2   O2    S    
C90   O37   A    
Cr10  O50   S    
C33   H19   S    
Cr10  O47   S    
C58   C63   A    
C53   C57   A    
C79   O34   A    
C87   O3    A    
C36   C86   S    
C68   C73   A    
C91   O7    A    
C94   F16   S    
Cr8   O45   S    
C56   C60   A    
C38   C88   S    
C10   H9    S    
C74   C91   S    
C21   F7    S    
C42   H24   S    
C43   C44   A    
Cr9   O24   S    
C45   O22   A    
C46   O24   A    
C58   C84   S    
C69   H46   S    
C80   O40   A    
Cr11  O13   S    
C60   C81   S    
H40   N4    S    
C79   O35   A    
C71   C89   S    
C88   O4    A    
C67   H44   S    
C8    C12   A    
H36   N3    S    
Cr2   O28   S    
Cr12  O52   S    
C1    C18   S    
C32   H18   S    
C69   C74   A    
C28   O16   A    
C32   C37   A    
C80   O44   A    
C91   O38   A    
C24   C29   A    
Cr11  O48   S    
Cr6   O23   S    
C22   C26   A    
C75   C92   S    
C46   O28   A    
Cr5   O10   S    
Cr12  O9    S    
C7    N4    S    
C77   O32   A    
Cr1   O14   S    
C48   O26   A    
C60   C65   A    
C86   O2    A    
C23   C27   A    
C81   O46   A    
Cr11  O21   S    
Cr6   O42   S    
C4    H30   S    
Cr5   O15   S    
Cr2   O6    S    
C27   C76   S    
C45   C95   S    
C5    N2    S    
Cr6   O11   S    
Cr5   O37   S    
Cr10  O25   S    
C66   F15   S    
C6    H38   S    
C62   C80   S    
C25   C30   A    
C9    F4    S    
C88   O51   A    
C49   H1    S    
C19   F5    S    
Cr10  O20   S    
Cr5   O41   S    
C48   C96   S    
Cr11  O26   S    
C18   C22   A    
C102  N1    S    
C14   C19   A    
Cr4   O4    S    
C26   H17   S    
C51   C73   A    
C43   H25   S    
C24   H15   S    
C57   F11   S    
C56   F10   S    
C31   C79   S    
C64   F13   S    
C66   C70   A    
Cr1   O40   S    
Cr2   O32   S    
C6    N3    S    
C47   C97   S    
C12   H11   S    
C34   H20   S    
Cr7   O43   S    
C32   C33   A    
C39   O17   A    
C47   O29   A    
C8    C30   A    
C38   C43   A    
Cr3   O29   S    
C89   O5    A    
Cr7   O13   S    
C89   O36   A    
C76   O31   A    
C15   C28   S    
C4    H28   S    
C46   C93   S    
C65   C69   A    
C7    H41   S    
C100  C101  A    
C17   O15   A    
C25   H16   S    
C51   C55   A    
C5    H35   S    
C96   C100  A    
C102  C103  A    
C61   H6    S    
C11   H10   S    
Cr4   O30   S    
Cr8   O9    S    
C97   C104  A    
C9    C31   A    
C72   C83   S    
Cr8   O22   S    
H27   N1    S    
C30   C78   S    
C52   C56   A    
C53   H34   S    
C40   C44   A    
C104  N3    S    
C29   C77   S    
C90   O6    A    
C8    F3    S    
C98   C99   A    
C49   C71   A    
C54   F1    S    
Cr3   O7    S    
C70   C75   A    
C50   C61   S    
C72   H48   S    
C4    H29   S    
Cr4   O8    S    
C27   C94   A    
C2    C11   A    
C72   C100  S    
C10   C14   A    
C39   O21   A    
C84   O43   A    
C93   C98   A    
C20   C24   A    
C97   C101  A    
C76   O1    A    
C92   O8    A    
C61   H4    S    
Cr8   O18   S    
C6    H37   S    
Cr6   O38   S    
