data_mof_unit_50954.cif
_audit_creation_date              2012-12-10T19:44:39-0500
_audit_creation_method            fapswitch 2.2
_symmetry_space_group_name_H-M    P1
_symmetry_Int_Tables_number       1
_space_group_crystal_system       triclinic
_cell_length_a                    8.483952
_cell_length_b                    14.87153
_cell_length_c                    14.109387
_cell_angle_alpha                 89.908437
_cell_angle_beta                  98.83406
_cell_angle_gamma                 89.966864
_cell_volume                      1759.05156863

loop_
_atom_site_label
_atom_site_type_symbol
_atom_type_description
_atom_site_fract_x
_atom_site_fract_y
_atom_site_fract_z
_atom_type_partial_charge
C1    C     C_R   0.503107 0.327300 0.500389 0.930326
C2    C     C_R   0.401106 0.437968 0.885534 0.411729
C3    C     C_R   0.496325 0.501229 0.052862 0.041400
C4    C     C_R   0.496140 0.499135 0.946411 0.024590
C5    C     C_R   0.202554 0.514056 0.475347 0.961531
C6    C     C_R   0.797452 0.513970 0.524634 0.959858
C7    C     C_2   0.039583 0.543637 0.461831 -0.060642
C8    C     C_2   0.960358 0.543476 0.538212 -0.072634
C9    C     C_R   0.642016 0.099556 0.586083 0.480607
C10   C     C_R   0.657212 0.898774 0.450765 0.500883
C11   C     C_R   0.613515 0.191543 0.584088 -0.239728
C12   C     C_R   0.502216 0.672578 0.500121 0.869769
C13   C     C_R   0.628528 0.806841 0.446140 -0.261868
C14   C     C_R   0.525572 0.231415 0.502698 -0.124317
C15   C     C_R   0.523870 0.768154 0.502111 -0.100628
C16   C     C_R   0.467315 0.180266 0.422146 -0.171484
C17   C     C_R   0.447896 0.820073 0.563719 -0.152683
C18   C     C_R   0.490990 0.088454 0.424407 -0.106365
C19   C     C_R   0.471402 0.911843 0.566524 -0.098994
C20   C     C_R   0.576591 0.048049 0.506054 0.000882
C21   C     C_R   0.574729 0.951234 0.510144 -0.015068
C22   C     C_3   0.964984 0.570270 0.360749 -0.776074
C23   C     C_R   0.589561 0.439024 0.112151 -0.221582
C24   C     C_3   0.034902 0.569430 0.639435 -0.747345
C25   C     C_R   0.592776 0.559534 0.904588 -0.213466
C26   C     C_R   0.589697 0.439425 0.211751 0.000441
C27   C     C_R   0.592886 0.559011 0.805009 0.049052
C28   C     C_R   0.409145 0.561604 0.197022 -0.073700
C29   C     C_R   0.405807 0.440158 0.785944 -0.085263
C30   C     C_R   0.404772 0.564069 0.096574 0.324463
H1    H     H_    0.661484 0.232357 0.645306 0.206328
H2    H     H_    0.667491 0.605937 0.773550 0.151936
H3    H     H_    0.339739 0.609055 0.231469 0.175111
H4    H     H_    0.333936 0.393933 0.738482 0.183061
H5    H     H_    0.051951 0.609164 0.325745 0.247616
H6    H     H_    0.929983 0.509374 0.317113 0.247946
H7    H     H_    0.860850 0.615522 0.361110 0.252968
H8    H     H_    0.947928 0.608153 0.674547 0.238610
H9    H     H_    0.069771 0.508241 0.682880 0.261663
H10   H     H_    0.139041 0.614660 0.639318 0.253662
H11   H     H_    0.704582 0.980191 0.813961 0.404138
H12   H     H_    0.689566 0.765014 0.400429 0.186145
H13   H     H_    0.776378 0.017280 0.247583 0.398838
H14   H     H_    0.475451 0.744070 0.042137 0.358194
H15   H     H_    0.318223 0.242682 0.024710 0.398493
H16   H     H_    0.400119 0.210964 0.358794 0.177075
H17   H     H_    0.367646 0.789895 0.607480 0.177027
H18   H     H_    0.438370 0.048299 0.363669 0.198228
H19   H     H_    0.406003 0.952704 0.610808 0.207069
H20   H     H_    0.661760 0.390214 0.081373 0.202893
H21   H     H_    0.667661 0.607020 0.948890 0.192841
H22   H     H_    0.661764 0.391134 0.256665 0.152428
N1    N     N_R   0.500000 0.499980 0.252470 -0.117584
N2    N     N_R   0.500000 0.500020 0.747530 -0.127634
O1    O     O_R   0.500010 0.369070 0.579480 -0.608201
O2    O     O_2   0.862860 0.121381 0.742701 -0.236886
O3    O     O_3   0.633832 0.009942 0.760686 -0.539759
O4    O     O_2   0.888158 0.019752 0.437516 -0.270702
O5    O     O_2   0.908497 0.874469 0.358326 -0.286575
O6    O     O_3   0.694319 0.987839 0.279876 -0.553930
O7    O     O_2   0.182030 0.601930 0.945400 -0.233335
O8    O     O_2   0.181010 0.694127 0.088801 -0.275140
O9    O     O_3   0.404212 0.721302 0.985005 -0.509699
O10   O     O_2   0.177483 0.404498 0.996219 -0.271853
O11   O     O_2   0.169352 0.313168 0.851042 -0.258830
O12   O     O_R   0.499990 0.630930 0.420520 -0.633380
O13   O     O_3   0.392858 0.280595 0.994634 -0.539532
O14   O     O_R   0.500010 0.369060 0.420520 -0.612421
O15   O     O_R   0.499990 0.630940 0.579480 -0.630552
O16   O     O_R   0.271750 0.500000 0.560890 -0.625278
O17   O     O_R   0.728250 0.500000 0.439110 -0.627928
O18   O     O_R   0.271750 0.499990 0.401930 -0.608304
O19   O     O_R   0.728250 0.500010 0.598070 -0.608300
O20   O     O_2   0.859026 0.976381 0.659881 -0.260907
S1    S     S_3+6 0.757343 0.051245 0.688903 0.063432
S2    S     S_3+6 0.795084 0.945688 0.382204 0.037102
S3    S     S_3+6 0.285558 0.646088 0.028280 0.056550
S4    S     S_3+6 0.277157 0.358446 0.931410 0.051376
Zn1   Zn    Zn3+2 0.500000 0.500010 0.606140 0.967106
Zn2   Zn    Zn3+2 0.500000 0.499990 0.393860 0.955204

loop_
_geom_bond_atom_site_label_1
_geom_bond_atom_site_label_2
_ccdc_geom_bond_type
O14   Zn2   S    
C12   O15   A    
O8    S3    D    
C3    C23   A    
C24   H9    S    
C4    C25   A    
C27   N2    A    
O4    S2    D    
C7    C8    D    
C22   H5    S    
C2    C29   A    
C19   C21   A    
C5    O18   A    
C11   C14   A    
C29   N2    A    
C1    O14   A    
C23   C26   A    
O17   Zn2   S    
C24   H10   S    
C30   S3    S    
C10   S2    S    
O7    S3    D    
H15   O13   S    
C24   H8    S    
C27   H2    S    
C11   H1    S    
C10   C21   A    
O2    S1    D    
O13   S4    S    
C13   H12   S    
H14   O9    S    
C6    O17   A    
O20   S1    D    
N1    Zn2   S    
C16   H16   S    
C5    C7    S    
C17   C19   A    
C23   H20   S    
C6    C8    S    
C22   H7    S    
C12   O12   A    
C29   H4    S    
O6    S2    S    
C3    C30   A    
C2    C4    A    
C25   H21   S    
C5    O16   A    
C2    S4    S    
C26   H22   S    
O1    Zn1   S    
C19   H19   S    
C9    C20   A    
C12   C15   S    
O19   Zn1   S    
C9    C11   A    
H13   O6    S    
C28   H3    S    
C13   C15   A    
C14   C16   A    
O15   Zn1   S    
C3    C4    S    
C26   N1    A    
O12   Zn2   S    
C6    O19   A    
N2    Zn1   S    
O9    S3    S    
C15   C17   A    
O11   S4    D    
O16   Zn1   S    
O10   S4    D    
C17   H17   S    
C10   C13   A    
C18   H18   S    
C28   N1    A    
C25   C27   A    
C7    C22   S    
C22   H6    S    
O3    S1    S    
C28   C30   A    
C1    O1    A    
H11   O3    S    
O18   Zn2   S    
C8    C24   S    
C18   C20   A    
C20   C21   S    
C16   C18   A    
C1    C14   S    
C9    S1    S    
O5    S2    D    
