data_mof_unit_21624.cif
_audit_creation_date              2013-03-05T15:54:21-0500
_audit_creation_method            fapswitch 2.2
_symmetry_space_group_name_H-M    P1
_symmetry_Int_Tables_number       1
_space_group_crystal_system       triclinic
_cell_length_a                    15.082594
_cell_length_b                    14.872851
_cell_length_c                    14.940523
_cell_angle_alpha                 109.658896
_cell_angle_beta                  109.270987
_cell_angle_gamma                 109.800242
_cell_volume                      2569.79751926

loop_
_atom_site_label
_atom_site_type_symbol
_atom_site_description
_atom_site_fract_x
_atom_site_fract_y
_atom_site_fract_z
_atom_type_partial_charge
C1    C     C_R   0.941645 0.757473 0.033033 -0.104402
H1    H     H_    0.894666 0.773255 0.069002 0.108723
N1    N     N_R   0.995640 0.706130 0.053910 -0.039665
C2    C     C_R   0.791122 0.196074 0.698614 -0.183673
H2    H     H_    0.823222 0.168835 0.646714 0.130388
N2    N     N_R   0.848310 0.293860 0.791110 -0.066271
C3    C     C_R   0.101759 0.591419 0.796165 -0.166873
H3    H     H_    0.170181 0.673629 0.836515 0.133136
N3    N     N_R   0.054010 0.556790 0.847890 -0.043971
C4    C     C_R   0.684438 0.409178 0.949469 -0.089302
H4    H     H_    0.618888 0.325089 0.902144 0.175452
N4    N     N_R   0.789940 0.443190 0.997130 -0.034583
C5    C     C_R   0.003226 0.408467 0.699459 -0.080504
H5    H     H_    0.971531 0.322504 0.643918 0.138029
N5    N     N_R   0.997630 0.443170 0.791110 -0.052293
C6    C     C_R   0.778382 0.593306 0.054103 -0.088229
H6    H     H_    0.801513 0.675489 0.111287 0.116078
N6    N     N_R   0.846320 0.556810 0.053910 -0.037566
C7    C     C_R   0.699551 0.194739 0.788553 0.326744
N7    N     N_R   0.791080 0.293860 0.847890 -0.089164
C8    C     C_R   0.029425 0.753904 0.938146 -0.107499
H7    H     H_    0.059987 0.762705 0.883798 0.108228
N8    N     N_R   0.052880 0.706130 0.997130 -0.047317
C9    C     C_R   0.957288 0.784958 0.957747 0.049285
C10   C     C_R   0.698384 0.129866 0.695459 -0.067254
C11   C     C_R   0.071989 0.500549 0.702171 0.091475
C12   C     C_R   0.676090 0.503253 0.980405 -0.065926
C13   C     C_R   0.015202 0.590929 0.309180 0.268524
N9    N     N_R   0.002370 0.556830 0.208890 -0.091176
C14   C     C_R   0.207688 0.409966 0.901785 0.046450
N10   N     N_R   0.153680 0.443190 0.946090 -0.058217
C15   C     C_R   0.313306 0.747755 0.220251 -0.111962
H8    H     H_    0.375088 0.757156 0.197128 0.106226
N11   N     N_R   0.208920 0.706140 0.152110 -0.048668
C16   C     C_R   0.904112 0.195780 0.995032 -0.140348
H9    H     H_    0.841128 0.168862 0.014768 0.159539
N12   N     N_R   0.947120 0.293870 0.002870 -0.042985
C17   C     C_R   0.993807 0.193534 0.903544 -0.121796
H10   H     H_    0.010698 0.161551 0.839120 0.086427
N13   N     N_R   0.004360 0.293870 0.946090 -0.050683
C18   C     C_R   0.224713 0.748591 0.314657 -0.073979
H11   H     H_    0.207281 0.760197 0.380764 0.126986
N14   N     N_R   0.151690 0.706140 0.208890 -0.038095
C19   C     C_R   0.936186 0.406515 0.219776 -0.142290
H12   H     H_    0.897791 0.320053 0.195806 0.128515
N15   N     N_R   0.945990 0.443210 0.152110 -0.062180
C20   C     C_R   0.296631 0.592293 0.991606 -0.196181
H13   H     H_    0.348011 0.677848 0.018047 0.118440
N16   N     N_R   0.210060 0.556810 0.002870 -0.044680
Ni1   Ni    Ni4+2 0.999010 0.630300 0.130220 0.302092
Ni2   Ni    Ni4+2 0.000990 0.369700 0.869780 0.197677
Ni3   Ni    Ni4+2 0.130280 0.630280 0.000000 0.222786
Ni4   Ni    Ni4+2 0.869720 0.369720 0.000000 0.280711
C21   C     C_R   0.985902 0.498653 0.322506 0.013231
C22   C     C_R   0.297807 0.501580 0.927841 0.031999
C23   C     C_R   0.326132 0.773694 0.322930 0.027629
C24   C     C_R   0.930669 0.130080 0.932182 0.061840
C25   C     C_3   0.484562 0.421417 0.840149 -0.425498
H14   H     H_    0.469299 0.336111 0.816870 0.184802
H15   H     H_    0.508837 0.443803 0.784559 0.174893
C26   C     C_3   0.378679 0.421854 0.823766 -0.321411
H16   H     H_    0.352014 0.446699 0.761884 0.194425
H17   H     H_    0.315267 0.336004 0.790176 0.199395
H18   H     H_    0.532330 0.389645 0.021492 0.179715
H19   H     H_    0.376938 0.387049 0.997330 0.169107
C27   C     C_3   0.543684 0.472886 0.038707 -0.365978
C28   C     C_3   0.591898 0.621609 0.987712 -0.411123
C29   C     C_3   0.576086 0.504913 0.961627 0.381806
H20   H     H_    0.656165 0.685563 0.074055 0.158973
H21   H     H_    0.616092 0.646019 0.933020 0.162802
C30   C     C_3   0.397557 0.503664 0.934875 0.337716
C31   C     C_3   0.438421 0.471400 0.022596 -0.405582
C32   C     C_3   0.486611 0.621057 0.972862 -0.397979
H22   H     H_    0.458912 0.646684 0.911908 0.179501
H23   H     H_    0.504986 0.683359 0.053351 0.156857
H24   H     H_    0.609016 0.533288 0.125953 0.181917
H25   H     H_    0.452148 0.530009 0.102492 0.167571
C33   C     C_R   0.617900 0.978308 0.510400 0.156509
C34   C     C_R   0.621919 0.012878 0.611479 0.009331
C35   C     C_R   0.538319 0.942954 0.619597 -0.083323
H26   H     H_    0.544149 0.958754 0.697755 0.201611
C36   C     C_R   0.441547 0.854932 0.524424 -0.165895
H27   H     H_    0.373162 0.809608 0.531181 0.153845
C37   C     C_R   0.431792 0.831982 0.421609 0.019235
C38   C     C_R   0.523584 0.887710 0.416135 0.148983
C39   C     C_3   0.585100 0.838399 0.379087 -0.494563
C40   C     C_3   0.687462 0.936496 0.481250 -0.462040
H28   H     H_    0.566292 0.758737 0.377779 0.205666
H29   H     H_    0.580160 0.836390 0.302465 0.190841
H30   H     H_    0.728987 0.914528 0.540007 0.202675
H31   H     H_    0.741854 0.991269 0.463798 0.208166
C41   C     C_R   0.120355 0.599375 0.523684 0.068290
C42   C     C_R   0.039274 0.500534 0.425172 0.033863
C43   C     C_R   0.022870 0.401420 0.425543 -0.305858
H32   H     H_    0.976748 0.323002 0.349977 0.173175
C44   C     C_R   0.063575 0.402685 0.525377 0.348880
C45   C     C_R   0.109198 0.502436 0.623366 -0.120320
C46   C     C_R   0.156425 0.600864 0.622100 0.049950
C47   C     C_3   0.177373 0.716467 0.682129 0.180573
C48   C     C_3   0.139463 0.714243 0.573856 -0.530652
H33   H     H_    0.123281 0.725197 0.715840 0.063326
H34   H     H_    0.064231 0.718780 0.550978 0.232886
H35   H     H_    0.204042 0.772074 0.567959 0.220762
C49   C     C_R   0.843791 0.874657 0.945581 0.117147
C50   C     C_R   0.906830 0.837989 0.910038 0.047082
C51   C     C_R   0.931621 0.866721 0.837273 -0.173674
H36   H     H_    0.971294 0.833117 0.799078 0.135529
C52   C     C_R   0.922273 0.954045 0.828225 -0.181449
H37   H     H_    0.956137 0.984561 0.784115 0.136126
C53   C     C_R   0.888278 0.011935 0.892205 0.016005
C54   C     C_R   0.832821 0.959561 0.934971 0.140473
C55   C     C_3   0.831305 0.003706 0.040494 -0.188554
C56   C     C_3   0.844547 0.911661 0.052607 -0.566367
H38   H     H_    0.901716 0.087149 0.107172 0.165755
H39   H     H_    0.924880 0.945310 0.124264 0.217366
H40   H     H_    0.773510 0.849601 0.047592 0.187696
N17   N     N_3   0.165157 0.298590 0.821351 -0.196460
H41   H     H_    0.173977 0.254949 0.862442 0.094279
H42   H     H_    0.082514 0.264782 0.768031 0.138029
N18   N     N_R   0.054863 0.303659 0.526036 0.227851
O1    O     O_R   0.126083 0.310748 0.610347 -0.440064
O2    O     O_R   0.984406 0.206873 0.438314 -0.411439
N19   N     N_R   0.293092 0.796926 0.760561 0.263377
O3    O     O_R   0.366996 0.795535 0.734268 -0.399233
O4    O     O_R   0.322951 0.870047 0.858570 -0.388588
N20   N     N_3   0.725777 0.993057 0.022366 -0.173921
H43   H     H_    0.724229 0.007407 0.095170 0.153576
H44   H     H_    0.662561 0.912276 0.961408 0.161584
N21   N     N_R   0.630012 0.157002 0.829469 0.201160
O5    O     O_R   0.526177 0.118887 0.772097 -0.415030
O6    O     O_R   0.671992 0.184065 0.932252 -0.434951
N22   N     N_R   0.995610 0.678304 0.356022 0.220960
O7    O     O_R   0.916071 0.657056 0.376980 -0.413197
O8    O     O_R   0.033403 0.765733 0.347408 -0.417773

loop_
_geom_bond_atom_site_label_1
_geom_bond_atom_site_label_2
_geom_bond_distance
_ccdc_geom_bond_type
C33   C40   1.496174 S    
C4    C12   1.381956 A    
C27   C29   1.541040 S    
C7    N21   1.429684 S    
C42   C43   1.411948 A    
C40   H31   1.111730 S    
C32   H23   1.112570 S    
C18   H11   1.077903 S    
N1    N8    1.395855 A    
C16   H9    1.075317 S    
C55   H38   1.112354 S    
C45   C46   1.404227 A    
C41   C46   1.378545 A    
C3    H3    1.077940 S    
C20   N16   1.322761 A    
C38   C39   1.493971 S    
C19   H12   1.079800 S    
N21   O6    1.300288 A    
C41   C48   1.491921 S    
N20   H43   1.045558 S    
C3    C11   1.376934 A    
C20   C22   1.375031 A    
C13   N9    1.330646 A    
C16   N12   1.325367 A    
N12   N13   1.395856 A    
N17   H42   1.044778 S    
C14   N10   1.324545 A    
C39   H28   1.112510 S    
N19   O4    1.300429 A    
C51   H36   1.081476 S    
C25   H15   1.113069 S    
C52   H37   1.080525 S    
C1    H1    1.060703 S    
C32   H22   1.113296 S    
C26   H17   1.105261 S    
C53   C54   1.400322 A    
C49   C50   1.404670 A    
C21   C42   1.463689 S    
C12   C29   1.450835 S    
C27   C31   1.516377 S    
C7    N7    1.341276 A    
N18   O2    1.301552 A    
N22   O7    1.301838 A    
C28   C32   1.525918 S    
N5    Ni2   1.854839 S    
N2    Ni2   1.875728 S    
C55   N20   1.465459 S    
N4    Ni4   1.879364 S    
C56   H40   1.111764 S    
N12   Ni4   1.878557 S    
C26   C30   1.552907 S    
C6    C12   1.368592 A    
C8    H7    1.080108 S    
C18   N14   1.348160 A    
C26   H16   1.112734 S    
N3    Ni3   1.853087 S    
N10   N16   1.372634 A    
C55   C56   1.508242 S    
N1    Ni1   1.854760 S    
C19   N15   1.325527 A    
C23   C37   1.455335 S    
N9    Ni1   1.854839 S    
C28   C29   1.556984 S    
N19   O3    1.302457 A    
C37   C38   1.397619 A    
C35   C36   1.396121 A    
C30   C32   1.554330 S    
C13   C21   1.396240 A    
C39   C40   1.504034 S    
C6    H6    1.075813 S    
C25   H14   1.111778 S    
C48   H35   1.111915 S    
C49   C56   1.500496 S    
C1    N1    1.325720 A    
C15   N11   1.325205 A    
C18   C23   1.397055 A    
C31   H25   1.114487 S    
C17   C24   1.382884 A    
C20   H13   1.080447 S    
C25   C29   1.552460 S    
N16   Ni3   1.879364 S    
C27   H24   1.114299 S    
C44   C45   1.414167 A    
C48   H34   1.104653 S    
C43   C44   1.403884 A    
C4    N4    1.326412 A    
N22   O8    1.300457 A    
N7    Ni4   1.852952 S    
C33   C38   1.387396 A    
C2    N2    1.334140 A    
C47   H33   1.111364 S    
C36   H27   1.082546 S    
C36   C37   1.400640 A    
C5    N5    1.333721 A    
C5    C11   1.387634 A    
C8    C9    1.393781 A    
H19   C31   1.112857 S    
C2    C10   1.385799 A    
N18   O1    1.300946 A    
N6    Ni1   1.876501 S    
C47   N19   1.463869 S    
N21   O5    1.301647 A    
C14   C22   1.376490 A    
C28   H20   1.110332 S    
C3    N3    1.328535 A    
N20   H44   1.047153 S    
C54   C55   1.501546 S    
C10   C34   1.465697 S    
C44   N18   1.437362 S    
N11   N14   1.395731 A    
N10   Ni2   1.876498 S    
C35   H26   1.077097 S    
C39   H29   1.111811 S    
C49   C54   1.380579 A    
N14   Ni1   1.875728 S    
C14   N17   1.425285 S    
N13   Ni2   1.854759 S    
N2    N7    1.395733 A    
C50   C51   1.406037 A    
N11   Ni3   1.852951 S    
C47   C48   1.511787 S    
N9    N15   1.372636 A    
C16   C24   1.375889 A    
C28   H21   1.113250 S    
C15   H8    1.078869 S    
C8    N8    1.338814 A    
N3    N5    1.372634 A    
C30   C31   1.555029 S    
N17   H41   1.043357 S    
C17   N13   1.338039 A    
C33   C34   1.394509 A    
N8    Ni3   1.878558 S    
C17   H10   1.074016 S    
C51   C52   1.398042 A    
C25   C26   1.536362 S    
N15   Ni4   1.853086 S    
C41   C42   1.400367 A    
C52   C53   1.409534 A    
C43   H32   1.079244 S    
C7    C10   1.391090 A    
C4    H4    1.071182 S    
C11   C45   1.466172 S    
C34   C35   1.408389 A    
C19   C21   1.387403 A    
C2    H2    1.081255 S    
C1    C9    1.381006 A    
C6    N6    1.312372 A    
C46   C47   1.505897 S    
C40   H30   1.112824 S    
N4    N6    1.372634 A    
C24   C53   1.460732 S    
C9    C50   1.461574 S    
C13   N22   1.431980 S    
C5    H5    1.077939 S    
C15   C23   1.376587 A    
C22   C30   1.461965 S    
H18   C27   1.114122 S    
C56   H39   1.112265 S    
