data_mof_unit_66751.cif
_audit_creation_date              2012-12-11T14:19:23-0500
_audit_creation_method            fapswitch 2.2
_symmetry_space_group_name_H-M    P1
_symmetry_Int_Tables_number       1
_space_group_crystal_system       triclinic
_cell_length_a                    8.362544
_cell_length_b                    12.615633
_cell_length_c                    15.03419
_cell_angle_alpha                 95.06254
_cell_angle_beta                  99.067698
_cell_angle_gamma                 98.002719
_cell_volume                      1541.13679399

loop_
_atom_site_label
_atom_site_type_symbol
_atom_type_description
_atom_site_fract_x
_atom_site_fract_y
_atom_site_fract_z
_atom_type_partial_charge
Ba1   Ba    Ba6+2 0.153570 0.551840 0.456200 1.564607
Ba2   Ba    Ba6+2 0.656590 0.448150 0.543720 1.568698
C1    C     C_3   0.466481 0.964805 0.177338 -0.222730
C2    C     C_3   0.432387 0.862383 0.223757 0.261072
C3    C     C_3   0.591006 0.776320 0.664459 0.129021
C4    C     C_3   0.610841 0.898664 0.678905 -0.301202
C5    C     C_3   0.927060 0.164187 0.754556 0.241071
C6    C     C_3   0.984225 0.074258 0.806375 -0.199025
C7    C     C_3   0.437206 0.219720 0.792700 0.358110
C8    C     C_3   0.480277 0.191195 0.888844 -0.355357
C9    C     C_R   0.080466 0.185544 0.535789 -0.237100
C10   C     C_R   0.734464 0.813567 0.466339 -0.180501
C11   C     C_R   0.699497 0.994359 0.435941 -0.214969
C12   C     C_3   0.896640 0.814003 0.145539 0.075231
C13   C     C_R   0.635966 0.885372 0.432079 0.046551
C14   C     C_R   0.893073 0.849808 0.512697 -0.030988
C15   C     C_R   0.957233 0.962978 0.521873 0.115243
C16   C     C_R   0.859102 0.036190 0.480700 -0.039751
C17   C     C_R   0.921791 0.149228 0.487857 -0.015240
C18   C     C_R   0.179006 0.114430 0.573726 -0.150363
C19   C     C_R   0.115847 0.004988 0.569781 -0.096366
C20   C     C_R   0.227929 0.473838 0.767322 -0.281319
C21   C     C_R   0.132683 0.430230 0.827092 -0.058141
C22   C     C_R   0.199681 0.433169 0.918963 -0.060119
C23   C     C_3   0.996125 0.887619 0.087841 -0.069030
C24   C     C_R   0.363757 0.481795 0.952887 -0.075904
C25   C     C_R   0.456141 0.527176 0.890000 -0.007375
C26   C     C_R   0.388204 0.524061 0.798651 -0.042115
C27   C     C_R   0.600462 0.536913 0.084676 -0.167394
C28   C     C_R   0.659242 0.570572 0.176585 -0.062476
C29   C     C_R   0.407740 0.482345 0.212109 0.103636
C30   C     C_R   0.340560 0.461673 0.119446 -0.164370
C31   C     C_R   0.434673 0.493240 0.053018 0.178777
C32   C     C_R   0.561481 0.544114 0.240410 -0.356810
C33   C     C_3   0.726537 0.315509 0.270558 0.175293
C34   C     C_3   0.688903 0.288623 0.167033 -0.328364
C35   C     C_3   0.150649 0.735075 0.736563 0.530552
C36   C     C_3   0.249782 0.823218 0.809044 -0.342879
C37   C     C_3   0.196961 0.214642 0.324913 0.104339
C38   C     C_3   0.050176 0.139175 0.271278 -0.512541
H1    H     H_    0.709475 0.362924 0.134227 0.075979
H2    H     H_    0.771800 0.235712 0.142931 0.120917
H3    H     H_    0.232566 0.703221 0.693530 -0.023047
H4    H     H_    0.091374 0.667351 0.768875 -0.058823
H5    H     H_    0.336702 0.877767 0.778454 0.083916
H6    H     H_    0.166705 0.873945 0.836200 0.090431
H7    H     H_    0.159581 0.265925 0.379549 0.032800
H8    H     H_    0.360716 0.009159 0.172786 0.119210
H9    H     H_    0.973537 0.185068 0.227668 0.232914
H10   H     H_    0.978290 0.096755 0.317154 0.096353
H11   H     H_    0.092167 0.078374 0.226013 0.178437
H12   H     H_    0.553024 0.839790 0.251108 -0.556257
H13   H     H_    0.491341 0.948073 0.107420 0.128330
H14   H     H_    0.710022 0.752275 0.654870 0.083859
H15   H     H_    0.498355 0.748726 0.602196 0.066829
H16   H     H_    0.674403 0.928355 0.748816 0.175318
H17   H     H_    0.683264 0.934630 0.630270 0.084253
H18   H     H_    0.488653 0.925048 0.667978 0.123123
H19   H     H_    0.574453 0.019051 0.217823 0.165125
H20   H     H_    0.822197 0.129853 0.700001 0.076733
H21   H     H_    0.030454 0.199292 0.722723 -0.021108
H22   H     H_    0.010294 0.009346 0.758419 0.048303
H23   H     H_    0.097466 0.106153 0.855976 0.098950
H24   H     H_    0.888593 0.040552 0.844093 0.132511
H25   H     H_    0.307654 0.233675 0.781483 -0.093017
H26   H     H_    0.518763 0.295144 0.786597 0.119499
H27   H     H_    0.461328 0.257646 0.937627 0.079694
H28   H     H_    0.610725 0.179392 0.903033 0.175072
H29   H     H_    0.401240 0.115892 0.897834 0.116872
H30   H     H_    0.620900 0.045712 0.406253 0.181467
H31   H     H_    0.193813 0.953874 0.603136 0.137060
H32   H     H_    0.131179 0.269962 0.540185 0.090466
H33   H     H_    0.682652 0.729354 0.462480 0.068963
H34   H     H_    0.688542 0.541658 0.039547 0.089572
H35   H     H_    0.120805 0.397263 0.961986 0.073243
H36   H     H_    0.217931 0.417765 0.101379 0.143075
H37   H     H_    0.579718 0.568236 0.909818 0.146376
H38   H     H_    0.612025 0.561173 0.311963 0.140904
H39   H     H_    0.175088 0.471993 0.696542 0.123348
H40   H     H_    0.120467 0.911754 0.127221 0.015740
H41   H     H_    0.623002 0.347132 0.295642 0.027900
H42   H     H_    0.836471 0.378487 0.287240 0.099610
O1    O     O_2   0.168170 0.764170 0.543850 -0.430339
O2    O     O_3   0.270352 0.272960 0.263102 -0.595440
O3    O     O_3   0.978930 0.724295 0.161155 -0.531998
O4    O     O_2   0.642110 0.235770 0.456130 -0.415461
O5    O     O_3   0.911620 0.370210 0.454030 -0.488919
O6    O     O_3   0.444310 0.304480 0.619110 -0.448070
O7    O     O_3   0.757273 0.222805 0.310823 -0.646047
O8    O     O_3   0.400800 0.556680 0.607590 -0.491707
O9    O     O_3   0.875770 0.359510 0.664420 -0.478744
O10   O     O_2   0.797225 0.431896 0.822565 -0.432893
O11   O     O_3   0.875121 0.239041 0.814709 -0.594992
O12   O     O_3   0.898670 0.629780 0.545890 -0.484603
O13   O     O_3   0.409490 0.443300 0.392340 -0.490526
O14   O     O_2   0.674250 0.555830 0.719690 -0.388866
O15   O     O_3   0.542180 0.734140 0.741022 -0.576459
O16   O     O_2   0.511954 0.113520 0.564854 -0.465122
O17   O     O_3   0.460474 0.135297 0.731163 -0.566136
O18   O     O_3   0.365980 0.695510 0.380810 -0.429219
O19   O     O_2   0.320035 0.885170 0.459551 -0.399542
O20   O     O_3   0.025351 0.780930 0.688429 -0.672612
O21   O     O_3   0.336217 0.882895 0.290352 -0.460431
O22   O     O_2   0.136040 0.444100 0.280280 -0.404742
O23   O     O_3   0.934510 0.640480 0.335500 -0.398926
O24   O     O_2   0.955576 0.527234 0.182744 -0.448605
P1    P     P_3+3 0.998660 0.747790 0.570900 0.871527
P2    P     P_3+3 0.306970 0.411860 0.294270 0.954961
P3    P     P_3+3 0.876723 0.623063 0.215745 0.999544
P4    P     P_3+3 0.811620 0.252200 0.429030 1.096032
P5    P     P_3+3 0.919879 0.368335 0.782676 0.949804
P6    P     P_3+3 0.416933 0.836407 0.391463 0.981192
P7    P     P_3+3 0.502052 0.593528 0.719848 0.915052
P8    P     P_3+3 0.397264 0.165630 0.620875 0.973726
C39   C     C_2   0.342365 0.769808 0.156933 0.588028
H43   H     H_    0.332787 0.774288 0.084570 -0.099700
O25   O     O_2   0.288130 0.685929 0.183495 -0.522678
C40   C     C_1   0.519768 0.235977 0.133926 0.395554
N1    N     N_1   0.386503 0.194912 0.106249 -0.310428
C41   C     C_2   0.340194 0.777566 0.887161 0.565915
H44   H     H_    0.282496 0.707179 0.913769 -0.044318
O26   O     O_2   0.477352 0.821567 0.923244 -0.521510
C42   C     C_2   0.312597 0.144633 0.363742 0.743401
H45   H     H_    0.291961 0.103587 0.421627 -0.074843
O27   O     O_2   0.423558 0.125737 0.324286 -0.623295
C43   C     C_2   0.931557 0.991643 0.067729 0.299335
H46   H     H_    0.003992 0.050172 0.035178 0.091843
O28   O     O_2   0.801202 0.011696 0.086995 -0.607453
C44   C     C_2   0.891459 0.876957 0.235520 0.464810
H47   H     H_    0.805646 0.932991 0.240036 -0.020775
O29   O     O_2   0.988214 0.868985 0.303648 -0.518203
C45   C     C_2   0.727791 0.779557 0.090315 0.746876
H48   H     H_    0.623752 0.806856 0.113225 -0.148380
O30   O     O_2   0.708180 0.727386 0.016154 -0.556446
C46   C     C_2   0.014198 0.825662 0.999761 0.561129
H49   H     H_    0.079957 0.757712 0.001181 -0.017712
O31   O     O_2   0.946816 0.846430 0.926489 -0.563263

loop_
_geom_bond_atom_site_label_1
_geom_bond_atom_site_label_2
_ccdc_geom_bond_type
Ba1   O5    S    
C43   H46   S    
C23   H40   S    
C29   P2    S    
C4    H18   S    
C2    C39   S    
C34   H2    S    
C33   C34   S    
O17   P8    S    
C33   H41   S    
C42   H45   S    
O5    P4    S    
C12   C45   S    
C8    H27   S    
O19   P6    D    
C9    C17   A    
C24   C25   A    
Ba1   O8    S    
C11   C16   A    
C2    H12   S    
Ba2   O13   S    
O4    P4    D    
C22   C24   A    
C20   H39   S    
C16   C17   A    
O3    P3    S    
C3    C4    S    
C42   O27   D    
C14   C15   A    
C11   H30   S    
C38   H9    S    
C2    O21   S    
C27   C31   A    
C1    H8    S    
C37   C42   S    
Ba1   Ba2   S    
O8    P7    S    
O9    P5    S    
Ba2   O8    S    
C7    H26   S    
C5    H21   S    
C36   H5    S    
C14   P1    S    
C40   N1    T    
C10   C14   A    
C45   H48   S    
C39   O25   D    
C21   C22   A    
Ba2   O6    S    
C27   C28   A    
C34   C40   S    
C7    C8    S    
C36   C41   S    
C46   H49   S    
C7    O17   S    
C20   C26   A    
C10   H33   S    
C4    H17   S    
C34   H1    S    
Ba1   O18   S    
C33   H42   S    
C41   O26   D    
C5    O11   S    
O12   P1    S    
C28   C32   A    
C28   P3    S    
C3    H14   S    
Ba2   O12   S    
C26   P7    S    
C37   C38   S    
C9    H32   S    
Ba1   O12   S    
C27   H34   S    
Ba1   P2    S    
C9    C18   A    
C15   C19   A    
O21   P6    S    
C35   H3    S    
C23   C43   S    
C30   H36   S    
C35   C36   S    
C24   C31   S    
C29   C30   A    
C10   C13   A    
Ba1   O13   S    
C15   C16   A    
C29   C32   A    
Ba2   O5    S    
C22   H35   S    
Ba1   O22   S    
O11   P5    S    
C33   O7    S    
C6    H24   S    
O18   P6    S    
C11   C13   A    
O14   P7    D    
O15   P7    S    
C1    C2    S    
O20   P1    S    
C5    H20   S    
O22   P2    D    
C41   H44   S    
C19   H31   S    
C37   H7    S    
C44   H47   S    
C17   P4    S    
C46   O31   D    
O23   P3    S    
Ba2   P4    S    
C43   O28   D    
C13   P6    S    
C3    H15   S    
C12   O3    S    
C4    H16   S    
C25   H37   S    
C37   O2    S    
O10   P5    D    
C8    H28   S    
Ba1   O1    S    
C38   H11   S    
C21   P5    S    
C30   C31   A    
C35   H4    S    
Ba2   O14   S    
C32   H38   S    
C18   P8    S    
C1    H13   S    
C35   O20   S    
C38   H10   S    
O7    P4    S    
O2    P2    S    
O1    P1    D    
Ba2   O4    S    
C12   C23   S    
O6    P8    S    
Ba2   O9    S    
C23   C46   S    
C7    H25   S    
C36   H6    S    
C5    C6    S    
O13   P2    S    
C6    H23   S    
Ba1   P1    S    
C8    H29   S    
C3    O15   S    
C18   C19   A    
C45   O30   D    
C6    H22   S    
C25   C26   A    
C20   C21   A    
O16   P8    D    
O24   P3    D    
C39   H43   S    
Ba1   O23   S    
C44   O29   D    
C12   C44   S    
C1    H19   S    
