data_mof_unit_45545.cif
_audit_creation_date              2012-12-10T17:37:50-0500
_audit_creation_method            fapswitch 2.2
_symmetry_space_group_name_H-M    P1
_symmetry_Int_Tables_number       1
_space_group_crystal_system       triclinic
_cell_length_a                    12.35968
_cell_length_b                    13.144163
_cell_length_c                    17.335418
_cell_angle_alpha                 106.912896
_cell_angle_beta                  74.339113
_cell_angle_gamma                 117.60211
_cell_volume                      2357.26398276

loop_
_atom_site_label
_atom_site_type_symbol
_atom_type_description
_atom_site_fract_x
_atom_site_fract_y
_atom_site_fract_z
_atom_type_partial_charge
C1    C     C_R   0.144537 0.713535 0.503789 0.772895
C2    C     C_R   0.029259 0.510190 0.263915 -0.027520
C3    C     C_R   0.734404 0.959620 0.396798 0.158070
C4    C     C_R   0.986213 0.502394 0.652144 0.763593
C5    C     C_R   0.771982 0.160502 0.465983 -0.095506
C6    C     C_R   0.180123 0.922526 0.535714 -0.211385
C7    C     C_R   0.257418 0.041072 0.537237 0.211528
C8    C     C_R   0.383733 0.074482 0.507774 -0.215774
C9    C     C_R   0.432492 0.989653 0.471869 0.054025
C10   C     C_R   0.349307 0.871488 0.456326 0.030451
C11   C     C_R   0.561089 0.017997 0.452120 0.030724
C12   C     C_R   0.894388 0.538010 0.798528 -0.196178
C13   C     C_R   0.605205 0.931897 0.403919 0.073438
C14   C     C_R   0.517203 0.823744 0.366100 0.107064
C15   C     C_R   0.390848 0.792869 0.397284 -0.201057
C16   C     C_R   0.855207 0.284985 0.486595 0.822790
C17   C     C_R   0.645571 0.128886 0.483965 -0.242401
C18   C     C_R   0.815984 0.075736 0.424318 -0.220165
C19   C     C_R   0.225582 0.836828 0.497376 -0.130944
C20   C     C_R   0.600806 0.594880 0.659335 -0.307145
C21   C     C_R   0.256055 0.361806 0.380691 0.703532
C22   C     C_R   0.363138 0.340106 0.351065 -0.359794
C23   C     C_R   0.968463 0.563293 0.165334 -0.151416
C24   C     C_R   0.459783 0.392572 0.395405 -0.257761
C25   C     C_R   0.450221 0.462272 0.472895 -0.033912
C26   C     C_R   0.341856 0.485488 0.502604 0.168569
C27   C     C_R   0.543529 0.507323 0.523313 -0.013065
C28   C     C_R   0.014915 0.499525 0.348085 0.788650
C29   C     C_R   0.512280 0.545055 0.607619 0.145286
C30   C     C_R   0.395298 0.541560 0.638893 -0.315023
C31   C     C_R   0.330415 0.547021 0.586590 0.181678
C32   C     C_R   0.665299 0.514092 0.494993 0.008908
C33   C     C_R   0.720406 0.606214 0.627284 0.076131
C34   C     C_R   0.955406 0.551447 0.244580 -0.207329
C35   C     C_R   0.978223 0.502707 0.737834 -0.024177
C36   C     C_R   0.055099 0.467178 0.759481 -0.221547
C37   C     C_R   0.050326 0.469308 0.840703 -0.154717
C38   C     C_R   0.969097 0.507885 0.901644 0.195245
C39   C     C_R   0.889550 0.539978 0.880060 -0.174754
C40   C     C_3   0.554749 0.746337 0.289677 -0.393923
C41   C     C_3   0.456512 0.671208 0.233927 -0.869217
C42   C     C_3   0.789261 0.869808 0.371412 -0.426816
C43   C     C_3   0.737345 0.787287 0.431805 -0.819775
C44   C     C_3   0.205964 0.132074 0.573166 -0.427095
C45   C     C_R   0.118950 0.484178 0.203141 -0.204257
C46   C     C_3   0.128245 0.129163 0.516738 -0.798894
C47   C     C_3   0.172281 0.251007 0.260038 -0.412457
C48   C     C_3   0.319811 0.664187 0.615017 -0.317200
C49   C     C_3   0.429847 0.758607 0.573982 -0.818244
C50   C     C_R   0.131482 0.495356 0.123402 -0.175709
C51   C     C_R   0.054215 0.532111 0.103745 0.196263
C52   C     C_2   0.963317 0.512517 0.987995 -0.232232
C53   C     C_2   0.062655 0.534357 0.018268 -0.235233
Cu1   Cu    Cu3+1 0.900140 0.524980 0.518800 0.927038
Cu2   Cu    Cu3+1 0.099860 0.475020 0.481200 0.961422
H1    H     H_    0.118559 0.436927 0.713712 0.158303
H2    H     H_    0.374402 0.571126 0.704251 0.140871
H3    H     H_    0.578277 0.626823 0.723955 0.131729
H4    H     H_    0.693766 0.479918 0.432361 0.120026
H5    H     H_    0.537527 0.369907 0.370383 0.158848
H6    H     H_    0.372615 0.280265 0.294528 0.153124
H7    H     H_    0.178525 0.454460 0.216951 0.157676
H8    H     H_    0.151134 0.548690 0.978852 0.142247
H9    H     H_    0.825162 0.568338 0.926459 0.120039
H10   H     H_    0.911537 0.597173 0.152736 0.120762
H11   H     H_    0.833443 0.564938 0.783210 0.142203
H12   H     H_    0.199335 0.472585 0.076666 0.121381
H13   H     H_    0.874679 0.497813 0.027238 0.144110
H14   H     H_    0.108915 0.439025 0.855270 0.122544
H15   H     H_    0.382631 0.596059 0.261018 0.247306
H16   H     H_    0.415995 0.724417 0.222685 0.263899
H17   H     H_    0.499676 0.634828 0.174271 0.237609
H18   H     H_    0.634687 0.803973 0.251497 0.201837
H19   H     H_    0.580537 0.686507 0.306872 0.216184
H20   H     H_    0.755703 0.838161 0.494035 0.254926
H21   H     H_    0.636468 0.734758 0.433944 0.247346
H22   H     H_    0.782921 0.726303 0.412927 0.240116
H23   H     H_    0.914529 0.099969 0.414848 0.172778
H24   H     H_    0.780225 0.820813 0.308281 0.183378
H25   H     H_    0.891039 0.914128 0.370456 0.201737
H26   H     H_    0.184876 0.144529 0.455996 0.257284
H27   H     H_    0.047002 0.043325 0.508961 0.243413
H28   H     H_    0.094580 0.199041 0.543443 0.249067
H29   H     H_    0.148422 0.116334 0.633649 0.195521
H30   H     H_    0.281851 0.221412 0.583182 0.204869
H31   H     H_    0.182932 0.169589 0.254379 0.167252
H32   H     H_    0.252975 0.313362 0.225086 0.152269
H33   H     H_    0.089954 0.225727 0.232490 0.199645
H34   H     H_    0.614478 0.192950 0.524525 0.159601
H35   H     H_    0.516150 0.777592 0.594547 0.245976
H36   H     H_    0.440625 0.728251 0.507106 0.264330
H37   H     H_    0.416084 0.840400 0.590236 0.240972
H38   H     H_    0.232212 0.663001 0.613230 0.226920
H39   H     H_    0.321147 0.696493 0.681875 0.162307
H40   H     H_    0.084318 0.897565 0.564432 0.158177
H41   H     H_    0.441117 0.166806 0.510424 0.131831
H42   H     H_    0.323641 0.708204 0.373309 0.187202
H43   H     H_    0.787969 0.643157 0.667719 0.122646
H44   H     H_    0.887721 0.575344 0.290687 0.149623
N1    N     N_R   0.749710 0.562810 0.547300 -0.182227
N2    N     N_R   0.249640 0.437820 0.453210 -0.243089
O1    O     O_R   0.025490 0.682370 0.523640 -0.578633
O2    O     O_R   0.194150 0.640180 0.491890 -0.590050
O3    O     O_R   0.905900 0.523560 0.631310 -0.592742
O4    O     O_R   0.074570 0.481370 0.599560 -0.602937
O5    O     O_R   0.805850 0.359820 0.508110 -0.581576
O6    O     O_R   0.974510 0.317630 0.476360 -0.539195
O7    O     O_R   0.925430 0.518630 0.400440 -0.600851
O8    O     O_R   0.094100 0.476440 0.368690 -0.545268
O9    O     O_3   0.150938 0.302636 0.342944 -0.547989

loop_
_geom_bond_atom_site_label_1
_geom_bond_atom_site_label_2
_ccdc_geom_bond_type
C3    C42   S    
C42   H25   S    
C37   H14   S    
C27   C29   A    
C11   C13   A    
C35   C36   A    
C8    H41   S    
C49   H35   S    
C21   O9    S    
C7    C8    A    
C39   H9    S    
C29   C30   A    
C48   H39   S    
Cu2   O4    S    
Cu1   O3    S    
C36   C37   A    
C15   H42   S    
C10   C15   A    
C26   N2    A    
C38   C39   A    
C38   C52   S    
C30   H2    S    
Cu2   O2    S    
C45   H7    S    
C40   H18   S    
C3    C18   A    
C33   H43   S    
C5    C16   S    
C16   O6    A    
C46   H27   S    
C11   C17   A    
C8    C9    A    
C9    C10   A    
C1    O2    A    
C3    C13   A    
C16   O5    A    
C41   H16   S    
C21   N2    A    
C2    C34   A    
C4    C35   S    
C42   H24   S    
C21   C22   A    
Cu2   O8    S    
Cu1   N1    S    
C49   H36   S    
C44   C46   S    
C50   C51   A    
C20   C29   A    
C2    C45   A    
C43   H20   S    
C1    C19   S    
C48   H38   S    
Cu1   O5    S    
C47   H31   S    
C17   H34   S    
C24   C25   A    
C40   C41   S    
C5    C18   A    
C25   C26   A    
C12   H11   S    
C32   N1    A    
Cu2   O6    S    
C51   C53   S    
C47   H32   S    
C37   C38   A    
C36   H1    S    
C46   H26   S    
C23   C51   A    
C10   C19   A    
C24   H5    S    
C23   C34   A    
C34   H44   S    
C7    C44   S    
C12   C35   A    
C9    C11   A    
C41   H17   S    
C20   C33   A    
C18   H23   S    
C31   C48   S    
C22   C24   A    
C25   C27   A    
C42   C43   S    
C49   H37   S    
C20   H3    S    
C44   H30   S    
C52   C53   D    
C50   H12   S    
C43   H21   S    
Cu1   Cu2   S    
C48   C49   S    
C27   C32   A    
Cu1   O1    S    
C44   H29   S    
C52   H13   S    
C6    C7    A    
C28   O8    A    
C43   H22   S    
C47   O9    S    
C4    O4    A    
Cu2   N2    S    
Cu1   O7    S    
C33   N1    A    
C47   H33   S    
C23   H10   S    
C12   C39   A    
C22   H6    S    
C53   H8    S    
C30   C31   A    
C45   C50   A    
C28   O7    A    
C4    O3    A    
C40   H19   S    
C1    O1    A    
C14   C40   S    
C46   H28   S    
C26   C31   A    
C5    C17   A    
C6    H40   S    
C14   C15   A    
C2    C28   S    
C32   H4    S    
C13   C14   A    
C6    C19   A    
C41   H15   S    
