data_mof_unit_68148.cif
_audit_creation_date              2012-12-11T16:11:49-0500
_audit_creation_method            fapswitch 2.2
_symmetry_space_group_name_H-M    P1
_symmetry_Int_Tables_number       1
_space_group_crystal_system       triclinic
_cell_length_a                    6.978098
_cell_length_b                    14.481146
_cell_length_c                    15.775018
_cell_angle_alpha                 90.031576
_cell_angle_beta                  90.256181
_cell_angle_gamma                 90.383778
_cell_volume                      1594.02710888

loop_
_atom_site_label
_atom_site_type_symbol
_atom_type_description
_atom_site_fract_x
_atom_site_fract_y
_atom_site_fract_z
_atom_type_partial_charge
O1    O     O_R   0.638960 0.835150 0.161940 -0.521340
O2    O     O_R   0.361040 0.164850 0.838060 -0.518386
O3    O     O_R   0.309170 0.846340 0.337470 -0.532029
O4    O     O_R   0.690830 0.153660 0.662530 -0.548033
O5    O     O_R   0.138810 0.664830 0.338070 -0.531219
O6    O     O_R   0.861190 0.335170 0.661930 -0.528162
C1    C     C_R   0.478618 0.866585 0.367845 0.726989
C2    C     C_R   0.520831 0.130270 0.634617 0.705917
O7    O     O_R   0.309250 0.846350 0.162570 -0.546985
O8    O     O_R   0.690750 0.153650 0.837430 -0.541650
O9    O     O_R   0.138880 0.664840 0.161920 -0.535262
O10   O     O_R   0.861120 0.335160 0.838080 -0.523583
C3    C     C_R   0.478725 0.866469 0.132449 0.841629
C4    C     C_R   0.521469 0.135005 0.868641 0.807559
O11   O     O_R   0.638880 0.835150 0.338090 -0.538373
O12   O     O_R   0.361120 0.164850 0.661910 -0.540114
O13   O     O_3   0.472380 0.690440 0.250000 -0.382665
O14   O     O_3   0.527620 0.309560 0.750000 -0.368514
V1    V     V_3+5 0.197550 0.761040 0.250010 1.539603
V2    V     V_3+5 0.802450 0.238960 0.749990 1.510603
O15   O     O_R   0.809160 0.653640 0.162540 -0.529412
O16   O     O_R   0.190840 0.346360 0.837460 -0.534308
C5    C     C_R   0.976776 0.633418 0.132656 0.799314
C6    C     C_R   0.022883 0.368432 0.866182 0.784147
O17   O     O_R   0.809090 0.653640 0.337440 -0.550839
O18   O     O_R   0.190910 0.346360 0.662560 -0.542003
C7    C     C_R   0.978598 0.629979 0.364801 0.736099
C8    C     C_R   0.021934 0.367083 0.632541 0.709948
V3    V     V_3+5 0.697540 0.738950 0.250000 1.546419
V4    V     V_3+5 0.302460 0.261050 0.750000 1.523213
O19   O     O_3   0.972580 0.809550 0.250010 -0.374207
O20   O     O_3   0.027420 0.190450 0.749990 -0.376212
C9    C     C_3   0.115399 0.567321 0.513937 0.448109
C10   C     C_3   0.888320 0.424755 0.478929 0.431783
C11   C     C_3   0.943460 0.537455 0.569984 -0.346469
C12   C     C_3   0.057735 0.455912 0.422027 -0.415439
H1    H     H_    0.891529 0.570455 0.628978 0.142661
H2    H     H_    0.107014 0.422995 0.362505 0.159044
C13   C     C_3   0.009816 0.435264 0.560516 -0.250292
C14   C     C_3   0.992037 0.557712 0.432936 -0.211815
C15   C     C_3   0.178696 0.466314 0.504118 0.300923
C16   C     C_3   0.823860 0.525298 0.487829 0.364260
C17   C     C_3   0.874112 0.434094 0.011344 0.299048
C18   C     C_3   0.124664 0.570608 0.986546 0.283172
C19   C     C_3   0.036237 0.461933 0.073017 0.123224
C20   C     C_3   0.963555 0.542450 0.924569 0.157661
C21   C     C_3   0.984580 0.564875 0.061931 -0.250721
C22   C     C_3   0.014506 0.439104 0.935717 -0.269248
C23   C     C_3   0.823292 0.536690 0.999415 0.315829
C24   C     C_3   0.176570 0.468026 0.998154 0.226407
C25   C     C_3   0.565185 0.034956 0.430654 -0.215641
C26   C     C_3   0.433285 0.957605 0.575571 -0.275854
C27   C     C_3   0.390226 0.069932 0.482327 -0.180424
C28   C     C_3   0.607569 0.922077 0.523402 -0.220090
H3    H     H_    0.298407 0.129861 0.466832 0.129829
H4    H     H_    0.699805 0.862334 0.539235 0.138351
H5    H     H_    0.619243 0.064552 0.370558 0.151063
H6    H     H_    0.375763 0.927155 0.634832 0.147310
C29   C     C_3   0.506995 0.058307 0.565500 -0.130327
C30   C     C_3   0.491492 0.934559 0.440109 -0.111761
C31   C     C_3   0.677046 0.022799 0.514340 0.428383
C32   C     C_3   0.321427 0.969101 0.491717 0.457598
C33   C     C_3   0.612641 0.931323 0.979116 0.357600
C34   C     C_3   0.388261 0.073021 0.023619 0.323155
C35   C     C_3   0.438204 0.966583 0.928648 0.219588
C36   C     C_3   0.560870 0.037065 0.075537 0.148793
C37   C     C_3   0.506864 0.067430 0.940438 -0.329826
C38   C     C_3   0.493397 0.936096 0.062367 -0.289425
C39   C     C_3   0.679681 0.032160 0.993269 0.179298
C40   C     C_3   0.321629 0.972408 0.010804 0.279475
O21   O     O_3   0.366812 0.931062 0.852452 -0.649960
H7    H     H_    0.322800 0.867755 0.866236 0.293311
O22   O     O_3   0.628883 0.070928 0.153217 -0.645236
H8    H     H_    0.709993 0.125243 0.139548 0.297129
O23   O     O_3   0.726695 0.855647 0.954478 -0.546900
C41   C     C_3   0.838548 0.878209 0.882322 0.234341
H9    H     H_    0.989081 0.860046 0.896611 0.188818
H10   H     H_    0.837398 0.952504 0.864086 0.150583
C42   C     C_3   0.775711 0.820966 0.805900 -0.382868
H11   H     H_    0.799747 0.746946 0.819708 0.256924
H12   H     H_    0.621542 0.831548 0.793257 0.231419
C43   C     C_3   0.886979 0.848405 0.726671 -0.847383
H13   H     H_    0.849187 0.919775 0.707371 0.235216
H14   H     H_    0.849951 0.800561 0.673987 0.230798
H15   H     H_    0.043479 0.845191 0.738961 0.247703
O24   O     O_3   0.252325 0.140857 0.044277 -0.555902
C44   C     C_3   0.342856 0.220508 0.076943 0.125760
H16   H     H_    0.272537 0.280463 0.047189 0.194636
H17   H     H_    0.498032 0.225982 0.061066 0.121447
C45   C     C_3   0.309893 0.226189 0.172660 -0.288810
H18   H     H_    0.158583 0.245455 0.184271 0.227041
H19   H     H_    0.334072 0.157807 0.202467 0.225309
C46   C     C_3   0.442322 0.297005 0.214645 -0.816372
H20   H     H_    0.593793 0.275977 0.206987 0.226917
H21   H     H_    0.409069 0.301759 0.283282 0.231431
H22   H     H_    0.423990 0.366076 0.185816 0.237500
O25   O     O_3   0.866402 0.066380 0.985396 -0.593815
H23   H     H_    0.858058 0.133485 0.997136 0.317654
O26   O     O_3   0.134591 0.939628 0.020393 -0.599306
H24   H     H_    0.093570 0.960712 0.077245 0.340128
O27   O     O_3   0.235588 0.644983 0.526276 -0.569609
C47   C     C_3   0.349289 0.634210 0.599781 0.156423
H25   H     H_    0.495576 0.660185 0.585306 0.174449
H26   H     H_    0.365162 0.561388 0.621385 0.166293
C48   C     C_3   0.271290 0.692787 0.671599 -0.403103
H27   H     H_    0.285539 0.766865 0.654556 0.202891
H28   H     H_    0.117699 0.676767 0.682279 0.214058
C49   C     C_3   0.382589 0.673898 0.752644 -0.826385
H29   H     H_    0.353922 0.602338 0.774663 0.224261
H30   H     H_    0.338012 0.723643 0.801900 0.240452
H31   H     H_    0.538550 0.681248 0.741317 0.243656
O28   O     O_3   0.758890 0.352048 0.461446 -0.564050
C50   C     C_3   0.859707 0.268913 0.448225 0.103912
H32   H     H_    0.787838 0.214777 0.486241 0.171017
H33   H     H_    0.012428 0.270662 0.469745 0.088504
C51   C     C_3   0.848118 0.241633 0.354704 -0.337635
H34   H     H_    0.698985 0.220023 0.339938 0.197882
H35   H     H_    0.884852 0.301835 0.314142 0.216114
C52   C     C_3   0.983807 0.162649 0.333888 -0.797296
H36   H     H_    0.134721 0.186246 0.340688 0.218846
H37   H     H_    0.959247 0.139547 0.267611 0.237368
H38   H     H_    0.959461 0.102931 0.376428 0.287036
O29   O     O_3   0.364634 0.432715 0.513603 -0.606381
H39   H     H_    0.357296 0.366644 0.497341 0.300837
O30   O     O_3   0.636822 0.556161 0.476226 -0.615085
H40   H     H_    0.596605 0.533086 0.419652 0.326632
O31   O     O_3   0.069081 0.418217 0.150592 -0.656370
H41   H     H_    0.148278 0.462007 0.184243 0.277863
O32   O     O_3   0.923109 0.585742 0.847483 -0.648275
H42   H     H_    0.022169 0.563900 0.807585 0.276087
O33   O     O_3   0.744624 0.361736 0.024625 -0.634105
H43   H     H_    0.709573 0.365869 0.085223 0.298497
O34   O     O_3   0.252268 0.644130 0.975685 -0.605502
H44   H     H_    0.307378 0.634615 0.919000 0.302775
O35   O     O_3   0.640658 0.574812 0.998614 -0.601224
H45   H     H_    0.590730 0.561920 0.940922 0.336388
O36   O     O_3   0.362454 0.433719 0.997336 -0.622846
H46   H     H_    0.415474 0.449242 0.053923 0.322315
O37   O     O_3   0.865437 0.052554 0.527625 -0.636640
H47   H     H_    0.902491 0.028537 0.584144 0.302958
O38   O     O_3   0.134002 0.938075 0.477958 -0.620357
H48   H     H_    0.130234 0.873687 0.499267 0.286458

loop_
_geom_bond_atom_site_label_1
_geom_bond_atom_site_label_2
_ccdc_geom_bond_type
C36   C38   S    
C44   H16   S    
C33   C35   S    
O27   C47   S    
C10   O28   S    
O22   H8    S    
C48   H27   S    
C25   C31   S    
C41   C42   S    
O4    C2    A    
V1    O19   S    
C20   O32   S    
O25   H23   S    
C27   C29   S    
C24   O36   S    
O29   H39   S    
C21   C23   S    
C28   C30   S    
C51   H34   S    
C48   H28   S    
C20   C23   S    
O9    V1    S    
C46   H20   S    
C9    O27   S    
C11   H1    S    
C41   H10   S    
O32   H42   S    
O3    C1    A    
C2    C29   S    
C36   C39   S    
O12   V4    S    
C35   C40   S    
O13   V3    S    
C49   H29   S    
C47   C48   S    
C30   C32   S    
C19   C21   S    
C11   C16   S    
O7    C3    A    
C16   O30   S    
O13   V1    S    
O5    C7    A    
O7    V1    S    
O6    C8    A    
C33   C39   S    
C18   C20   S    
C35   C37   S    
C10   C16   S    
C4    C37   S    
O3    V1    S    
C25   H5    S    
C34   C40   S    
O35   H45   S    
C17   C22   S    
C10   C12   S    
C18   C21   S    
C50   C51   S    
C22   C24   S    
C23   O35   S    
C46   H21   S    
C12   C15   S    
C34   O24   S    
O28   C50   S    
C26   C28   S    
O11   V3    S    
C20   C22   S    
C27   H3    S    
O17   V3    S    
C48   C49   S    
C28   H4    S    
C29   C31   S    
C9    C14   S    
C5    C21   S    
C10   C13   S    
C6    C22   S    
C34   C37   S    
C12   C14   S    
C41   H9    S    
C13   C15   S    
O8    C4    A    
O8    V2    S    
C42   H12   S    
O24   C44   S    
C17   C23   S    
C1    O11   A    
C8    C13   S    
C35   O21   S    
C36   O22   S    
O15   V3    S    
C37   C39   S    
C34   C36   S    
C11   C13   S    
O23   C41   S    
C26   C29   S    
C27   C32   S    
C45   H19   S    
O26   H24   S    
C7    C14   S    
C52   H36   S    
O10   V2    S    
O1    V3    S    
C47   H26   S    
C17   C19   S    
C52   H37   S    
C26   H6    S    
C17   O33   S    
C51   H35   S    
O14   V4    S    
C38   C40   S    
O18   V4    S    
C46   H22   S    
C43   H14   S    
O15   C5    A    
O34   H44   S    
O16   C6    A    
O1    C3    A    
C32   O38   S    
O33   H43   S    
C1    C30   S    
C40   O26   S    
C45   C46   S    
C50   H32   S    
V2    O20   S    
C52   H38   S    
C18   C24   S    
C18   O34   S    
C33   C38   S    
O16   V4    S    
C31   O37   S    
C14   C16   S    
C42   C43   S    
O37   H47   S    
C51   C52   S    
O5    V1    S    
C28   C31   S    
O17   C7    A    
C43   H15   S    
O6    V2    S    
O36   H46   S    
O10   C6    A    
O18   C8    A    
C49   H31   S    
O2    V4    S    
C9    C15   S    
C15   O29   S    
C12   H2    S    
O21   H7    S    
V3    O19   S    
C26   C32   S    
O38   H48   S    
V4    O20   S    
C45   H18   S    
O30   H40   S    
C33   O23   S    
C19   C24   S    
C19   O31   S    
O9    C5    A    
C9    C11   S    
C49   H30   S    
O14   V2    S    
C47   H25   S    
O2    C4    A    
C42   H11   S    
O4    V2    S    
C2    O12   A    
C43   H13   S    
C44   C45   S    
C44   H17   S    
C25   C30   S    
C25   C27   S    
O31   H41   S    
C50   H33   S    
C3    C38   S    
C39   O25   S    
