data_mof_unit_21026.cif
_audit_creation_date              2013-03-05T16:00:35-0500
_audit_creation_method            fapswitch 2.2
_symmetry_space_group_name_H-M    P1
_symmetry_Int_Tables_number       1
_space_group_crystal_system       triclinic
_cell_length_a                    18.381691
_cell_length_b                    18.383424
_cell_length_c                    34.194728
_cell_angle_alpha                 89.800585
_cell_angle_beta                  89.893316
_cell_angle_gamma                 90.35806
_cell_volume                      11554.7123195

loop_
_atom_site_label
_atom_site_type_symbol
_atom_site_description
_atom_site_fract_x
_atom_site_fract_y
_atom_site_fract_z
_atom_type_partial_charge
Zn1   Zn    Zn3+2 0.413190 1.000000 0.217350 0.969381
Zn2   Zn    Zn3+2 0.586810 1.000000 0.782650 0.974646
Zn3   Zn    Zn3+2 1.000000 0.413190 0.217350 0.987372
Zn4   Zn    Zn3+2 1.000000 0.586810 0.782650 0.964952
Zn5   Zn    Zn3+2 0.586810 1.000000 0.217350 0.959385
Zn6   Zn    Zn3+2 0.413190 1.000000 0.782650 0.973285
Zn7   Zn    Zn3+2 1.000000 0.586810 0.217350 0.955862
Zn8   Zn    Zn3+2 1.000000 0.413190 0.782650 0.956086
Zn9   Zn    Zn3+2 0.913190 0.500000 0.717350 0.971009
Zn10  Zn    Zn3+2 0.086810 0.500000 0.282650 0.965119
Zn11  Zn    Zn3+2 0.500000 0.913190 0.717350 0.980918
Zn12  Zn    Zn3+2 0.500000 0.086810 0.282650 0.975803
Zn13  Zn    Zn3+2 0.086810 0.500000 0.717350 0.956602
Zn14  Zn    Zn3+2 0.913190 0.500000 0.282650 0.955488
Zn15  Zn    Zn3+2 0.500000 0.086810 0.717350 0.961961
Zn16  Zn    Zn3+2 0.500000 0.913190 0.282650 0.972002
C1    C     C_R   0.998677 0.565315 0.417786 -0.212897
C2    C     C_R   0.999565 0.434914 0.582212 -0.223354
C3    C     C_R   0.434753 0.994518 0.418042 -0.213916
C4    C     C_R   0.566384 0.006212 0.581808 -0.208369
C5    C     C_R   0.000088 0.433688 0.418294 -0.212281
C6    C     C_R   0.000849 0.566679 0.581717 -0.204765
C7    C     C_R   0.566177 0.004072 0.417895 -0.200000
C8    C     C_R   0.435085 0.993892 0.582058 -0.209035
C9    C     C_R   0.467979 0.057485 0.917920 -0.212575
C10   C     C_R   0.533311 0.944092 0.082038 -0.203045
C11   C     C_R   0.935031 0.513604 0.918229 -0.206376
C12   C     C_R   0.065041 0.486215 0.081822 -0.200558
C13   C     C_R   0.531540 0.942397 0.918304 -0.205988
C14   C     C_R   0.469925 0.059337 0.081847 -0.204986
C15   C     C_R   0.063349 0.483839 0.917960 -0.220695
C16   C     C_R   0.936911 0.516153 0.082147 -0.207102
C17   C     C_R   0.999764 0.499430 0.398008 -0.026185
C18   C     C_R   0.000174 0.500850 0.601992 -0.023360
C19   C     C_R   0.500444 0.999491 0.397953 -0.022792
C20   C     C_R   0.500736 0.000221 0.601964 -0.022921
C21   C     C_R   0.499636 0.999702 0.898055 -0.015105
C22   C     C_R   0.500613 0.001102 0.101982 -0.025066
C23   C     C_R   0.999266 0.499232 0.898040 -0.031087
C24   C     C_R   0.000889 0.500497 0.102008 -0.032406
O1    O     O_3   0.500000 0.000000 0.250000 -0.517516
O2    O     O_3   0.500000 0.000000 0.750000 -0.520162
O3    O     O_3   0.000000 0.500000 0.250000 -0.513560
O4    O     O_3   0.000000 0.500000 0.750000 -0.510661
O5    O     O_R   0.500000 0.939270 0.337550 -0.648507
O6    O     O_R   0.500000 0.060730 0.662450 -0.655473
O7    O     O_R   0.060730 0.500000 0.337550 -0.644512
O8    O     O_R   0.939270 0.500000 0.662450 -0.646386
O9    O     O_R   0.500000 0.060730 0.337550 -0.631813
O10   O     O_R   0.500000 0.939270 0.662450 -0.628837
O11   O     O_R   0.939270 0.500000 0.337550 -0.657666
O12   O     O_R   0.060730 0.500000 0.662450 -0.653466
O13   O     O_R   1.000000 0.439270 0.837550 -0.659583
O14   O     O_R   0.000000 0.560730 0.162450 -0.640740
O15   O     O_R   0.560730 1.000000 0.837550 -0.637001
O16   O     O_R   0.439270 0.000000 0.162450 -0.640861
O17   O     O_R   1.000000 0.560730 0.837550 -0.649900
O18   O     O_R   1.000000 0.439270 0.162450 -0.631406
O19   O     O_R   0.439270 1.000000 0.837550 -0.638270
O20   O     O_R   0.560730 0.000000 0.162450 -0.647141
O21   O     O_R   0.414490 0.146150 0.273020 -0.608852
O22   O     O_R   0.585510 0.853850 0.726980 -0.603502
O23   O     O_R   0.853850 0.414490 0.273020 -0.608093
O24   O     O_R   0.146150 0.585510 0.726980 -0.612975
O25   O     O_R   0.585510 0.853850 0.273020 -0.605253
O26   O     O_R   0.414490 0.146150 0.726980 -0.603321
O27   O     O_R   0.146150 0.585510 0.273020 -0.603865
O28   O     O_R   0.853850 0.414490 0.726980 -0.602254
O29   O     O_R   0.414490 0.853850 0.726980 -0.600971
O30   O     O_R   0.585510 0.146150 0.273020 -0.605420
O31   O     O_R   0.853850 0.585510 0.726980 -0.604004
O32   O     O_R   0.146150 0.414490 0.273020 -0.606174
O33   O     O_R   0.585510 0.146150 0.726980 -0.602114
O34   O     O_R   0.414490 0.853850 0.273020 -0.598215
O35   O     O_R   0.146150 0.414490 0.726980 -0.612118
O36   O     O_R   0.853850 0.585510 0.273020 -0.616234
O37   O     O_R   0.914490 0.646150 0.773020 -0.609970
O38   O     O_R   0.085510 0.353850 0.226980 -0.606732
O39   O     O_R   0.353850 0.914490 0.773020 -0.606229
O40   O     O_R   0.646150 0.085510 0.226980 -0.612046
O41   O     O_R   0.085510 0.353850 0.773020 -0.612779
O42   O     O_R   0.914490 0.646150 0.226980 -0.603552
O43   O     O_R   0.646150 0.085510 0.773020 -0.604765
O44   O     O_R   0.353850 0.914490 0.226980 -0.607924
O45   O     O_R   0.914490 0.353850 0.226980 -0.601537
O46   O     O_R   0.085510 0.646150 0.773020 -0.601113
O47   O     O_R   0.353850 0.085510 0.226980 -0.607149
O48   O     O_R   0.646150 0.914490 0.773020 -0.604741
O49   O     O_R   0.085510 0.646150 0.226980 -0.627198
O50   O     O_R   0.914490 0.353850 0.773020 -0.605388
O51   O     O_R   0.646150 0.914490 0.226980 -0.607427
O52   O     O_R   0.353850 0.085510 0.773020 -0.605934
C25   C     C_R   0.003538 0.366526 0.479890 0.367840
C26   C     C_R   0.995586 0.633802 0.520090 0.369132
C27   C     C_R   0.633337 0.008329 0.479139 0.327058
C28   C     C_R   0.367251 0.988376 0.520661 0.376417
C29   C     C_R   0.990638 0.633359 0.479000 0.353628
C30   C     C_R   0.006696 0.366850 0.520993 0.354929
C31   C     C_R   0.367126 0.990113 0.479623 0.375806
C32   C     C_R   0.633374 0.013129 0.520275 0.321343
C33   C     C_R   0.560144 0.882432 0.979990 0.383124
C34   C     C_R   0.443487 0.121495 0.020238 0.368163
C35   C     C_R   0.128932 0.467519 0.979251 0.365461
C36   C     C_R   0.871528 0.536059 0.020848 0.353264
C37   C     C_R   0.445036 0.122249 0.979185 0.369190
C38   C     C_R   0.564647 0.884756 0.020774 0.404687
C39   C     C_R   0.869966 0.530606 0.979784 0.360313
C40   C     C_R   0.130404 0.472315 0.020239 0.358228
C41   C     C_R   0.500289 0.999845 0.355756 0.757583
C42   C     C_R   0.500542 0.000083 0.644217 0.763253
C43   C     C_R   0.999946 0.499496 0.355775 0.768620
C44   C     C_R   0.000049 0.500673 0.644225 0.770091
C45   C     C_R   0.999502 0.499813 0.855787 0.772065
C46   C     C_R   0.000622 0.500100 0.144232 0.767358
C47   C     C_R   0.499879 0.999603 0.855793 0.752378
C48   C     C_R   0.500093 0.000412 0.144220 0.769681
C49   C     C_R   0.359560 0.139837 0.250148 0.853596
C50   C     C_R   0.640309 0.860200 0.749917 0.846259
C51   C     C_R   0.859930 0.359995 0.250061 0.878016
C52   C     C_R   0.140009 0.639945 0.750034 0.867152
C53   C     C_R   0.641865 0.861486 0.251182 0.870627
C54   C     C_R   0.359787 0.140020 0.749944 0.851987
C55   C     C_R   0.139668 0.640378 0.250124 0.859999
C56   C     C_R   0.860240 0.359778 0.749962 0.864478
C57   C     C_R   0.360034 0.859866 0.750069 0.855127
C58   C     C_R   0.640117 0.139851 0.250043 0.856087
C59   C     C_R   0.860138 0.640454 0.749793 0.859684
C60   C     C_R   0.140509 0.360373 0.249818 0.849410
C61   C     C_R   0.639540 0.140643 0.750230 0.853728
C62   C     C_R   0.360093 0.859822 0.250056 0.859776
C63   C     C_R   0.140212 0.359791 0.749994 0.874399
C64   C     C_R   0.860881 0.641409 0.250927 0.890457
C65   C     C_R   0.270601 0.783624 0.214504 0.354259
C66   C     C_R   0.732980 0.213195 0.785297 0.358462
C67   C     C_R   0.207362 0.261287 0.216310 0.356650
C68   C     C_R   0.797443 0.744179 0.781998 0.333354
C69   C     C_R   0.726241 0.220090 0.214277 0.355309
C70   C     C_R   0.270778 0.782487 0.785726 0.355352
C71   C     C_R   0.817781 0.764079 0.230363 0.300820
C72   C     C_R   0.199844 0.252771 0.781143 0.335162
C73   C     C_R   0.255382 0.201543 0.781858 0.354590
C74   C     C_R   0.762516 0.815753 0.228646 0.311418
C75   C     C_R   0.216878 0.728657 0.785686 0.351751
C76   C     C_R   0.780431 0.273655 0.214290 0.352652
C77   C     C_R   0.741960 0.795567 0.782591 0.357789
C78   C     C_R   0.257631 0.204641 0.217198 0.335687
C79   C     C_R   0.786948 0.266857 0.785278 0.352053
C80   C     C_R   0.215557 0.731057 0.214676 0.335181
C81   C     C_R   0.766628 0.287801 0.715264 0.356510
C82   C     C_R   0.229297 0.716406 0.285599 0.360743
C83   C     C_R   0.709576 0.763773 0.715351 0.355740
C84   C     C_R   0.295601 0.241988 0.282795 0.352301
C85   C     C_R   0.228881 0.717350 0.714517 0.358355
C86   C     C_R   0.772252 0.281033 0.285700 0.351782
C87   C     C_R   0.296822 0.243181 0.717338 0.347047
C88   C     C_R   0.703587 0.757575 0.284791 0.344458
C89   C     C_R   0.753815 0.700835 0.283271 0.334495
C90   C     C_R   0.246802 0.299889 0.718621 0.335499
C91   C     C_R   0.719664 0.225925 0.285821 0.362982
C92   C     C_R   0.283891 0.769964 0.714733 0.357939
C93   C     C_R   0.241873 0.295323 0.283079 0.341092
C94   C     C_R   0.760097 0.707309 0.716105 0.340087
C95   C     C_R   0.284977 0.768340 0.285332 0.351134
C96   C     C_R   0.709451 0.237739 0.715935 0.337417
C97   C     C_R   0.000789 0.432940 0.459192 -0.005564
C98   C     C_R   0.999088 0.567395 0.540803 -0.005571
C99   C     C_R   0.566941 0.005250 0.458781 0.009288
C100  C     C_R   0.433604 0.995142 0.541175 -0.026206
C101  C     C_R   0.995913 0.566646 0.458686 -0.019680
C102  C     C_R   0.002457 0.433547 0.541338 -0.020217
C103  C     C_R   0.433512 0.995960 0.458957 -0.027168
C104  C     C_R   0.567097 0.007385 0.540909 0.014133
C105  C     C_R   0.531900 0.942065 0.959146 -0.038876
C106  C     C_R   0.472057 0.061632 0.040947 -0.022184
C107  C     C_R   0.064611 0.484418 0.958818 -0.017662
C108  C     C_R   0.936147 0.519235 0.041258 -0.016974
C109  C     C_R   0.472098 0.061388 0.958716 -0.027346
C110  C     C_R   0.534364 0.943699 0.041210 -0.048130
C111  C     C_R   0.934620 0.515450 0.959140 -0.001833
C112  C     C_R   0.065878 0.487196 0.040923 -0.006247
H1    H     H_    0.999511 0.615225 0.400894 0.158215
H2    H     H_    0.997068 0.385022 0.599105 0.151821
H3    H     H_    0.384965 0.989967 0.401370 0.152913
H4    H     H_    0.616642 0.009150 0.598269 0.160886
H5    H     H_    0.001301 0.383523 0.401887 0.156575
H6    H     H_    0.000883 0.616919 0.598133 0.157422
H7    H     H_    0.616396 0.006398 0.401271 0.162297
H8    H     H_    0.385653 0.988429 0.598925 0.135984
H9    H     H_    0.441314 0.099483 0.901120 0.151095
H10   H     H_    0.556414 0.899518 0.098629 0.156566
H11   H     H_    0.885842 0.523915 0.901770 0.156546
H12   H     H_    0.113919 0.474360 0.098252 0.159500
H13   H     H_    0.554458 0.897626 0.901977 0.153444
H14   H     H_    0.446377 0.103429 0.098400 0.160249
H15   H     H_    0.112113 0.472074 0.901326 0.151762
H16   H     H_    0.887794 0.524964 0.098987 0.160159
C113  C     C_R   0.195202 0.697049 0.250175 -0.396582
C114  C     C_R   0.804402 0.303539 0.750106 -0.393517
C115  C     C_R   0.303203 0.195854 0.250122 -0.391720
C116  C     C_R   0.697775 0.805602 0.749314 -0.392914
C117  C     C_R   0.803456 0.304135 0.250022 -0.394638
C118  C     C_R   0.195901 0.696148 0.750060 -0.394897
C119  C     C_R   0.703196 0.810849 0.254829 -0.376982
C120  C     C_R   0.303213 0.195529 0.749660 -0.391329
C121  C     C_R   0.196380 0.303564 0.749959 -0.390930
C122  C     C_R   0.809502 0.702140 0.254541 -0.382767
C123  C     C_R   0.304241 0.803318 0.750214 -0.394910
C124  C     C_R   0.696287 0.195789 0.250061 -0.393233
C125  C     C_R   0.804882 0.697654 0.749359 -0.390613
C126  C     C_R   0.197374 0.305073 0.249744 -0.393300
C127  C     C_R   0.694582 0.198006 0.750515 -0.392232
C128  C     C_R   0.304713 0.802977 0.249935 -0.393814
C129  C     C_R   0.999161 0.499973 0.479514 -0.072790
C130  C     C_R   0.000013 0.500298 0.520505 -0.071642
C131  C     C_R   0.500157 0.001838 0.479450 -0.075110
C132  C     C_R   0.500214 0.002098 0.520474 -0.072618
C133  C     C_R   0.503047 0.002415 0.979481 -0.065662
C134  C     C_R   0.503565 0.002840 0.020511 -0.069083
C135  C     C_R   0.000200 0.501838 0.979521 -0.072261
C136  C     C_R   0.000804 0.503078 0.020520 -0.073998
O53   O     O_3   0.995177 0.301339 0.460037 -0.589152
C137  C     C_3   0.063634 0.268595 0.453856 0.132402
H17   H     H_    0.074175 0.229059 0.477718 0.180228
H18   H     H_    0.109672 0.308403 0.452371 0.100098
C138  C     C_3   0.061964 0.226214 0.415700 -0.907814
H19   H     H_    0.051006 0.263227 0.390729 0.233607
H20   H     H_    0.115300 0.199638 0.410898 0.207395
H21   H     H_    0.018785 0.183731 0.416924 0.269279
O54   O     O_3   0.004771 0.698880 0.539944 -0.587747
C139  C     C_3   0.937220 0.734121 0.544766 0.138913
H22   H     H_    0.889475 0.696266 0.544401 0.096229
H23   H     H_    0.930841 0.775325 0.521282 0.182072
C140  C     C_3   0.937006 0.774495 0.583561 -0.905676
H24   H     H_    0.981617 0.815512 0.584020 0.268924
H25   H     H_    0.884250 0.802699 0.587499 0.214415
H26   H     H_    0.944683 0.735860 0.608183 0.231807
O55   O     O_3   0.698176 0.008351 0.458485 -0.630536
C141  C     C_3   0.729951 0.938757 0.461295 0.134880
H27   H     H_    0.689102 0.894020 0.458126 0.122121
H28   H     H_    0.758066 0.932622 0.489863 0.190135
C142  C     C_3   0.785919 0.930562 0.428872 -0.903605
H29   H     H_    0.828096 0.973846 0.431212 0.268839
H30   H     H_    0.812380 0.876734 0.431441 0.217268
H31   H     H_    0.759013 0.934507 0.399886 0.240574
O56   O     O_3   0.303397 0.969976 0.539942 -0.581397
C143  C     C_3   0.267102 0.033173 0.552800 0.084270
H32   H     H_    0.280880 0.083212 0.535713 0.099452
H33   H     H_    0.280609 0.043409 0.583884 0.125382
C144  C     C_3   0.185455 0.019963 0.550498 -0.800199
H34   H     H_    0.170166 0.971922 0.568589 0.254894
H35   H     H_    0.156085 0.068109 0.561674 0.196510
H36   H     H_    0.168939 0.009948 0.519765 0.268282
O57   O     O_3   0.986716 0.698885 0.458916 -0.585674
C145  C     C_3   0.915419 0.708289 0.443930 0.085012
H37   H     H_    0.879089 0.730535 0.466817 0.121177
H38   H     H_    0.889928 0.657030 0.433204 0.124663
C146  C     C_3   0.918036 0.761663 0.409846 -0.878328
H39   H     H_    0.953151 0.740198 0.386150 0.234602
H40   H     H_    0.862426 0.769545 0.398003 0.192204
H41   H     H_    0.940045 0.814895 0.419725 0.270264
O58   O     O_3   0.008823 0.301136 0.540891 -0.588157
C147  C     C_3   0.080876 0.288367 0.553683 0.083855
H42   H     H_    0.096921 0.326654 0.577138 0.132318
H43   H     H_    0.121093 0.293961 0.529461 0.106717
C148  C     C_3   0.085660 0.211765 0.570259 -0.863890
H44   H     H_    0.071090 0.171521 0.547390 0.259653
H45   H     H_    0.141968 0.201273 0.580477 0.195911
H46   H     H_    0.047697 0.205521 0.595376 0.254338
O59   O     O_3   0.302301 0.978329 0.459958 -0.575276
C149  C     C_3   0.274185 0.045808 0.447250 0.084063
H47   H     H_    0.317204 0.082965 0.435724 0.120370
H48   H     H_    0.245991 0.073413 0.471667 0.150086
C150  C     C_3   0.219210 0.032813 0.414779 -0.867362
H49   H     H_    0.175271 0.995798 0.425233 0.273422
H50   H     H_    0.194814 0.085300 0.405692 0.202496
H51   H     H_    0.246413 0.008212 0.389048 0.232088
O60   O     O_3   0.698375 0.017336 0.540668 -0.632705
C151  C     C_3   0.729052 0.087534 0.535949 0.129200
H52   H     H_    0.688071 0.131083 0.540669 0.126190
H53   H     H_    0.752867 0.094183 0.506258 0.201677
C152  C     C_3   0.789957 0.097575 0.565553 -0.858772
H54   H     H_    0.833986 0.057883 0.559825 0.262596
H55   H     H_    0.812698 0.153547 0.563248 0.225610
H56   H     H_    0.768900 0.088831 0.595663 0.240367
O61   O     O_3   0.586363 0.822117 0.960697 -0.623862
C153  C     C_3   0.529640 0.770841 0.954963 0.117024
H57   H     H_    0.520316 0.765562 0.923044 0.127977
H58   H     H_    0.476516 0.785292 0.968815 0.127177
C154  C     C_3   0.553100 0.697129 0.970716 -0.811656
H59   H     H_    0.560561 0.699842 0.002883 0.281515
H60   H     H_    0.510852 0.655568 0.964070 0.199791
H61   H     H_    0.605127 0.680694 0.956936 0.247985
O62   O     O_3   0.407803 0.176543 0.039896 -0.590827
C155  C     C_3   0.458011 0.231938 0.049810 0.112810
H62   H     H_    0.466217 0.269007 0.024549 0.170120
H63   H     H_    0.511821 0.210141 0.059060 0.115580
C156  C     C_3   0.427201 0.276481 0.083324 -0.892065
H64   H     H_    0.422586 0.242223 0.110011 0.228791
H65   H     H_    0.463892 0.323183 0.089613 0.214838
H66   H     H_    0.372578 0.297569 0.075476 0.273577
O63   O     O_3   0.191807 0.449332 0.959248 -0.633502
C157  C     C_3   0.193088 0.373482 0.952046 0.075060
H67   H     H_    0.212875 0.365494 0.921666 0.143771
H68   H     H_    0.138839 0.345983 0.954055 0.127783
C158  C     C_3   0.246157 0.336003 0.979641 -0.736633
H69   H     H_    0.222489 0.331878 0.009439 0.270719
H70   H     H_    0.257534 0.280176 0.969020 0.224724
H71   H     H_    0.298018 0.367133 0.980977 0.257984
O64   O     O_3   0.807728 0.550740 0.040844 -0.590949
C159  C     C_3   0.809208 0.623982 0.053586 0.057919
H72   H     H_    0.812866 0.662356 0.028447 0.112688
H73   H     H_    0.856061 0.635413 0.073177 0.150556
C160  C     C_3   0.739871 0.639511 0.076299 -0.809976
H74   H     H_    0.734867 0.601348 0.101428 0.253501
H75   H     H_    0.741463 0.696000 0.087619 0.202429
H76   H     H_    0.691783 0.632966 0.056978 0.257014
O65   O     O_3   0.415012 0.181039 0.959753 -0.597725
C161  C     C_3   0.471267 0.226579 0.945122 0.074756
H77   H     H_    0.492970 0.204846 0.917291 0.133492
H78   H     H_    0.517421 0.232756 0.966004 0.114419
C162  C     C_3   0.440556 0.301614 0.936645 -0.844798
H79   H     H_    0.420883 0.326767 0.964117 0.253891
H80   H     H_    0.483584 0.336997 0.923759 0.209248
H81   H     H_    0.394652 0.297376 0.915668 0.248685
O66   O     O_3   0.593702 0.825907 0.040544 -0.613416
C163  C     C_3   0.667577 0.840109 0.049526 0.097125
H82   H     H_    0.679357 0.813795 0.078059 0.145153
H83   H     H_    0.680703 0.899102 0.053034 0.120961
C164  C     C_3   0.717678 0.807134 0.018798 -0.807375
H84   H     H_    0.715550 0.839359 0.991333 0.270790
H85   H     H_    0.774586 0.807694 0.029633 0.193197
H86   H     H_    0.701259 0.750105 0.012635 0.266679
O67   O     O_3   0.803975 0.529237 0.960172 -0.588473
C165  C     C_3   0.776858 0.600400 0.955276 0.140544
H87   H     H_    0.820565 0.642581 0.952875 0.101465
H88   H     H_    0.740522 0.613839 0.980128 0.184711
C166  C     C_3   0.731194 0.603007 0.918252 -0.906130
H89   H     H_    0.683313 0.566253 0.921266 0.266778
H90   H     H_    0.711886 0.659330 0.913101 0.210939
H91   H     H_    0.763989 0.585408 0.892746 0.240042
O68   O     O_3   0.193509 0.456285 0.040432 -0.622283
C167  C     C_3   0.241838 0.516128 0.038019 0.126233
H92   H     H_    0.214454 0.568062 0.045749 0.122115
H93   H     H_    0.265110 0.521184 0.008098 0.194158
C168  C     C_3   0.304243 0.504120 0.066421 -0.882321
H94   H     H_    0.334194 0.453969 0.058478 0.263193
H95   H     H_    0.342328 0.551208 0.065272 0.216028
H96   H     H_    0.282934 0.498262 0.096692 0.244264
O69   O     O_3   0.288370 0.817318 0.179363 -0.535192
C169  C     C_3   0.355238 0.790027 0.165064 0.146772
H97   H     H_    0.362989 0.731108 0.171520 0.084586
H98   H     H_    0.401631 0.820483 0.177945 0.132531
C170  C     C_3   0.358231 0.800668 0.120953 -0.795098
H99   H     H_    0.353507 0.859377 0.113631 0.268550
H100  H     H_    0.410785 0.780290 0.109406 0.200427
H101  H     H_    0.312987 0.770238 0.106880 0.251924
O70   O     O_3   0.719860 0.174915 0.819634 -0.527878
C171  C     C_3   0.656060 0.201038 0.838042 0.156841
H102  H     H_    0.608153 0.168452 0.828685 0.135768
H103  H     H_    0.644391 0.259278 0.831513 0.074609
C172  C     C_3   0.664001 0.192435 0.882077 -0.801171
H104  H     H_    0.713340 0.221770 0.892298 0.262128
H105  H     H_    0.615851 0.215442 0.897040 0.175885
H106  H     H_    0.668585 0.133927 0.889861 0.266445
O71   O     O_3   0.166417 0.271081 0.182673 -0.529204
C173  C     C_3   0.193798 0.331592 0.161223 0.121022
H107  H     H_    0.253971 0.338411 0.163593 0.079047
H108  H     H_    0.168578 0.382770 0.171531 0.141258
C174  C     C_3   0.174625 0.322382 0.118255 -0.785760
H109  H     H_    0.114645 0.323475 0.114439 0.270174
H110  H     H_    0.199444 0.367285 0.100982 0.238175
H111  H     H_    0.195744 0.269941 0.107117 0.255857
O72   O     O_3   0.849837 0.747282 0.811056 -0.528544
C175  C     C_3   0.834197 0.696160 0.840880 0.156154
H112  H     H_    0.830531 0.639693 0.829466 0.108478
H113  H     H_    0.782462 0.708574 0.855776 0.125439
C176  C     C_3   0.894738 0.699707 0.871085 -0.742207
H114  H     H_    0.894787 0.753675 0.885580 0.243558
H115  H     H_    0.886594 0.656920 0.893533 0.184110
H116  H     H_    0.948291 0.691418 0.856782 0.292352
O73   O     O_3   0.704482 0.190924 0.178801 -0.537371
C177  C     C_3   0.635856 0.219369 0.168084 0.150952
H117  H     H_    0.626177 0.275451 0.179272 0.086568
H118  H     H_    0.591603 0.183487 0.179248 0.129945
C178  C     C_3   0.630366 0.221573 0.123768 -0.835312
H119  H     H_    0.632698 0.165559 0.111756 0.260535
H120  H     H_    0.578057 0.246757 0.115279 0.195899
H121  H     H_    0.675675 0.254520 0.111305 0.263721
O74   O     O_3   0.287822 0.816174 0.820779 -0.529010
C179  C     C_3   0.354532 0.789250 0.835391 0.155022
H122  H     H_    0.400549 0.822913 0.824314 0.128126
H123  H     H_    0.365065 0.731570 0.827259 0.077759
C180  C     C_3   0.353956 0.794443 0.879755 -0.809645
H124  H     H_    0.307654 0.762487 0.891905 0.259009
H125  H     H_    0.405367 0.772346 0.891643 0.172380
H126  H     H_    0.348753 0.852137 0.888849 0.267955
O75   O     O_3   0.877751 0.772676 0.206224 -0.568511
C181  C     C_3   0.931215 0.813168 0.226447 0.127407
H127  H     H_    0.946968 0.785504 0.254211 0.103373
H128  H     H_    0.911355 0.868883 0.233158 0.157789
C182  C     C_3   0.998742 0.820115 0.200890 -0.712525
H129  H     H_    0.985471 0.849973 0.173552 0.246709
H130  H     H_    0.041920 0.850340 0.216813 0.195121
H131  H     H_    0.019383 0.765320 0.193266 0.294673
O76   O     O_3   0.143988 0.245729 0.808260 -0.529757
C183  C     C_3   0.155465 0.292737 0.840340 0.149463
H132  H     H_    0.167702 0.349593 0.830995 0.105166
H133  H     H_    0.200623 0.273597 0.858895 0.118650
C184  C     C_3   0.086929 0.292663 0.865385 -0.725930
H134  H     H_    0.079931 0.238903 0.879873 0.240639
H135  H     H_    0.090779 0.335361 0.888072 0.170886
H136  H     H_    0.038468 0.303325 0.846976 0.301314
O77   O     O_3   0.258313 0.153725 0.813204 -0.524113
C185  C     C_3   0.310070 0.178891 0.840755 0.128899
H137  H     H_    0.312270 0.239336 0.843131 0.067397
H138  H     H_    0.365515 0.160396 0.832786 0.142538
C186  C     C_3   0.291012 0.147312 0.880675 -0.775633
H139  H     H_    0.298728 0.087433 0.880577 0.270384
H140  H     H_    0.326568 0.171822 0.903199 0.240957
H141  H     H_    0.233570 0.159276 0.888236 0.255703
O78   O     O_3   0.771734 0.876243 0.204876 -0.562708
C187  C     C_3   0.754209 0.858188 0.165905 0.160907
H142  H     H_    0.697093 0.837974 0.163636 0.113841
H143  H     H_    0.791605 0.816245 0.154113 0.165225
C188  C     C_3   0.762063 0.926275 0.140828 -0.766257
H144  H     H_    0.817583 0.949620 0.144140 0.263217
H145  H     H_    0.753531 0.912694 0.109655 0.168982
H146  H     H_    0.721391 0.967410 0.149868 0.282946
O79   O     O_3   0.181658 0.711941 0.820492 -0.529237
C189  C     C_3   0.211857 0.648118 0.836765 0.144363
H147  H     H_    0.271522 0.653670 0.840961 0.115848
H148  H     H_    0.201054 0.600031 0.817966 0.105695
C190  C     C_3   0.177413 0.633930 0.876573 -0.791346
H149  H     H_    0.117644 0.627214 0.873501 0.270687
H150  H     H_    0.200270 0.583592 0.889578 0.202409
H151  H     H_    0.188756 0.680248 0.896457 0.253983
O80   O     O_3   0.812838 0.293288 0.179143 -0.531032
C191  C     C_3   0.780995 0.358076 0.165059 0.132667
H152  H     H_    0.793008 0.404699 0.184697 0.108570
H153  H     H_    0.721059 0.352348 0.162101 0.122879
C192  C     C_3   0.812217 0.375678 0.124882 -0.765556
H154  H     H_    0.799724 0.330843 0.104227 0.258445
H155  H     H_    0.787966 0.426752 0.113562 0.208096
H156  H     H_    0.872125 0.382740 0.126809 0.267458
O81   O     O_3   0.735195 0.839359 0.815259 -0.522196
C193  C     C_3   0.679883 0.811263 0.840043 0.125443
H157  H     H_    0.673358 0.750954 0.838326 0.069931
H158  H     H_    0.626594 0.835619 0.832454 0.142050
C194  C     C_3   0.697705 0.831292 0.882066 -0.793984
H159  H     H_    0.690417 0.890607 0.886556 0.267362
H160  H     H_    0.661159 0.800681 0.901983 0.237649
H161  H     H_    0.754731 0.816956 0.889199 0.258425
O82   O     O_3   0.255220 0.153057 0.187779 -0.529214
C195  C     C_3   0.303980 0.172064 0.157405 0.150715
H162  H     H_    0.361362 0.164622 0.166713 0.115906
H163  H     H_    0.297442 0.229079 0.147621 0.122406
C196  C     C_3   0.288905 0.123046 0.122587 -0.745034
H164  H     H_    0.230558 0.126109 0.114397 0.263139
H165  H     H_    0.321946 0.140866 0.097176 0.240358
H166  H     H_    0.302565 0.065861 0.129975 0.268423
O83   O     O_3   0.825715 0.279128 0.819405 -0.530294
C197  C     C_3   0.797636 0.340932 0.838640 0.137354
H167  H     H_    0.738619 0.334833 0.844823 0.116903
H168  H     H_    0.806139 0.391186 0.820989 0.107210
C198  C     C_3   0.836733 0.350593 0.877469 -0.770675
H169  H     H_    0.896033 0.357619 0.872471 0.269379
H170  H     H_    0.815612 0.399367 0.892714 0.214010
H171  H     H_    0.827630 0.302109 0.896343 0.253360
O84   O     O_3   0.178504 0.717329 0.180222 -0.544335
C199  C     C_3   0.206741 0.654172 0.162515 0.161256
H172  H     H_    0.199077 0.605416 0.181459 0.102185
H173  H     H_    0.265538 0.660413 0.155763 0.120352
C200  C     C_3   0.166768 0.640863 0.124351 -0.812205
H174  H     H_    0.179508 0.684971 0.103098 0.249626
H175  H     H_    0.183959 0.588087 0.111999 0.190272
H176  H     H_    0.107175 0.639132 0.129521 0.281264
O85   O     O_3   0.781992 0.323904 0.680498 -0.530773
C201  C     C_3   0.845520 0.294337 0.663372 0.115242
H177  H     H_    0.848516 0.234031 0.666556 0.085373
H178  H     H_    0.895081 0.318319 0.676791 0.132158
C202  C     C_3   0.846685 0.312716 0.619952 -0.781170
H179  H     H_    0.848013 0.372670 0.615794 0.267872
H180  H     H_    0.895721 0.288910 0.606094 0.221937
H181  H     H_    0.797495 0.290133 0.605479 0.251131
O86   O     O_3   0.211402 0.682806 0.320761 -0.528717
C203  C     C_3   0.144296 0.709823 0.334942 0.105233
H182  H     H_    0.098287 0.677448 0.323031 0.129933
H183  H     H_    0.135022 0.768058 0.327317 0.079325
C204  C     C_3   0.142524 0.702361 0.379257 -0.754402
H184  H     H_    0.188037 0.733766 0.392378 0.258415
H185  H     H_    0.090388 0.723660 0.390795 0.220632
H186  H     H_    0.147514 0.644232 0.387762 0.264435
O87   O     O_3   0.669958 0.775048 0.681407 -0.528863
C205  C     C_3   0.697668 0.837140 0.661490 0.134839
H187  H     H_    0.758262 0.839751 0.661567 0.080006
H188  H     H_    0.677238 0.887947 0.674955 0.131975
C206  C     C_3   0.672069 0.835639 0.619212 -0.787221
H189  H     H_    0.611685 0.836557 0.618131 0.275556
H190  H     H_    0.693654 0.883949 0.603297 0.212627
H191  H     H_    0.691871 0.785660 0.604586 0.247308
O88   O     O_3   0.343541 0.238689 0.313971 -0.528552
C207  C     C_3   0.318593 0.187603 0.342147 0.178587
H192  H     H_    0.349026 0.135950 0.338981 0.151690
H193  H     H_    0.259654 0.173512 0.339708 0.059599
C208  C     C_3   0.333260 0.217970 0.382787 -0.814711
H194  H     H_    0.320144 0.276743 0.383798 0.278861
H195  H     H_    0.298775 0.189666 0.404693 0.178931
H196  H     H_    0.391486 0.210976 0.390475 0.255865
O89   O     O_3   0.210585 0.684943 0.679247 -0.532803
C209  C     C_3   0.142990 0.711878 0.665773 0.108222
H197  H     H_    0.134075 0.770123 0.673202 0.090130
H198  H     H_    0.097358 0.679634 0.678385 0.130283
C210  C     C_3   0.139555 0.704141 0.621555 -0.750804
H199  H     H_    0.144594 0.646005 0.613281 0.263643
H200  H     H_    0.086851 0.725075 0.610664 0.224217
H201  H     H_    0.184249 0.735782 0.607653 0.258080
O90   O     O_3   0.789298 0.315071 0.320595 -0.531692
C211  C     C_3   0.852423 0.283426 0.336652 0.122228
H202  H     H_    0.901441 0.298810 0.319326 0.105222
H203  H     H_    0.848394 0.223105 0.337969 0.119342
C212  C     C_3   0.862332 0.311202 0.378120 -0.763925
H204  H     H_    0.813800 0.297346 0.396099 0.263327
H205  H     H_    0.910796 0.285547 0.391485 0.227318
H206  H     H_    0.869708 0.371201 0.377772 0.260048
O91   O     O_3   0.343826 0.239689 0.685679 -0.529238
C213  C     C_3   0.320011 0.184733 0.659609 0.143547
H207  H     H_    0.260608 0.187580 0.653558 0.068900
H208  H     H_    0.331186 0.129611 0.671428 0.131776
C214  C     C_3   0.361247 0.193188 0.621220 -0.788782
H209  H     H_    0.420602 0.187615 0.626379 0.275383
H210  H     H_    0.343703 0.150734 0.600284 0.170846
H211  H     H_    0.350438 0.247493 0.608227 0.247659
O92   O     O_3   0.652551 0.757349 0.314651 -0.530253
C215  C     C_3   0.671904 0.811147 0.342455 0.132459
H212  H     H_    0.666044 0.866927 0.330309 0.127176
H213  H     H_    0.729146 0.805471 0.352503 0.072808
C216  C     C_3   0.621843 0.804343 0.377739 -0.752269
H214  H     H_    0.629816 0.750861 0.392258 0.241837
H215  H     H_    0.634106 0.848338 0.398882 0.188007
H216  H     H_    0.564205 0.809126 0.368439 0.284243
O93   O     O_3   0.742502 0.640608 0.307073 -0.531274
C217  C     C_3   0.782885 0.648038 0.341995 0.142855
H217  H     H_    0.758213 0.689444 0.361254 0.132284
H218  H     H_    0.840788 0.663072 0.336246 0.102963
C218  C     C_3   0.781066 0.575949 0.364004 -0.705962
H219  H     H_    0.800341 0.531420 0.344847 0.297561
H220  H     H_    0.816585 0.579021 0.390164 0.175322
H221  H     H_    0.724578 0.563334 0.373539 0.245599
O94   O     O_3   0.255082 0.356951 0.692298 -0.532450
C219  C     C_3   0.211427 0.345642 0.658866 0.147569
H222  H     H_    0.154103 0.331791 0.666667 0.104642
H223  H     H_    0.233879 0.301967 0.640356 0.131568
C220  C     C_3   0.211970 0.415121 0.634505 -0.716001
H224  H     H_    0.267471 0.425397 0.622752 0.244878
H225  H     H_    0.173490 0.410172 0.609709 0.171580
H226  H     H_    0.195945 0.462144 0.652783 0.299788
O95   O     O_3   0.689512 0.204611 0.321310 -0.530072
C221  C     C_3   0.717127 0.135900 0.332644 0.111884
H227  H     H_    0.773514 0.125741 0.321914 0.085556
H228  H     H_    0.681270 0.091821 0.321495 0.131727
C222  C     C_3   0.717660 0.130852 0.377051 -0.770825
H229  H     H_    0.661747 0.138146 0.388703 0.268244
H230  H     H_    0.738086 0.076754 0.386254 0.223160
H231  H     H_    0.753745 0.173561 0.389389 0.253482
O96   O     O_3   0.320331 0.785084 0.680155 -0.524736
C223  C     C_3   0.289877 0.847269 0.662360 0.120522
H232  H     H_    0.308181 0.897536 0.677512 0.110094
H233  H     H_    0.229418 0.845834 0.662318 0.109197
C224  C     C_3   0.315293 0.851095 0.620131 -0.734398
H234  H     H_    0.300052 0.800457 0.604503 0.265273
H235  H     H_    0.289032 0.897824 0.605401 0.223033
H236  H     H_    0.375330 0.857852 0.618990 0.263190
O97   O     O_3   0.240801 0.343890 0.314000 -0.528709
C225  C     C_3   0.184948 0.324974 0.340745 0.140941
H237  H     H_    0.194324 0.271033 0.354212 0.116808
H238  H     H_    0.130477 0.323714 0.326683 0.109972
C226  C     C_3   0.183855 0.381328 0.373211 -0.748105
H239  H     H_    0.179800 0.436804 0.360564 0.296057
H240  H     H_    0.136629 0.371598 0.392694 0.186696
H241  H     H_    0.234493 0.378080 0.390737 0.234600
O98   O     O_3   0.759777 0.657688 0.685689 -0.527953
C227  C     C_3   0.813131 0.676926 0.657663 0.158681
H242  H     H_    0.868492 0.679140 0.670743 0.101095
H243  H     H_    0.801224 0.730250 0.644004 0.126835
C228  C     C_3   0.812770 0.619988 0.625482 -0.751807
H244  H     H_    0.760303 0.621637 0.609461 0.247952
H245  H     H_    0.857749 0.630676 0.604588 0.184906
H246  H     H_    0.819731 0.564904 0.638252 0.291402
O99   O     O_3   0.323930 0.780079 0.319385 -0.524722
C229  C     C_3   0.294778 0.840066 0.339640 0.127111
H247  H     H_    0.234663 0.836506 0.342521 0.116153
H248  H     H_    0.309082 0.891920 0.324567 0.105410
C230  C     C_3   0.326809 0.841623 0.380586 -0.748571
H249  H     H_    0.386481 0.851073 0.379018 0.260384
H250  H     H_    0.301366 0.885726 0.397759 0.232344
H251  H     H_    0.316156 0.789049 0.395689 0.266240
O100  O     O_3   0.662369 0.235843 0.684404 -0.525313
C231  C     C_3   0.683053 0.180739 0.658128 0.162026
H252  H     H_    0.681219 0.126100 0.672210 0.101593
H253  H     H_    0.738479 0.190451 0.646351 0.124527
C232  C     C_3   0.630206 0.181182 0.624018 -0.767635
H254  H     H_    0.635716 0.232881 0.607343 0.250773
H255  H     H_    0.641991 0.135223 0.604334 0.191118
H256  H     H_    0.573452 0.175765 0.634819 0.282999

loop_
_geom_bond_atom_site_label_1
_geom_bond_atom_site_label_2
_geom_bond_distance
_ccdc_geom_bond_type
Zn1   O47   1.947558 S    
O70   C171  1.417241 S    
Zn3   O45   1.934733 S    
C156  H65   1.110322 S    
C220  H224  1.110669 S    
C213  C214  1.521615 S    
C16   H16   1.083287 S    
Zn11  O22   1.946767 S    
C220  H225  1.108819 S    
C72   C121  1.416706 A    
C166  H91   1.109599 S    
Zn12  O9    1.935925 S    
O95   C221  1.417312 S    
C200  H176  1.109498 S    
C82   C95   1.395293 A    
C221  C222  1.521029 S    
C177  H117  1.116108 S    
Zn1   O16   1.936666 S    
C85   C118  1.409822 A    
C70   C75   1.395932 A    
O96   C223  1.412409 S    
C217  H217  1.107002 S    
C71   C74   1.396320 A    
O5    C41   1.277658 A    
C5    C17   1.391438 A    
C12   C24   1.392135 A    
C28   C31   1.403535 A    
O10   C42   1.278134 A    
C150  H51   1.110263 S    
C14   C22   1.393638 A    
C171  C172  1.520893 S    
C196  H164  1.110685 S    
C76   O80   1.386089 S    
C202  H180  1.110555 S    
C176  H116  1.109977 S    
C145  H38   1.113351 S    
C185  C186  1.520952 S    
C230  H250  1.108141 S    
C159  H72   1.111802 S    
C171  H102  1.110157 S    
C59   C125  1.466583 S    
C222  H230  1.109944 S    
O26   C54   1.278835 A    
C163  H82   1.109815 S    
C17   C43   1.444140 S    
C104  C132  1.418234 A    
C49   C115  1.465244 S    
C4    H4    1.083846 S    
C174  H111  1.109882 S    
C111  C135  1.416745 A    
O30   C58   1.279623 A    
C182  H130  1.110566 S    
O56   C143  1.414319 S    
C87   C90   1.395070 A    
C185  H138  1.110189 S    
Zn2   O43   1.934662 S    
C170  H100  1.110682 S    
O13   C45   1.277751 A    
C166  H89   1.110648 S    
C34   O62   1.384770 S    
C157  H68   1.117076 S    
C2    C102  1.398912 A    
C172  H106  1.110878 S    
C141  H28   1.111724 S    
Zn8   O41   1.947062 S    
C18   C44   1.444132 S    
C72   C73   1.393429 A    
C109  C133  1.416699 A    
C167  H92   1.114450 S    
C10   C22   1.391413 A    
C224  H236  1.110385 S    
C179  H123  1.115157 S    
C26   C29   1.408212 A    
O84   C199  1.412550 S    
Zn15  O26   1.947063 S    
C167  C168  1.521074 S    
C216  H216  1.110666 S    
Zn14  O36   1.946395 S    
O98   C227  1.412501 S    
O54   C139  1.413767 S    
C71   C122  1.412090 A    
C206  H191  1.110625 S    
C67   C78   1.396796 A    
C80   O84   1.385114 S    
C163  C164  1.525590 S    
O16   C48   1.279030 A    
C33   O61   1.381132 S    
C228  H244  1.110590 S    
O64   C159  1.416716 S    
C168  H96   1.110685 S    
C139  H23   1.108893 S    
C12   C112  1.398662 A    
C7    C99   1.398421 A    
Zn1   O1    1.949213 S    
Zn15  O33   1.937019 S    
C199  H173  1.109925 S    
O6    C42   1.279379 A    
C1    C101  1.399732 A    
O74   C179  1.416479 S    
C196  H166  1.110721 S    
C149  H48   1.108102 S    
O93   C217  1.413821 S    
C28   O56   1.384693 S    
C86   C117  1.410135 A    
C93   C126  1.415768 A    
C73   O77   1.385212 S    
C221  H227  1.115921 S    
C193  H158  1.110368 S    
C153  C154  1.521667 S    
C39   C111  1.410943 A    
C199  H172  1.112139 S    
C90   C121  1.417550 A    
C152  H56   1.110094 S    
Zn15  O2    1.944446 S    
C37   C109  1.414302 A    
C231  C232  1.519352 S    
O27   C55   1.280999 A    
Zn16  O5    1.939158 S    
C211  H202  1.111994 S    
C101  C129  1.417073 A    
C180  H124  1.110328 S    
O24   C52   1.281479 A    
Zn2   O15   1.936666 S    
C200  H174  1.110570 S    
C3    C19   1.390475 A    
O76   C183  1.414126 S    
C228  H246  1.109594 S    
C15   H15   1.084056 S    
C165  C166  1.521077 S    
O89   C209  1.417571 S    
C81   O85   1.387245 S    
O7    C43   1.278310 A    
O14   C46   1.278862 A    
O44   C62   1.281426 A    
C9    C109  1.399251 A    
O81   C193  1.416314 S    
C189  H148  1.111911 S    
C192  H155  1.110613 S    
C6    C98   1.399486 A    
C67   C126  1.412852 A    
Zn9   O8    1.936666 S    
C202  H179  1.110902 S    
C162  H79   1.109471 S    
Zn6   O2    1.945804 S    
Zn10  O7    1.936666 S    
C215  H212  1.110955 S    
C79   C114  1.412222 A    
Zn16  O25   1.947062 S    
C210  H200  1.109216 S    
C184  H134  1.110611 S    
O71   C173  1.419403 S    
C14   C106  1.399516 A    
Zn13  O4    1.945805 S    
Zn14  O3    1.945804 S    
C178  H120  1.108513 S    
C153  H58   1.118449 S    
C143  H33   1.108422 S    
O78   C187  1.411761 S    
C32   O60   1.386417 S    
C32   C104  1.409913 A    
C52   C118  1.452500 S    
C33   C105  1.407966 A    
C99   C131  1.416313 A    
C50   C116  1.461843 S    
C138  H21   1.110656 S    
C211  C212  1.519664 S    
C182  H129  1.110661 S    
Zn6   O39   1.937215 S    
C36   C108  1.414145 A    
O79   C189  1.413904 S    
Zn1   O44   1.934663 S    
O46   C52   1.278089 A    
C144  H34   1.110896 S    
O86   C203  1.417920 S    
O40   C58   1.280136 A    
Zn11  O2    1.950815 S    
Zn16  O34   1.937020 S    
O43   C61   1.282852 A    
O58   C147  1.416308 S    
C13   H13   1.083150 S    
C160  H75   1.109764 S    
Zn4   O46   1.934732 S    
O12   C44   1.278827 A    
C203  C204  1.521306 S    
C146  H39   1.110111 S    
C27   O55   1.384262 S    
C212  H204  1.110282 S    
O45   C51   1.280861 A    
Zn9   O4    1.949213 S    
C175  H112  1.111972 S    
C161  H78   1.115411 S    
C77   O81   1.385059 S    
C173  H107  1.115521 S    
Zn13  O35   1.946396 S    
C23   C45   1.444841 S    
C215  C216  1.520368 S    
C198  H169  1.109711 S    
C226  H239  1.109344 S    
C195  H162  1.111452 S    
C106  C134  1.415435 A    
Zn7   O3    1.944446 S    
C61   C127  1.456903 S    
C140  H24   1.110698 S    
C82   C113  1.410562 A    
C84   C93   1.396055 A    
C193  C194  1.520434 S    
O39   C57   1.282098 A    
C88   O92   1.385278 S    
C86   O90   1.384785 S    
O60   C151  1.413682 S    
C164  H85   1.110393 S    
C169  H97   1.114720 S    
C186  H140  1.106344 S    
C36   O64   1.384912 S    
C2    C18   1.390129 A    
C6    C18   1.392576 A    
C180  H126  1.110941 S    
C205  H188  1.110017 S    
C208  H195  1.106803 S    
C53   C119  1.471705 S    
C219  C220  1.522433 S    
C165  H87   1.115799 S    
O17   C45   1.279875 A    
C137  C138  1.522242 S    
C194  H160  1.105762 S    
C133  C134  1.403095 A    
C57   C123  1.455702 S    
C206  H190  1.110744 S    
C175  C176  1.520952 S    
C6    H6    1.082467 S    
C171  H103  1.115144 S    
O62   C155  1.412628 S    
O52   C54   1.277322 A    
C96   O100  1.384223 S    
O23   C51   1.280232 A    
C162  H81   1.111042 S    
C195  C196  1.520482 S    
C28   C100  1.413177 A    
C154  H59   1.109953 S    
C81   C96   1.392768 A    
Zn5   O51   1.946396 S    
C184  H136  1.109793 S    
C137  H18   1.116293 S    
C148  H45   1.110846 S    
C173  C174  1.521371 S    
C227  H242  1.112915 S    
C82   O86   1.387878 S    
C97   C129  1.417285 A    
O8    C44   1.278233 A    
C69   C76   1.396281 A    
C98   C130  1.417633 A    
C68   O72   1.386143 S    
C203  H182  1.109968 S    
C20   C42   1.444794 S    
C187  H142  1.114455 S    
C181  H128  1.113984 S    
O20   C48   1.278162 A    
O48   C50   1.279128 A    
C63   C121  1.465534 S    
C182  H131  1.110344 S    
C93   O97   1.386441 S    
C33   C38   1.398003 A    
C79   O83   1.386869 S    
Zn12  O30   1.934732 S    
C223  H232  1.111597 S    
C144  H36   1.110091 S    
C66   C127  1.411980 A    
C217  C218  1.521910 S    
C148  H46   1.110794 S    
C149  H47   1.112402 S    
Zn6   O19   1.938396 S    
C55   C113  1.454009 S    
C69   O73   1.386617 S    
C199  C200  1.518682 S    
C19   C41   1.442939 S    
Zn8   O13   1.939158 S    
C95   C128  1.411458 A    
C147  H42   1.108106 S    
C152  H55   1.110692 S    
C81   C114  1.410045 A    
C218  H221  1.110609 S    
C146  H41   1.110546 S    
C100  C132  1.418034 A    
C85   C92   1.394964 A    
C232  H254  1.110616 S    
C86   C91   1.395863 A    
C9    H9    1.081212 S    
O75   C181  1.412489 S    
C217  H218  1.114917 S    
O36   C64   1.279068 A    
C197  C198  1.521374 S    
Zn2   O2    1.949210 S    
C218  H220  1.109821 S    
C213  H208  1.110154 S    
Zn6   O52   1.946395 S    
C36   C39   1.408428 A    
C201  H177  1.115304 S    
C83   O87   1.387048 S    
C140  H26   1.109418 S    
C176  H115  1.106449 S    
C76   C117  1.410579 A    
C30   C102  1.414336 A    
C231  H252  1.112688 S    
C1    H1    1.082493 S    
Zn8   O50   1.937020 S    
C187  C188  1.520732 S    
C222  H229  1.110704 S    
O51   C53   1.278169 A    
O18   C46   1.278166 A    
C151  H52   1.114640 S    
C227  H243  1.107651 S    
Zn15  O6    1.939158 S    
O92   C215  1.418453 S    
C88   C119  1.414926 A    
Zn16  O1    1.944445 S    
C38   C110  1.408417 A    
O80   C191  1.413800 S    
C207  C208  1.523315 S    
C174  H110  1.108744 S    
C223  C224  1.518117 S    
Zn10  O32   1.947560 S    
C163  H83   1.116457 S    
O77   C185  1.416879 S    
C196  H165  1.106701 S    
C65   O69   1.387501 S    
C40   O68   1.383835 S    
C73   C120  1.412784 A    
O38   C60   1.283915 A    
C26   C98   1.411129 A    
C147  C148  1.519285 S    
C170  H99   1.111044 S    
C129  C130  1.401829 A    
C66   C79   1.394656 A    
C172  H105  1.108388 S    
C141  C142  1.519577 S    
O69   C169  1.417313 S    
C214  H211  1.110502 S    
O67   C165  1.412413 S    
C29   O57   1.386855 S    
C11   C111  1.399481 A    
C102  C130  1.417737 A    
O47   C49   1.280859 A    
C138  H20   1.110302 S    
C155  H62   1.107885 S    
C231  H253  1.108043 S    
C80   C113  1.412254 A    
C224  H235  1.108041 S    
O91   C213  1.417454 S    
C56   C114  1.452269 S    
C202  H181  1.110522 S    
C5    C97   1.398593 A    
C34   C37   1.404047 A    
C156  H64   1.109780 S    
C54   C120  1.461530 S    
C191  H152  1.111985 S    
C225  H238  1.111676 S    
C60   C126  1.462664 S    
C143  H32   1.115567 S    
C154  H61   1.109435 S    
C58   C124  1.452670 S    
C226  H240  1.106573 S    
C151  C152  1.521551 S    
C177  H118  1.110374 S    
O25   C53   1.282573 A    
C168  H95   1.110442 S    
O88   C207  1.416768 S    
C225  C226  1.521304 S    
O90   C211  1.412401 S    
C103  C131  1.416174 A    
C78   O82   1.385480 S    
O29   C57   1.279314 A    
C188  H144  1.110777 S    
O59   C149  1.414173 S    
C74   O78   1.384482 S    
C188  H145  1.106896 S    
C149  C150  1.521224 S    
O31   C59   1.283148 A    
C205  H187  1.114566 S    
C1    C17   1.389495 A    
O82   C195  1.412186 S    
C83   C116  1.412242 A    
C166  H90   1.110238 S    
C230  H249  1.110634 S    
C207  H193  1.115712 S    
C221  H228  1.110323 S    
C228  H245  1.107908 S    
O21   C49   1.283266 A    
C67   O71   1.387557 S    
C155  C156  1.521347 S    
C142  H30   1.108644 S    
C135  C136  1.402288 A    
C197  H167  1.109775 S    
C211  H203  1.111670 S    
Zn4   O4    1.950812 S    
C169  C170  1.521153 S    
O100  C231  1.409915 S    
C31   O59   1.385559 S    
C84   C115  1.412280 A    
C27   C99   1.407092 A    
C191  C192  1.520910 S    
O94   C219  1.413182 S    
Zn13  O12   1.938396 S    
C16   C108  1.399242 A    
Zn14  O11   1.938396 S    
C157  C158  1.524475 S    
C222  H231  1.109623 S    
C35   C107  1.410209 A    
C84   O88   1.385785 S    
C8    C20   1.391055 A    
C69   C124  1.410885 A    
C169  H98   1.109895 S    
C189  C190  1.521217 S    
C77   C116  1.411513 A    
C232  H256  1.109822 S    
C7    C19   1.390762 A    
C185  H137  1.114929 S    
C215  H213  1.112888 S    
C39   O67   1.387278 S    
C200  H175  1.107124 S    
O42   C64   1.282429 A    
C170  H101  1.110737 S    
Zn12  O1    1.950812 S    
C178  H119  1.110994 S    
C192  H154  1.110503 S    
C141  H27   1.115853 S    
C209  H197  1.114368 S    
C27   C32   1.409718 A    
O50   C56   1.277368 A    
C110  C134  1.416818 A    
O63   C157  1.417126 S    
C89   C122  1.417504 A    
Zn9   O31   1.947558 S    
C194  H161  1.109807 S    
C192  H156  1.110140 S    
Zn11  O29   1.934733 S    
C5    H5    1.081453 S    
C179  H122  1.110204 S    
C21   C47   1.445144 S    
C94   C125  1.416403 A    
C197  H168  1.111822 S    
C177  C178  1.519343 S    
C8    H8    1.079293 S    
C142  H31   1.110906 S    
C145  H37   1.108775 S    
Zn4   O37   1.946769 S    
Zn11  O10   1.935925 S    
C216  H215  1.109059 S    
C214  H210  1.107795 S    
C219  H223  1.105567 S    
Zn12  O21   1.946769 S    
C229  C230  1.520214 S    
C160  H74   1.110750 S    
C14   H14   1.082326 S    
Zn13  O24   1.937214 S    
O15   C47   1.279680 A    
O33   C61   1.277631 A    
C206  H189  1.110889 S    
Zn14  O23   1.937215 S    
C87   O91   1.385766 S    
C229  H248  1.111934 S    
Zn5   O20   1.938396 S    
O66   C163  1.415698 S    
C175  H113  1.103460 S    
O22   C50   1.282792 A    
O41   C63   1.279854 A    
C68   C125  1.415411 A    
C4    C20   1.392155 A    
Zn3   O18   1.935925 S    
C145  C146  1.521398 S    
C158  H69   1.109330 S    
C108  C136  1.416454 A    
C13   C21   1.391880 A    
C75   O79   1.386448 S    
C183  H132  1.113396 S    
C154  H60   1.110374 S    
C195  H163  1.106457 S    
Zn7   O14   1.939158 S    
Zn3   O38   1.946767 S    
C159  C160  1.520371 S    
C7    H7    1.083746 S    
C64   C122  1.472192 S    
C193  H157  1.116172 S    
C164  H84   1.109530 S    
C62   C128  1.454334 S    
C51   C117  1.455626 S    
C131  C132  1.402825 A    
C190  H151  1.110453 S    
O28   C56   1.280360 A    
C179  C180  1.520389 S    
C186  H139  1.110776 S    
C10   H10   1.084287 S    
C91   C124  1.410857 A    
C204  H185  1.109864 S    
C15   C107  1.397447 A    
Zn10  O27   1.934662 S    
C180  H125  1.108326 S    
C205  C206  1.521432 S    
Zn3   O3    1.950815 S    
C208  H194  1.109149 S    
O61   C153  1.415589 S    
O65   C161  1.415916 S    
O32   C60   1.278450 A    
C88   C89   1.398357 A    
C8    C100  1.398400 A    
C3    C103  1.399570 A    
C142  H29   1.110657 S    
C153  H57   1.109640 S    
C165  H88   1.109401 S    
C31   C103  1.412326 A    
C2    H2    1.082912 S    
C96   C127  1.413055 A    
Zn7   O49   1.937019 S    
C29   C101  1.415323 A    
C40   C112  1.408590 A    
C139  C140  1.522347 S    
C210  H199  1.110890 S    
C78   C115  1.413924 A    
C85   O89   1.388007 S    
C189  H147  1.110471 S    
C198  H170  1.110538 S    
C167  H93   1.111584 S    
C95   O99   1.384954 S    
C24   C46   1.443837 S    
C90   O94   1.387324 S    
C11   C23   1.393799 A    
C162  H80   1.110435 S    
C183  C184  1.522031 S    
C218  H219  1.109635 S    
Zn4   O17   1.935925 S    
C209  H198  1.109772 S    
Zn2   O48   1.947560 S    
C35   C40   1.404970 A    
C150  H50   1.110180 S    
C232  H255  1.104288 S    
C105  C133  1.416698 A    
C148  H44   1.110389 S    
C68   C77   1.394657 A    
C207  H192  1.110610 S    
C178  H121  1.110262 S    
C9    C21   1.392738 A    
C83   C94   1.397300 A    
C181  C182  1.521203 S    
C25   C97   1.410332 A    
C187  H143  1.112387 S    
C71   O75   1.383849 S    
C94   O98   1.385803 S    
C137  H17   1.108948 S    
C11   H11   1.083306 S    
C164  H86   1.110153 S    
C227  C228  1.521357 S    
C12   H12   1.083434 S    
C212  H206  1.110460 S    
O35   C63   1.278725 A    
C191  H153  1.110939 S    
C10   C110  1.396238 A    
C223  H233  1.111492 S    
C230  H251  1.110375 S    
C144  H35   1.108355 S    
C92   O96   1.384351 S    
O85   C201  1.417637 S    
C66   O70   1.386743 S    
C3    H3    1.082090 S    
C229  H247  1.110712 S    
C160  H76   1.110721 S    
C147  H43   1.113227 S    
O49   C55   1.277607 A    
C201  C202  1.521614 S    
C158  H70   1.110811 S    
C152  H54   1.110665 S    
C72   O76   1.387331 S    
C139  H22   1.116770 S    
O99   C229  1.412186 S    
C146  H40   1.110366 S    
C203  H183  1.115198 S    
O83   C197  1.414599 S    
C161  H77   1.108019 S    
O57   C145  1.419424 S    
O53   C137  1.414163 S    
C22   C48   1.444342 S    
C158  H71   1.109914 S    
C225  H237  1.106508 S    
C216  H214  1.110525 S    
C214  H209  1.110856 S    
C138  H19   1.109505 S    
C65   C80   1.394750 A    
Zn5   O40   1.937214 S    
C201  H178  1.110323 S    
C140  H25   1.110706 S    
C176  H114  1.110571 S    
C161  C162  1.520851 S    
C226  H241  1.109805 S    
C194  H159  1.110598 S    
O34   C62   1.277573 A    
C156  H66   1.111584 S    
C151  H53   1.110936 S    
C112  C136  1.417336 A    
C184  H135  1.107569 S    
Zn7   O42   1.947063 S    
C87   C120  1.413421 A    
C159  H73   1.111555 S    
C37   O65   1.384884 S    
C186  H141  1.110137 S    
O9    C41   1.278897 A    
C174  H109  1.110757 S    
C91   O95   1.387400 S    
Zn5   O1    1.945805 S    
C157  H67   1.110554 S    
C208  H196  1.110723 S    
O11   C43   1.278721 A    
C4    C104  1.398650 A    
Zn10  O3    1.949210 S    
C181  H127  1.115016 S    
C107  C135  1.417295 A    
Zn8   O4    1.944445 S    
C13   C105  1.396608 A    
C220  H226  1.109451 S    
O37   C59   1.281483 A    
C89   O93   1.386263 S    
C70   C123  1.410918 A    
C219  H222  1.114209 S    
C34   C106  1.411223 A    
C210  H201  1.109034 S    
C190  H150  1.110535 S    
C172  H104  1.109904 S    
C198  H171  1.110246 S    
C70   O74   1.386526 S    
C204  H184  1.109830 S    
O87   C205  1.418555 S    
C74   C119  1.411837 A    
Zn9   O28   1.934663 S    
C212  H205  1.109125 S    
O72   C175  1.412353 S    
C92   C123  1.411337 A    
C155  H63   1.115419 S    
C30   O58   1.385194 S    
C224  H234  1.109706 S    
O73   C177  1.416925 S    
C38   O66   1.384234 S    
C188  H146  1.110930 S    
C15   C23   1.391903 A    
C183  H133  1.104300 S    
C16   C24   1.390298 A    
O97   C225  1.414627 S    
C204  H186  1.110887 S    
C173  H108  1.109718 S    
C35   O63   1.385242 S    
C75   C118  1.412053 A    
O19   C47   1.277916 A    
C190  H149  1.110023 S    
C209  C210  1.520562 S    
C65   C128  1.410893 A    
O68   C167  1.411798 S    
C213  H207  1.113265 S    
C25   O53   1.387177 S    
C168  H94   1.111038 S    
O55   C141  1.412770 S    
C25   C30   1.406864 A    
C143  C144  1.521073 S    
C26   O54   1.387185 S    
C150  H49   1.110623 S    
