data_mof_unit_59390.cif
_audit_creation_date              2013-03-05T15:58:45-0500
_audit_creation_method            fapswitch 2.2
_symmetry_space_group_name_H-M    P1
_symmetry_Int_Tables_number       1
_space_group_crystal_system       triclinic
_cell_length_a                    7.132726
_cell_length_b                    14.406365
_cell_length_c                    16.080559
_cell_angle_alpha                 90.16784
_cell_angle_beta                  91.131364
_cell_angle_gamma                 90.298424
_cell_volume                      1652.03230749

loop_
_atom_site_label
_atom_site_type_symbol
_atom_site_description
_atom_site_fract_x
_atom_site_fract_y
_atom_site_fract_z
_atom_type_partial_charge
O1    O     O_R   0.494320 0.415010 0.412140 -0.533384
O2    O     O_R   0.824010 0.404260 0.587250 -0.567398
O3    O     O_R   0.994320 0.584990 0.587860 -0.592388
C1    C     C_R   0.655371 0.382225 0.616284 0.963627
O4    O     O_R   0.824040 0.403870 0.412760 -0.498151
O5    O     O_R   0.994350 0.584590 0.412130 -0.566770
C2    C     C_R   0.652194 0.381188 0.383632 1.199864
O6    O     O_R   0.494300 0.415410 0.587870 -0.624136
O7    O     O_3   0.660800 0.559290 0.500000 -0.270035
V1    V     V_3+5 0.935650 0.489000 0.500000 1.369217
O8    O     O_R   0.324060 0.595740 0.412750 -0.516321
C3    C     C_R   0.153972 0.622388 0.387506 1.010589
O9    O     O_R   0.324040 0.596130 0.587240 -0.591109
C4    C     C_R   0.156519 0.617406 0.616050 0.976828
V2    V     V_3+5 0.435660 0.511000 0.500000 1.363968
O10   O     O_3   0.160640 0.440710 0.500000 -0.217762
C5    C     C_3   0.969562 0.707629 0.737261 0.478830
C6    C     C_3   0.082188 0.704111 0.820573 -0.300308
H1    H     H_    0.036896 0.667130 0.877269 0.203870
C7    C     C_3   0.119911 0.810438 0.813003 -0.413801
C8    C     C_3   0.006617 0.812174 0.730234 0.338836
C9    C     C_3   0.184200 0.791730 0.681009 0.270330
C10   C     C_3   0.297945 0.789115 0.762942 0.493331
C11   C     C_3   0.263430 0.683183 0.770190 -0.178840
C12   C     C_3   0.147234 0.686526 0.687096 -0.317964
H2    H     H_    0.371691 0.631061 0.786971 0.171971
C13   C     C_3   0.262591 0.851009 0.258114 -0.387255
H3    H     H_    0.408551 0.851589 0.235511 0.239037
H4    H     H_    0.228845 0.924186 0.273900 0.198350
C14   C     C_3   0.248176 0.790801 0.338373 0.168715
H5    H     H_    0.166894 0.832211 0.383537 0.152846
H6    H     H_    0.369776 0.641356 0.242222 0.300555
C15   C     C_3   0.180725 0.716713 0.158959 0.180613
C16   C     C_3   0.928900 0.804045 0.229203 -0.527616
C17   C     C_3   0.123495 0.815439 0.188429 -0.226720
H7    H     H_    0.821426 0.784471 0.181598 0.228293
H8    H     H_    0.884420 0.872703 0.253880 0.211445
C18   C     C_3   0.141133 0.696887 0.317848 -0.402905
C19   C     C_3   0.218315 0.653765 0.235614 -0.378908
C20   C     C_3   0.934501 0.729830 0.300213 0.961526
H9    H     H_    0.059076 0.686615 0.123401 0.095010
H10   H     H_    0.154712 0.584435 0.223544 0.223612
C21   C     C_3   0.443232 0.260296 0.688359 0.606314
C22   C     C_3   0.444850 0.179223 0.753610 0.271266
H11   H     H_    0.328139 0.190522 0.795934 0.210842
H12   H     H_    0.566743 0.415129 0.781215 0.204972
H13   H     H_    0.501207 0.301884 0.876138 0.215403
C23   C     C_3   0.667636 0.357078 0.774699 -0.304405
C24   C     C_3   0.796627 0.233085 0.678938 0.135662
C25   C     C_3   0.642303 0.309933 0.687135 -0.391499
H14   H     H_    0.768131 0.194650 0.620560 0.198560
C26   C     C_3   0.623794 0.183673 0.810083 -0.306243
C27   C     C_3   0.635135 0.285107 0.845162 -0.489287
C28   C     C_3   0.796663 0.162825 0.753374 0.707440
H15   H     H_    0.806161 0.390927 0.784041 0.189966
H16   H     H_    0.743660 0.292630 0.895023 0.238162
C29   C     C_3   0.504169 0.347068 0.231916 0.415481
C30   C     C_3   0.526870 0.277587 0.155186 0.207211
H17   H     H_    0.388884 0.259248 0.126210 0.147807
C31   C     C_3   0.560213 0.210563 0.340734 0.603142
C32   C     C_3   0.835225 0.297141 0.270104 0.822540
C33   C     C_3   0.633752 0.311503 0.308792 -0.717707
C34   C     C_3   0.627714 0.186734 0.183089 -0.376005
C35   C     C_3   0.554210 0.141372 0.264327 0.143364
C36   C     C_3   0.831536 0.214750 0.204438 -0.514110
H18   H     H_    0.906459 0.231531 0.146622 0.272109
H19   H     H_    0.909158 0.152670 0.227034 0.162417
H20   H     H_    0.653637 0.084114 0.279313 0.143175
O11   O     O_R   0.771990 0.083520 0.910980 -0.543481
O12   O     O_R   0.442180 0.095020 0.086060 -0.615550
O13   O     O_R   0.271950 0.914280 0.086680 -0.566559
C37   C     C_R   0.613222 0.116441 0.113722 1.004533
O14   O     O_R   0.442270 0.094630 0.911580 -0.584913
O15   O     O_R   0.272040 0.913890 0.910940 -0.569558
C38   C     C_R   0.610645 0.114881 0.882055 1.017888
O16   O     O_R   0.771900 0.083910 0.086710 -0.616899
O17   O     O_3   0.605520 0.939610 0.998840 -0.255287
V3    V     V_3+5 0.330640 0.009880 0.998810 1.275931
O18   O     O_R   0.942330 0.902710 0.911540 -0.555041
C39   C     C_R   0.110014 0.880825 0.883148 1.120154
O19   O     O_R   0.942240 0.903100 0.086030 -0.610872
C40   C     C_R   0.111622 0.883125 0.115723 0.967684
V4    V     V_3+5 0.830640 0.987830 0.998780 1.283446
O20   O     O_3   0.105630 0.058150 0.998800 -0.265567
N1    N     N_R   0.430953 0.777658 0.377502 0.257729
O21   O     O_R   0.539854 0.714082 0.349748 -0.305822
O22   O     O_R   0.476528 0.821323 0.445978 -0.316167
N2    N     N_R   0.340203 0.717194 0.102641 0.269047
O23   O     O_R   0.507117 0.741176 0.128698 -0.388187
O24   O     O_R   0.316236 0.690478 0.025777 -0.380625
O25   O     O_3   0.864138 0.774328 0.371472 -0.709070
H21   H     H_    0.855252 0.729440 0.417595 0.355425
O26   O     O_3   0.819763 0.653161 0.278679 -0.621656
H22   H     H_    0.843510 0.634499 0.220497 0.338134
O27   O     O_3   0.310928 0.324028 0.718929 -0.764927
H23   H     H_    0.280166 0.372367 0.677783 0.351688
O28   O     O_3   0.794712 0.665437 0.723349 -0.715990
H24   H     H_    0.717285 0.684634 0.770825 0.350642
N3    N     N_R   0.384981 0.226012 0.604735 0.231559
O29   O     O_R   0.474488 0.159294 0.568361 -0.360373
O30   O     O_R   0.237934 0.259390 0.566937 -0.255419
O31   O     O_3   0.420771 0.090674 0.717522 -0.679791
H25   H     H_    0.288929 0.086198 0.696974 0.355714
O32   O     O_3   0.975435 0.269578 0.668481 -0.659792
H26   H     H_    0.987839 0.325686 0.703143 0.373410
O33   O     O_3   0.777136 0.072072 0.720823 -0.667187
H27   H     H_    0.883595 0.061006 0.683146 0.346392
N4    N     N_R   0.974031 0.167434 0.802334 0.228439
O34   O     O_R   0.028744 0.243650 0.839306 -0.429905
O35   O     O_R   0.067333 0.091533 0.817022 -0.410708
O36   O     O_3   0.870482 0.877642 0.708823 -0.654601
H28   H     H_    0.823544 0.859301 0.652688 0.367449
N5    N     N_R   0.311085 0.346269 0.256602 0.249944
O37   O     O_R   0.244462 0.415228 0.298762 -0.282976
O38   O     O_R   0.200776 0.280742 0.230643 -0.482723
N6    N     N_R   0.543311 0.443908 0.205942 0.269171
O39   O     O_R   0.566977 0.507540 0.262632 -0.362271
O40   O     O_R   0.480611 0.472013 0.133712 -0.279642
O41   O     O_3   0.628430 0.319343 0.090690 -0.657035
H29   H     H_    0.601209 0.284197 0.038539 0.300500
N7    N     N_R   0.375252 0.207231 0.381445 0.279530
O42   O     O_R   0.294891 0.280337 0.410267 -0.260672
O43   O     O_R   0.310072 0.127420 0.406043 -0.295420
O44   O     O_3   0.381313 0.094401 0.253420 -0.722334
H30   H     H_    0.297063 0.131190 0.217462 0.364708
O45   O     O_3   0.963113 0.276982 0.335841 -0.603811
H31   H     H_    0.981627 0.209397 0.342797 0.377312
N8    N     N_R   0.897538 0.384877 0.229286 0.284991
O46   O     O_R   0.912860 0.461502 0.271576 -0.334743
O47   O     O_R   0.944471 0.388331 0.151467 -0.306042
O48   O     O_3   0.238478 0.837927 0.608970 -0.673235
H32   H     H_    0.244448 0.904584 0.624307 0.354713
O49   O     O_3   0.691743 0.178692 0.400686 -0.759800
H33   H     H_    0.656943 0.114713 0.417512 0.371113
O50   O     O_3   0.473535 0.831094 0.775269 -0.672521
H34   H     H_    0.455682 0.897371 0.760916 0.363862

loop_
_geom_bond_atom_site_label_1
_geom_bond_atom_site_label_2
_geom_bond_distance
_ccdc_geom_bond_type
C23   H15   1.106940 S    
C18   C20   1.571443 S    
C34   C36   1.538723 S    
O26   H22   0.990741 S    
C9    O48   1.397961 S    
O12   V3    2.010364 S    
C16   H8    1.114623 S    
O27   H23   0.984605 S    
C20   O26   1.409535 S    
C1    O6    1.320421 A    
C26   C38   1.529863 S    
N8    O46   1.297850 A    
C24   O32   1.390428 S    
O19   C40   1.323664 A    
C29   C33   1.615101 S    
O17   V3    2.211243 S    
N6    O39   1.298960 A    
C15   C19   1.552333 S    
C6    C11   1.569234 S    
C35   H20   1.114431 S    
C15   N2    1.467921 S    
C21   N3    1.482137 S    
C6    H1    1.110000 S    
N1    O21   1.288454 A    
C14   H5    1.112279 S    
C13   H4    1.112306 S    
O33   H27   0.993963 S    
O17   V4    1.746240 S    
V2    O10   2.202896 S    
N4    O34   1.301512 A    
C14   C18   1.580843 S    
C31   C33   1.631156 S    
C16   C17   1.554856 S    
H6    C19   1.099068 S    
O19   V4    2.016970 S    
O8    V2    2.017060 S    
O36   H28   0.991215 S    
N6    O40   1.302747 A    
C24   H14   1.103361 S    
C9    C12   1.540741 S    
C21   O27   1.414177 S    
C10   C11   1.549650 S    
C32   O45   1.414341 S    
O1    V2    2.025196 S    
C19   H10   1.109841 S    
O7    V1    2.211193 S    
C6    C7    1.559374 S    
C37   O16   1.308830 A    
H13   C27   1.113357 S    
O13   C40   1.320723 A    
N2    O23   1.299043 A    
C22   C26   1.552705 S    
C23   C25   1.568339 S    
C20   O25   1.413386 S    
O15   C39   1.317142 A    
O9    C4    1.327089 A    
C13   C14   1.561872 S    
O14   C38   1.331365 A    
C32   C33   1.591421 S    
O16   V4    2.026997 S    
O32   H26   0.983117 S    
C8    O36   1.396126 S    
C17   C40   1.525959 S    
C26   C28   1.577596 S    
O28   H24   0.990617 S    
C29   N6    1.484150 S    
N1    O22   1.301374 A    
C23   C27   1.558020 S    
H12   C23   1.112215 S    
C28   O33   1.412066 S    
O31   H25   0.992300 S    
O50   H34   0.991231 S    
C11   C12   1.559400 S    
O25   H21   0.988184 S    
O4    C2    1.341953 A    
C7    C39   1.517490 S    
C29   N5    1.440794 S    
C13   C17   1.565260 S    
C30   H17   1.110875 S    
C35   O44   1.411235 S    
C5    C8    1.532660 S    
O18   C39   1.327782 A    
C1    C25   1.549684 S    
O2    C1    1.335917 A    
C21   C22   1.572304 S    
C2    C33   1.568052 S    
O11   V4    2.015655 S    
C32   C36   1.586130 S    
V4    O20   2.202897 S    
C7    C10   1.548526 S    
O14   V3    2.033782 S    
C5    C6    1.549532 S    
C7    C8    1.543715 S    
C14   N1    1.449918 S    
N7    O42   1.290922 A    
O3    C4    1.316996 A    
N3    O30   1.297127 A    
N2    O24   1.301259 A    
C36   H18   1.108141 S    
O6    V2    2.015436 S    
O9    V2    2.037201 S    
O49   H33   0.993017 S    
C16   C20   1.566662 S    
O48   H32   0.991244 S    
O2    V1    2.033947 S    
O5    C3    1.327475 A    
C26   C27   1.565968 S    
N5    O37   1.298503 A    
C27   H16   1.108122 S    
C30   C34   1.559592 S    
C22   O31   1.408201 S    
O1    C2    1.319233 A    
C22   H11   1.098108 S    
C11   H2    1.109924 S    
N8    O47   1.302758 A    
O5    V1    2.024115 S    
O41   H29   0.993688 S    
C21   C25   1.586984 S    
C28   N4    1.477921 S    
C36   H19   1.112444 S    
N3    O29   1.300544 A    
C10   O50   1.398299 S    
C31   C35   1.579660 S    
C15   H9    1.114840 S    
O7    V2    1.746748 S    
C5    C12   1.546648 S    
O4    V1    2.010356 S    
O3    V1    2.010656 S    
V1    O10   1.752416 S    
O18   V4    2.037317 S    
C29   C30   1.597779 S    
C18   C19   1.570067 S    
O45   H31   0.989625 S    
C30   O41   1.411055 S    
C15   C17   1.556871 S    
N4    O35   1.302774 A    
O11   C38   1.315438 A    
C32   N8    1.495489 S    
C16   H7    1.107471 S    
C4    C12   1.515962 S    
C3    C18   1.555318 S    
C31   N7    1.484923 S    
N7    O43   1.303458 A    
C34   C35   1.561078 S    
V3    O20   1.752427 S    
C34   C37   1.506047 S    
C24   C25   1.572349 S    
O15   V3    2.010674 S    
C13   H3    1.109468 S    
C9    C10   1.534258 S    
O12   C37   1.324892 A    
C8    C9    1.536180 S    
C5    O28   1.398282 S    
C31   O49   1.411297 S    
O13   V3    2.024196 S    
C24   C28   1.569828 S    
O8    C3    1.330533 A    
O44   H30   0.983751 S    
N5    O38   1.288964 A    
