data_mof_unit_20217.cif
_audit_creation_date              2012-10-26T19:09:31-0400
_audit_creation_method            fapswitch 2.2
_symmetry_space_group_name_H-M    P1
_symmetry_Int_Tables_number       1
_space_group_crystal_system       triclinic
_cell_length_a                    10.828007
_cell_length_b                    9.674417
_cell_length_c                    19.351896
_cell_angle_alpha                 89.912663
_cell_angle_beta                  95.575712
_cell_angle_gamma                 89.910746
_cell_volume                      2017.60453675

loop_
_atom_site_label
_atom_site_type_symbol
_atom_type_description
_atom_site_fract_x
_atom_site_fract_y
_atom_site_fract_z
_atom_type_partial_charge
C1    C     C_R   0.262426 0.500136 0.499206 0.531458
C2    C     C_R   0.065330 0.624425 0.508150 -0.146382
C3    C     C_R   0.871280 0.500505 0.497740 0.034448
C4    C     C_R   0.128207 0.500579 0.497946 0.019379
C5    C     C_R   0.416147 0.074136 0.456028 0.112167
C6    C     C_R   0.584693 0.925684 0.543592 0.123281
C7    C     C_R   0.586996 0.074063 0.542096 0.122390
C8    C     C_R   0.416545 0.925930 0.455744 0.118250
C9    C     C_R   0.584581 0.576706 0.259243 0.227596
C10   C     C_R   0.458624 0.379359 0.745348 0.233913
C11   C     C_R   0.492045 0.629161 0.746155 0.226357
C12   C     C_R   0.737419 0.500024 0.499403 0.550843
C13   C     C_R   0.396517 0.435890 0.251923 0.225287
C14   C     C_R   0.585070 0.570695 0.186408 -0.017954
C15   C     C_R   0.440692 0.384698 0.816672 -0.017295
C16   C     C_R   0.493624 0.630220 0.819045 -0.014002
C17   C     C_R   0.393403 0.433935 0.179053 -0.009877
C18   C     C_R   0.487155 0.502642 0.146503 -0.019260
C19   C     C_R   0.467318 0.507587 0.854187 -0.020344
C20   C     C_R   0.494251 0.502949 0.291819 0.012045
C21   C     C_R   0.483594 0.502254 0.709109 -0.003370
C22   C     C_3   0.646558 0.787786 0.301090 -0.096388
C23   C     C_R   0.471267 0.506064 0.930416 0.341093
C24   C     C_3   0.550263 0.172894 0.727227 -0.111594
C25   C     C_3   0.384696 0.811614 0.697132 -0.103366
C26   C     C_3   0.210246 0.464326 0.294784 -0.143446
C27   C     C_3   0.689963 0.634664 0.151096 -0.366609
C28   C     C_3   0.388898 0.261137 0.852408 -0.368949
C29   C     C_3   0.524458 0.762118 0.859150 -0.363365
C30   C     C_3   0.291968 0.356414 0.135917 -0.361166
C31   C     C_3   0.323280 0.145761 0.404172 -0.318605
C32   C     C_3   0.679177 0.853545 0.594410 -0.320120
C33   C     C_3   0.695748 0.147580 0.581654 -0.337519
C34   C     C_R   0.481977 0.504056 0.070455 0.339997
C35   C     C_3   0.321909 0.854185 0.404852 -0.351356
C36   C     C_R   0.499131 0.500477 0.367879 0.601197
C37   C     C_R   0.495992 0.500191 0.632646 0.565107
C38   C     C_R   0.061873 0.377278 0.486293 -0.140827
C39   C     C_R   0.937477 0.624333 0.508074 -0.134377
C40   C     C_R   0.933956 0.377457 0.485674 -0.137175
Cu1   Cu    Cu3+1 0.500000 0.640660 0.500000 0.915071
Cu2   Cu    Cu3+1 0.500000 0.359340 0.500000 0.940302
H1    H     H_    0.108442 0.280804 0.477445 0.126059
H2    H     H_    0.553682 0.132112 0.780976 0.111619
H3    H     H_    0.318350 0.738455 0.668908 0.130829
H4    H     H_    0.391951 0.902770 0.662975 0.150233
H5    H     H_    0.347440 0.847611 0.745560 0.111487
H6    H     H_    0.244717 0.549558 0.329927 0.101446
H7    H     H_    0.136496 0.409759 0.320004 0.143640
H8    H     H_    0.167456 0.507191 0.244645 0.125466
H9    H     H_    0.733425 0.555306 0.119883 0.151299
H10   H     H_    0.653472 0.719943 0.116420 0.128660
H11   H     H_    0.764980 0.676172 0.188331 0.165505
H12   H     H_    0.890940 0.720954 0.516581 0.123575
H13   H     H_    0.311514 0.294567 0.882236 0.135521
H14   H     H_    0.350262 0.181797 0.815041 0.162625
H15   H     H_    0.462464 0.212540 0.888426 0.141659
H16   H     H_    0.441110 0.800158 0.882425 0.143257
H17   H     H_    0.600163 0.742380 0.900959 0.136603
H18   H     H_    0.556900 0.845958 0.826207 0.160022
H19   H     H_    0.333961 0.279149 0.102801 0.137900
H20   H     H_    0.229080 0.299744 0.167903 0.173258
H21   H     H_    0.234902 0.430049 0.102288 0.139396
H22   H     H_    0.227374 0.116403 0.413556 0.077386
H23   H     H_    0.884512 0.281547 0.475302 0.123448
H24   H     H_    0.325061 0.257327 0.404448 0.232703
H25   H     H_    0.340861 0.116770 0.350574 0.139246
H26   H     H_    0.666839 0.887119 0.648036 0.134885
H27   H     H_    0.674585 0.741864 0.596869 0.210130
H28   H     H_    0.774424 0.879422 0.582092 0.072442
H29   H     H_    0.773914 0.151657 0.548853 0.117502
H30   H     H_    0.673562 0.251064 0.599004 0.193553
H31   H     H_    0.730643 0.096681 0.630791 0.055158
H32   H     H_    0.326275 0.742614 0.403258 0.193059
H33   H     H_    0.226584 0.879858 0.417188 0.097062
H34   H     H_    0.114745 0.721059 0.516937 0.126454
H35   H     H_    0.334047 0.886471 0.350938 0.079137
H36   H     H_    0.711735 0.839428 0.340630 0.146075
H37   H     H_    0.551004 0.805596 0.315795 0.131074
H38   H     H_    0.656285 0.838205 0.250320 0.104732
H39   H     H_    0.637496 0.230108 0.720616 0.101756
H40   H     H_    0.545612 0.082305 0.692277 0.149163
N1    N     N_R   0.500000 0.852070 0.500000 -0.226929
N2    N     N_R   0.500000 0.147930 0.500000 -0.222693
N3    N     N_R   0.558308 0.421621 0.037204 -0.235990
N4    N     N_R   0.394525 0.588067 0.963744 -0.238700
N5    N     N_R   0.553084 0.422753 0.968255 -0.237080
N6    N     N_R   0.399757 0.586988 0.032726 -0.236656
O1    O     O_R   0.319640 0.618740 0.500000 -0.531289
O2    O     O_3   0.443939 0.255338 0.709976 -0.548480
O3    O     O_3   0.503938 0.752810 0.711499 -0.581526
O4    O     O_3   0.305338 0.368869 0.284442 -0.598032
O5    O     O_R   0.680360 0.381260 0.500000 -0.527981
O6    O     O_R   0.680360 0.618740 0.500000 -0.514738
O7    O     O_R   0.319640 0.381260 0.500000 -0.514968
O8    O     O_R   0.499980 0.618820 0.400140 -0.512242
O9    O     O_R   0.500020 0.381180 0.599860 -0.466830
O10   O     O_R   0.500020 0.618820 0.599860 -0.477001
O11   O     O_R   0.499980 0.381180 0.400140 -0.490282
O12   O     O_3   0.677411 0.645853 0.299611 -0.560445

loop_
_geom_bond_atom_site_label_1
_geom_bond_atom_site_label_2
_ccdc_geom_bond_type
C31   H24   S    
Cu1   O1    S    
C35   H32   S    
Cu2   O5    S    
Cu1   Cu2   S    
C14   C18   A    
C19   C23   S    
C24   H39   S    
C37   O9    A    
C28   H14   S    
C28   H15   S    
C31   H25   S    
C35   H33   S    
C22   H37   S    
C10   C15   A    
C26   H8    S    
N4    N6    A    
Cu1   O8    S    
C26   O4    S    
C8    N1    A    
C24   H40   S    
C3    C12   S    
C33   H30   S    
C15   C19   A    
C2    C39   A    
C29   H17   S    
C23   N4    A    
C14   C27   S    
C25   H5    S    
C26   H6    S    
C32   H26   S    
C7    N2    A    
C3    C39   A    
C23   N5    A    
C30   H21   S    
C17   C30   S    
C7    C33   S    
C12   O6    A    
C37   O10   A    
C28   H13   S    
C27   H9    S    
N3    N5    A    
C10   C21   A    
C25   O3    S    
C22   O12   S    
Cu2   O7    S    
Cu2   N2    S    
C22   H36   S    
Cu2   O9    S    
C5    N2    A    
C32   H28   S    
C16   C29   S    
C35   H35   S    
C8    C35   S    
C20   C36   S    
C2    C4    A    
C9    C14   A    
C11   C16   A    
C36   O8    A    
C9    C20   A    
Cu1   O6    S    
C29   H18   S    
C1    O7    A    
C17   C18   A    
C34   N6    A    
C18   C34   S    
C32   H27   S    
C33   H31   S    
C4    C38   A    
C3    C40   A    
C9    O12   S    
C40   H23   S    
C30   H20   S    
C13   O4    S    
C24   H2    S    
C12   O5    A    
C26   H7    S    
C25   H3    S    
C2    H34   S    
C27   H10   S    
C1    O1    A    
C6    N1    A    
C13   C20   A    
C31   H22   S    
C24   O2    S    
C5    C8    A    
C27   H11   S    
C6    C7    A    
C13   C17   A    
C1    C4    S    
C22   H38   S    
C38   H1    S    
Cu2   O11   S    
C38   C40   A    
C15   C28   S    
C16   C19   A    
C11   C21   A    
C36   O11   A    
C33   H29   S    
C39   H12   S    
C11   O3    S    
C21   C37   S    
C29   H16   S    
C10   O2    S    
C6    C32   S    
C30   H19   S    
Cu1   O10   S    
C25   H4    S    
C34   N3    A    
C5    C31   S    
Cu1   N1    S    
