data_mof_unit_62584.cif
_audit_creation_date              2012-12-10T21:02:19-0500
_audit_creation_method            fapswitch 2.2
_symmetry_space_group_name_H-M    P1
_symmetry_Int_Tables_number       1
_space_group_crystal_system       triclinic
_cell_length_a                    15.080125
_cell_length_b                    15.855347
_cell_length_c                    16.832569
_cell_angle_alpha                 89.917833
_cell_angle_beta                  83.62637
_cell_angle_gamma                 90.077123
_cell_volume                      3999.79283127

loop_
_atom_site_label
_atom_site_type_symbol
_atom_type_description
_atom_site_fract_x
_atom_site_fract_y
_atom_site_fract_z
_atom_type_partial_charge
C1    C     C_R   0.500059 0.661077 0.500009 0.897003
C2    C     C_R   0.499923 0.338911 0.500077 0.905783
C3    C     C_R   0.454268 0.044427 0.564058 -0.275438
C4    C     C_R   0.545693 0.955494 0.436801 -0.274881
C5    C     C_R   0.500429 0.086923 0.499478 -0.018175
C6    C     C_R   0.499520 0.913004 0.501359 -0.018996
C7    C     C_R   0.546401 0.042969 0.435521 0.428757
C8    C     C_R   0.453572 0.956935 0.565340 0.428438
C9    C     C_1   0.500039 0.175790 0.499802 0.067254
C10   C     C_1   0.499848 0.824155 0.500895 0.067032
C11   C     C_1   0.500053 0.749375 0.500431 -0.130878
C12   C     C_1   0.499863 0.250585 0.499998 -0.132540
C13   C     C_R   0.039041 0.486868 0.570508 -0.189927
C14   C     C_R   0.960967 0.513331 0.429435 -0.188975
C15   C     C_R   0.095118 0.500303 0.499055 0.007215
C16   C     C_R   0.904892 0.499871 0.500890 0.006241
C17   C     C_R   0.054927 0.513664 0.428056 0.021236
C18   C     C_R   0.945088 0.486578 0.571896 0.020044
C19   C     C_1   0.192977 0.500133 0.499690 0.096424
C20   C     C_1   0.807028 0.499948 0.500274 0.099395
C21   C     C_R   0.486419 0.501353 0.653348 0.889744
C22   C     C_R   0.513580 0.502013 0.346388 0.894770
C23   C     C_R   0.474556 0.506539 0.739748 -0.144855
C24   C     C_R   0.524788 0.523032 0.261637 -0.150144
C25   C     C_R   0.528000 0.455635 0.782403 -0.231570
C26   C     C_R   0.461466 0.576873 0.233946 -0.236912
C27   C     C_R   0.520914 0.460202 0.865027 -0.030450
C28   C     C_R   0.469114 0.601734 0.154678 -0.041927
C29   C     C_R   0.460971 0.517995 0.905175 0.009541
C30   C     C_R   0.540118 0.570790 0.101469 0.021891
C31   C     C_R   0.404283 0.567042 0.863196 0.391792
C32   C     C_R   0.608819 0.523423 0.129980 0.374531
C33   C     C_R   0.411135 0.561680 0.779840 -0.135601
C34   C     C_R   0.600800 0.498405 0.210338 -0.122811
C35   C     C_2   0.462616 0.532390 0.990055 -0.151228
C36   C     C_2   0.532835 0.570927 0.015855 -0.131114
H1    H     H_    0.575044 0.412074 0.751041 0.169836
H2    H     H_    0.405751 0.599923 0.274418 0.178849
H3    H     H_    0.589356 0.590391 0.974053 0.204370
H4    H     H_    0.407193 0.509403 0.031250 0.184698
H5    H     H_    0.418976 0.079214 0.613188 0.198000
H6    H     H_    0.580971 0.920709 0.387660 0.198226
H7    H     H_    0.068631 0.476543 0.625560 0.158477
H8    H     H_    0.931374 0.523662 0.374385 0.160415
N1    N     N_1   0.729450 0.499980 0.500020 -0.080682
N2    N     N_1   0.270550 0.500020 0.499980 -0.082044
O1    O     O_R   0.426350 0.621980 0.500000 -0.603173
O2    O     O_R   0.573650 0.378020 0.500000 -0.598743
O3    O     O_R   0.573690 0.621980 0.499960 -0.607417
O4    O     O_R   0.426310 0.378020 0.500040 -0.606284
O5    O     O_R   0.417630 0.500010 0.615820 -0.617569
O6    O     O_R   0.582370 0.499990 0.384180 -0.615024
O7    O     O_R   0.564960 0.500010 0.615780 -0.602964
O8    O     O_R   0.435040 0.499990 0.384220 -0.606848
Zn1   Zn    Zn3+2 0.401630 0.500000 0.500020 1.005894
Zn2   Zn    Zn3+2 0.598370 0.500000 0.499980 1.011268
C37   C     C_1   0.668189 0.444282 0.238263 0.322451
N3    N     N_1   0.722045 0.401017 0.260577 -0.134275
C38   C     C_1   0.356872 0.616312 0.735963 0.321744
N4    N     N_1   0.313612 0.659993 0.700871 -0.112815
Cl1   Cl    Cl    0.327797 0.638050 0.914848 -0.550172
Cl2   Cl    Cl    0.702146 0.490910 0.063999 -0.576659
C39   C     C_1   0.402181 0.657476 0.128694 0.248544
N5    N     N_1   0.348579 0.702181 0.108096 -0.094161
C40   C     C_1   0.575069 0.404386 0.907392 0.254100
N6    N     N_1   0.618239 0.359245 0.941045 -0.102132
Cl3   Cl    Cl    0.394944 0.904323 0.647323 -0.546215
Cl4   Cl    Cl    0.605064 0.095506 0.353526 -0.553819
C41   C     C_1   0.891077 0.472489 0.647058 0.185243
N7    N     N_1   0.847715 0.461203 0.707288 -0.153341
C42   C     C_1   0.108954 0.527934 0.352931 0.184638
N8    N     N_1   0.152336 0.539381 0.292739 -0.163090

loop_
_geom_bond_atom_site_label_1
_geom_bond_atom_site_label_2
_ccdc_geom_bond_type
N2    Zn1   S    
C6    C10   S    
C34   C37   S    
C15   C19   S    
C31   C33   A    
C15   C17   A    
C27   C40   S    
C14   C16   A    
C21   O7    A    
O3    Zn2   S    
C5    C7    A    
C31   Cl1   S    
C26   C28   A    
C35   C36   D    
C1    C11   S    
C30   C36   S    
C16   C20   S    
C2    C12   S    
O7    Zn2   S    
C18   C41   S    
C28   C30   A    
C35   H4    S    
C19   N2    T    
C32   Cl2   S    
C38   N4    T    
C33   C38   S    
C23   C25   A    
C30   C32   A    
C22   O8    A    
C14   C17   A    
C37   N3    T    
C4    H6    S    
C13   C18   A    
C4    C7    A    
C26   H2    S    
C16   C18   A    
C24   C26   A    
C17   C42   S    
C22   O6    A    
O5    Zn1   S    
C13   C15   A    
C21   C23   S    
C3    H5    S    
C41   N7    T    
C9    C12   T    
C22   C24   S    
C3    C8    A    
C4    C6    A    
C27   C29   A    
C10   C11   T    
C39   N5    T    
C3    C5    A    
C28   C39   S    
O6    Zn2   S    
C13   H7    S    
C21   O5    A    
C42   N8    T    
C8    Cl3   S    
C14   H8    S    
C40   N6    T    
C20   N1    T    
O2    Zn2   S    
O1    Zn1   S    
C29   C35   S    
O8    Zn1   S    
C1    O1    A    
C6    C8    A    
C5    C9    S    
C2    O4    A    
C2    O2    A    
C7    Cl4   S    
C29   C31   A    
C1    O3    A    
C36   H3    S    
C24   C34   A    
O4    Zn1   S    
N1    Zn2   S    
C25   H1    S    
C23   C33   A    
C25   C27   A    
C32   C34   A    
