data_mof_unit_18480.cif
_audit_creation_date              2012-12-11T15:55:59-0500
_audit_creation_method            fapswitch 2.2
_symmetry_space_group_name_H-M    P1
_symmetry_Int_Tables_number       1
_space_group_crystal_system       triclinic
_cell_length_a                    11.082248
_cell_length_b                    11.132227
_cell_length_c                    18.795399
_cell_angle_alpha                 90.809767
_cell_angle_beta                  90.859123
_cell_angle_gamma                 59.209159
_cell_volume                      1991.65741255

loop_
_atom_site_label
_atom_site_type_symbol
_atom_type_description
_atom_site_fract_x
_atom_site_fract_y
_atom_site_fract_z
_atom_type_partial_charge
C1    C     C_R   0.353885 0.777145 0.398374 0.530956
C2    C     C_R   0.236295 0.407019 0.203603 -0.146450
C3    C     C_R   0.237281 0.416016 0.276345 -0.044230
C4    C     C_R   0.385418 0.352199 0.388324 0.539331
C5    C     C_R   0.863722 0.742963 0.370913 -0.113241
C6    C     C_R   0.863180 0.631089 0.336370 -0.088338
C7    C     C_R   0.982829 0.526045 0.304099 -0.110381
C8    C     C_R   0.107387 0.526406 0.309182 0.024189
C9    C     C_R   0.362551 0.328374 0.313675 0.003984
C10   C     C_R   0.850186 0.343178 0.181081 0.022150
C11   C     C_R   0.926591 0.249175 0.234608 -0.025004
C12   C     C_R   0.623073 0.109632 0.167622 0.027332
C13   C     C_R   0.879782 0.267119 0.302832 0.013648
C14   C     C_R   0.667829 0.477626 0.267689 -0.201312
C15   C     C_R   0.715908 0.456353 0.197037 -0.174458
C16   C     C_R   0.713878 0.414809 0.395312 0.559214
C17   C     C_3   0.076593 0.176070 0.255815 -0.279963
C18   C     C_3   0.025909 0.195157 0.332635 -0.259943
C19   C     C_R   0.755227 0.387019 0.321853 0.014147
C20   C     C_R   0.361186 0.842033 0.179139 -0.019964
C21   C     C_R   0.417122 0.904088 0.225866 -0.023143
C22   C     C_R   0.395700 0.907852 0.300212 0.001838
C23   C     C_R   0.354911 0.309078 0.165989 -0.000691
C24   C     C_R   0.242087 0.823675 0.280501 -0.142651
C25   C     C_R   0.285325 0.786395 0.210541 0.237594
C26   C     C_3   0.569212 0.852081 0.246731 -0.290412
C27   C     C_3   0.531100 0.883911 0.323312 -0.280000
C28   C     C_R   0.342966 0.771395 0.603599 0.546438
C29   C     C_R   0.322100 0.850185 0.328928 -0.041627
C30   C     C_R   0.296435 0.303492 0.807459 0.015909
C31   C     C_R   0.401714 0.191310 0.769200 0.044511
C32   C     C_R   0.413712 0.197364 0.697293 0.028377
C33   C     C_R   0.197833 0.420244 0.694739 -0.164638
C34   C     C_R   0.481446 0.225739 0.275984 -0.153166
C35   C     C_R   0.186122 0.413242 0.768906 -0.164237
C36   C     C_3   0.556695 0.110343 0.781853 -0.274427
C37   C     C_3   0.571329 0.116343 0.702523 -0.271419
C38   C     C_R   0.320871 0.318707 0.660034 0.015389
C39   C     C_R   0.858136 0.313647 0.827088 0.015970
C40   C     C_R   0.369237 0.349467 0.594952 0.549183
C41   C     C_R   0.863760 0.418381 0.790182 0.047683
C42   C     C_R   0.854693 0.426828 0.718016 0.030735
C43   C     C_R   0.851924 0.211757 0.712655 -0.164191
C44   C     C_R   0.864293 0.202482 0.787368 -0.163370
C45   C     C_R   0.482580 0.213558 0.202147 -0.019738
C46   C     C_3   0.783919 0.572814 0.801465 -0.278478
C47   C     C_3   0.772735 0.583869 0.721445 -0.271809
C48   C     C_R   0.833940 0.331974 0.678335 0.016840
C49   C     C_R   0.291904 0.865204 0.821241 0.016738
C50   C     C_R   0.180731 0.873707 0.781827 0.034221
C51   C     C_R   0.188392 0.860679 0.708777 0.030200
C52   C     C_R   0.766159 0.375626 0.609173 0.553346
C53   C     C_R   0.405007 0.861897 0.710138 -0.166728
C54   C     C_R   0.399921 0.869362 0.784271 -0.156264
C55   C     C_3   0.111432 0.789863 0.788803 -0.285179
C56   C     C_R   0.103515 0.643877 0.336101 -0.027253
C57   C     C_3   0.120000 0.774411 0.708655 -0.267767
C58   C     C_R   0.306824 0.841999 0.672364 0.017684
C59   C     C_R   0.910529 0.316927 0.111169 0.547568
C60   C     C_R   0.328882 0.290410 0.092834 0.535149
C61   C     C_R   0.307886 0.902910 0.107198 0.542703
C62   C     C_R   0.890217 0.305800 0.902646 0.543721
C63   C     C_R   0.291925 0.284252 0.883531 0.547762
C64   C     C_R   0.894909 0.907161 0.118527 -0.074615
C65   C     C_R   0.272999 0.898903 0.896640 0.541080
C66   C     C_R   0.877262 0.011759 0.165986 -0.064113
C67   C     C_R   0.984377 0.751419 0.369058 -0.106954
C68   C     C_R   0.742680 0.113027 0.189182 -0.124274
C69   C     C_3   0.330697 0.609559 0.132225 -0.114711
C70   C     C_R   0.647297 0.993752 0.124134 -0.067515
C71   C     C_R   0.779772 0.897269 0.098126 -0.153635
Cr1   Cr    Cr6+3 0.601740 0.606840 0.505840 0.992599
Cr2   Cr    Cr6+3 0.291500 0.601560 0.495070 0.999542
Cr3   Cr    Cr6+3 0.606780 0.291630 0.499130 1.000015
Cr4   Cr    Cr6+3 0.062440 0.063060 0.008240 1.016684
Cr5   Cr    Cr6+3 0.062950 0.375000 0.998920 0.998041
Cr6   Cr    Cr6+3 0.374550 0.061770 0.992470 0.993815
H1    H     H_    0.578564 0.156670 0.303955 0.138782
H2    H     H_    0.048697 0.265634 0.365013 0.156676
H3    H     H_    0.144850 0.834507 0.296518 0.126252
H4    H     H_    0.793880 0.810838 0.064891 0.103648
H5    H     H_    0.613050 0.915741 0.232966 0.155265
H6    H     H_    0.639475 0.739609 0.233961 0.139624
H7    H     H_    0.587116 0.797251 0.359568 0.166098
H8    H     H_    0.522456 0.982532 0.342994 0.142450
H9    H     H_    0.117845 0.510484 0.666240 0.124417
H10   H     H_    0.095821 0.496059 0.796027 0.127770
H11   H     H_    0.595244 0.002818 0.801198 0.133098
H12   H     H_    0.771572 0.824053 0.397522 0.101737
H13   H     H_    0.594729 0.170599 0.812830 0.139813
H14   H     H_    0.618906 0.179446 0.688711 0.166146
H15   H     H_    0.985683 0.839774 0.392932 0.117065
H16   H     H_    0.618341 0.012290 0.675953 0.127115
H17   H     H_    0.847045 0.130604 0.682720 0.123135
H18   H     H_    0.874246 0.112006 0.813702 0.131072
H19   H     H_    0.849567 0.612419 0.825094 0.137981
H20   H     H_    0.681378 0.610350 0.827854 0.134591
H21   H     H_    0.663228 0.628316 0.702224 0.167116
H22   H     H_    0.831082 0.630813 0.698583 0.128643
H23   H     H_    0.771923 0.622954 0.332813 0.143547
H24   H     H_    0.492607 0.858357 0.683381 0.122627
H25   H     H_    0.482313 0.875390 0.812574 0.133914
H26   H     H_    0.001963 0.853424 0.808337 0.132167
H27   H     H_    0.998010 0.830662 0.099461 0.177039
H28   H     H_    0.178205 0.689713 0.817277 0.136793
H29   H     H_    0.193192 0.665446 0.691176 0.165729
H30   H     H_    0.015519 0.827721 0.681747 0.128624
H31   H     H_    0.968952 0.012234 0.185130 0.156689
H32   H     H_    0.730077 0.191791 0.226792 0.127735
H33   H     H_    0.199486 0.642549 0.332465 0.171247
H34   H     H_    0.976685 0.447539 0.274083 0.127982
H35   H     H_    0.567437 0.967659 0.115505 0.177215
H36   H     H_    0.139006 0.478559 0.176160 0.162059
H37   H     H_    0.279749 0.564198 0.099561 0.142957
H38   H     H_    0.408243 0.528364 0.168967 0.123434
H39   H     H_    0.386111 0.639520 0.094110 0.110648
H40   H     H_    0.566434 0.567388 0.280570 0.118314
H41   H     H_    0.651107 0.529189 0.156022 0.111926
H42   H     H_    0.131481 0.232300 0.242286 0.143040
H43   H     H_    0.128376 0.068881 0.235477 0.148167
H44   H     H_    0.053566 0.095243 0.358734 0.143918
O1    O     O_R   0.748670 0.497520 0.427970 -0.526470
O2    O     O_R   0.417470 0.174910 0.067830 -0.528108
O3    O     O_R   0.375160 0.946380 0.070880 -0.530492
O4    O     O_R   0.476470 0.723930 0.429450 -0.523919
O5    O     O_R   0.160500 0.919670 0.926690 -0.517931
O6    O     O_R   0.933140 0.190380 0.936050 -0.504916
O7    O     O_R   0.909010 0.403210 0.925030 -0.524184
O8    O     O_R   0.179590 0.361290 0.918480 -0.508656
O9    O     O_R   0.391360 0.170840 0.907510 -0.520356
O10   O     O_R   0.350950 0.942600 0.922260 -0.514577
O11   O     O_3   0.166650 0.166610 0.999880 -0.254824
O12   O     O_R   0.300170 0.471020 0.567120 -0.505339
O13   O     O_R   0.264730 0.744140 0.416740 -0.551395
O14   O     O_R   0.309440 0.472410 0.418220 -0.508056
O15   O     O_R   0.501630 0.260530 0.414310 -0.539535
O16   O     O_R   0.727920 0.305730 0.428950 -0.499710
O17   O     O_R   0.738670 0.496020 0.588600 -0.517632
O18   O     O_R   0.467190 0.722540 0.578350 -0.509287
O19   O     O_R   0.254720 0.742640 0.577370 -0.521182
O20   O     O_3   0.225287 0.724460 0.170755 -0.577679
O21   O     O_R   0.491630 0.259030 0.574940 -0.523735
O22   O     O_R   0.718640 0.304340 0.577850 -0.508501
O23   O     O_3   0.500010 0.500010 0.500020 -0.267524
O24   O     O_R   0.186620 0.923750 0.087000 -0.485909
O25   O     O_R   0.957350 0.194160 0.084660 -0.501090
O26   O     O_R   0.935120 0.407280 0.085350 -0.525686
O27   O     O_R   0.203800 0.365060 0.067090 -0.517563

loop_
_geom_bond_atom_site_label_1
_geom_bond_atom_site_label_2
_ccdc_geom_bond_type
C66   C68   A    
Cr3   O22   S    
C69   H39   S    
C26   H6    S    
C23   C45   A    
C22   C29   A    
C40   O21   A    
Cr5   O11   S    
C41   C42   A    
C16   O16   A    
C28   O19   A    
C5    C67   A    
C8    C56   A    
C7    C8    A    
C39   C41   A    
C53   C54   A    
Cr4   O24   S    
C12   C68   A    
C26   C27   S    
C47   H21   S    
C49   C65   S    
C13   C18   S    
C55   H28   S    
C61   O3    A    
C3    C9    A    
C36   C37   S    
C1    O4    A    
C10   C15   A    
C30   C31   A    
C2    H36   S    
C63   O9    A    
C20   C25   A    
C69   O20   S    
C49   C54   A    
C55   H26   S    
C43   H17   S    
C47   H22   S    
Cr1   O23   S    
Cr6   O10   S    
C64   C71   A    
C20   C61   S    
C27   H8    S    
C61   O24   A    
C24   C29   A    
C16   O1    A    
C17   H43   S    
C35   H10   S    
C24   H3    S    
Cr1   O18   S    
C11   C17   S    
Cr2   O14   S    
Cr5   O26   S    
C53   H24   S    
C18   H2    S    
Cr3   O15   S    
C52   O17   A    
C41   C46   S    
C70   C71   A    
C51   C57   S    
C32   C38   A    
C43   C48   A    
C4    O15   A    
Cr1   O17   S    
C57   H29   S    
Cr3   O21   S    
C26   H5    S    
C21   C22   A    
C27   H7    S    
C28   O18   A    
C12   C70   A    
C56   H33   S    
C65   O10   A    
C21   C26   S    
C50   C51   A    
Cr4   O25   S    
C23   C60   S    
Cr3   O16   S    
C69   H37   S    
C52   O22   A    
C37   H14   S    
C24   C25   A    
C3    C8    S    
C51   C58   A    
C13   C19   A    
Cr6   O9    S    
C36   H11   S    
Cr6   O11   S    
C6    H23   S    
C60   O2    A    
C43   C44   A    
Cr6   O2    S    
Cr5   O8    S    
C31   C32   A    
C14   H40   S    
C1    C29   S    
C17   C18   S    
C37   H16   S    
C34   C45   A    
C42   C48   A    
C32   C37   S    
C20   C21   A    
C6    C7    A    
C70   H35   S    
C4    O14   A    
C30   C35   A    
C57   H30   S    
C46   H20   S    
Cr2   O12   S    
C22   C27   S    
C55   C57   S    
C9    C34   A    
Cr5   O7    S    
C62   O7    A    
C1    O13   A    
Cr4   O11   S    
C36   H13   S    
C64   H27   S    
C39   C62   S    
Cr3   O23   S    
C46   C47   S    
C69   H38   S    
C68   H32   S    
Cr1   O1    S    
C14   C15   A    
C14   C19   A    
C54   H25   S    
C25   O20   S    
C50   C55   S    
C66   H31   S    
C12   C45   S    
C53   C58   A    
C39   C44   A    
Cr2   O19   S    
C28   C58   S    
C56   C67   A    
C40   O12   A    
C33   C38   A    
C15   H41   S    
Cr1   O4    S    
Cr4   O5    S    
C65   O5    A    
C2    C3    A    
C44   H18   S    
C34   H1    S    
C38   C40   S    
C11   C13   A    
C5    C6    A    
C16   C19   S    
C67   H15   S    
C33   C35   A    
C7    H34   S    
C10   C59   S    
Cr4   O6    S    
C42   C47   S    
C63   O8    A    
C10   C11   A    
C17   H42   S    
C18   H44   S    
C59   O25   A    
C62   O6    A    
C48   C52   S    
C46   H19   S    
Cr2   O13   S    
Cr5   O27   S    
C49   C50   A    
C2    C23   A    
Cr6   O3    S    
C31   C36   S    
C60   O27   A    
C4    C9    S    
C30   C63   S    
C33   H9    S    
C5    H12   S    
C64   C66   A    
C71   H4    S    
Cr2   O23   S    
C59   O26   A    
