data_mof_unit_5597.cif
_audit_creation_date              2012-12-11T16:19:12-0500
_audit_creation_method            fapswitch 2.2
_symmetry_space_group_name_H-M    P1
_symmetry_Int_Tables_number       1
_space_group_crystal_system       triclinic
_cell_length_a                    6.91766
_cell_length_b                    31.320796
_cell_length_c                    35.118786
_cell_angle_alpha                 90.001275
_cell_angle_beta                  89.997932
_cell_angle_gamma                 89.999349
_cell_volume                      7609.06857152

loop_
_atom_site_label
_atom_site_type_symbol
_atom_type_description
_atom_site_fract_x
_atom_site_fract_y
_atom_site_fract_z
_atom_type_partial_charge
O1    O     O_R   0.417270 0.211480 0.210950 -0.525348
O2    O     O_R   0.582730 0.788520 0.789050 -0.525348
O3    O     O_R   0.582730 0.788520 0.710950 -0.525351
O4    O     O_R   0.417270 0.211480 0.289050 -0.525351
O5    O     O_R   0.917270 0.288520 0.289050 -0.525353
O6    O     O_R   0.082730 0.711480 0.710950 -0.525352
O7    O     O_R   0.082730 0.711480 0.789050 -0.525344
O8    O     O_R   0.917270 0.288520 0.210950 -0.525344
O9    O     O_R   0.746940 0.206370 0.288750 -0.534382
O10   O     O_R   0.253060 0.793630 0.711250 -0.534382
O11   O     O_R   0.253060 0.793630 0.788750 -0.534386
O12   O     O_R   0.746940 0.206370 0.211250 -0.534386
O13   O     O_R   0.246940 0.293630 0.211250 -0.534383
O14   O     O_R   0.753060 0.706370 0.788750 -0.534383
O15   O     O_R   0.753060 0.706370 0.711250 -0.534379
O16   O     O_R   0.246940 0.293630 0.288750 -0.534380
C1    C     C_R   0.577494 0.195231 0.301455 0.746731
C2    C     C_R   0.422506 0.804769 0.698545 0.746731
C3    C     C_R   0.422501 0.804769 0.801454 0.746746
C4    C     C_R   0.577499 0.195231 0.198546 0.746746
C5    C     C_R   0.077497 0.304768 0.198545 0.746749
C6    C     C_R   0.922503 0.695231 0.801455 0.746749
C7    C     C_R   0.922505 0.695232 0.698543 0.746707
C8    C     C_R   0.077495 0.304768 0.301457 0.746707
O17   O     O_3   0.583760 0.276950 0.250000 -0.338450
O18   O     O_3   0.416240 0.723050 0.750000 -0.338450
O19   O     O_3   0.083760 0.223050 0.250000 -0.338434
O20   O     O_3   0.916240 0.776950 0.750000 -0.338434
V1    V     V_3+5 0.858600 0.245000 0.250000 1.608120
V2    V     V_3+5 0.141400 0.755000 0.750000 1.608120
V3    V     V_3+5 0.358600 0.255000 0.250000 1.608118
V4    V     V_3+5 0.641400 0.745000 0.750000 1.608118
C9    C     C_R   0.963063 0.588256 0.538376 0.634466
C10   C     C_R   0.036937 0.411744 0.461624 0.634466
C11   C     C_R   0.038493 0.411773 0.038368 0.634390
C12   C     C_R   0.961507 0.588227 0.961632 0.634390
C13   C     C_R   0.461602 0.911771 0.961629 0.634386
C14   C     C_R   0.538398 0.088229 0.038371 0.634386
C15   C     C_R   0.538437 0.088228 0.461630 0.634392
C16   C     C_R   0.461563 0.911772 0.538370 0.634391
N1    N     N_R   0.954604 0.573383 0.575070 -0.565682
N2    N     N_R   0.045396 0.426617 0.424930 -0.565682
N3    N     N_R   0.045430 0.426636 0.075083 -0.565591
N4    N     N_R   0.954570 0.573364 0.924917 -0.565591
N5    N     N_R   0.454566 0.926637 0.924915 -0.565602
N6    N     N_R   0.545434 0.073363 0.075084 -0.565602
N7    N     N_R   0.545405 0.073363 0.424916 -0.565596
N8    N     N_R   0.454595 0.926636 0.575084 -0.565596
C17   C     C_R   0.961783 0.530557 0.582666 0.622694
C18   C     C_R   0.038217 0.469443 0.417334 0.622695
C19   C     C_R   0.036749 0.469451 0.082692 0.622586
C20   C     C_R   0.963250 0.530549 0.917308 0.622586
C21   C     C_R   0.463151 0.969453 0.917308 0.622588
C22   C     C_R   0.536849 0.030547 0.082692 0.622589
C23   C     C_R   0.536760 0.030548 0.417307 0.622591
C24   C     C_R   0.463240 0.969452 0.582693 0.622592
C25   C     C_R   0.980423 0.500737 0.552933 -0.078789
C26   C     C_R   0.019577 0.499262 0.447067 -0.078789
C27   C     C_R   0.018012 0.499259 0.052956 -0.078718
C28   C     C_R   0.981988 0.500740 0.947044 -0.078718
C29   C     C_R   0.481886 0.999262 0.947045 -0.078715
C30   C     C_R   0.518114 0.000738 0.052955 -0.078715
C31   C     C_R   0.518032 0.000740 0.447044 -0.078721
C32   C     C_R   0.481968 0.999260 0.552956 -0.078721
C33   C     C_R   0.990143 0.515103 0.515021 -0.053113
C34   C     C_R   0.009857 0.484897 0.484979 -0.053113
C35   C     C_R   0.009884 0.484902 0.015024 -0.053135
C36   C     C_R   0.990116 0.515098 0.984976 -0.053135
C37   C     C_R   0.490117 0.984902 0.984976 -0.053135
C38   C     C_R   0.509883 0.015098 0.015024 -0.053135
C39   C     C_R   0.509877 0.015098 0.484976 -0.053134
C40   C     C_R   0.490123 0.984902 0.515024 -0.053134
C41   C     C_R   0.980327 0.559525 0.507184 -0.107380
C42   C     C_R   0.019673 0.440475 0.492816 -0.107380
C43   C     C_R   0.021346 0.440499 0.007172 -0.107326
C44   C     C_R   0.978654 0.559500 0.992828 -0.107326
C45   C     C_R   0.478758 0.940497 0.992826 -0.107327
C46   C     C_R   0.521242 0.059502 0.007174 -0.107327
C47   C     C_R   0.521299 0.059501 0.492827 -0.107328
C48   C     C_R   0.478701 0.940499 0.507173 -0.107328
C49   C     C_R   0.990446 0.456886 0.560593 -0.143991
C50   C     C_R   0.009554 0.543114 0.439407 -0.143991
C51   C     C_R   0.006313 0.543091 0.060631 -0.143952
C52   C     C_R   0.993687 0.456909 0.939369 -0.143952
C53   C     C_R   0.493480 0.043095 0.939372 -0.143955
C54   C     C_R   0.506520 0.956905 0.060628 -0.143955
C55   C     C_R   0.506373 0.956908 0.439370 -0.143953
C56   C     C_R   0.493627 0.043092 0.560630 -0.143953
C57   C     C_R   0.010042 0.426886 0.531405 0.306698
C58   C     C_R   0.989958 0.573114 0.468595 0.306698
C59   C     C_R   0.986619 0.573080 0.031438 0.306711
C60   C     C_R   0.013381 0.426920 0.968562 0.306711
C61   C     C_R   0.513172 0.073084 0.968566 0.306706
C62   C     C_R   0.486828 0.926916 0.031434 0.306706
C63   C     C_R   0.486691 0.926919 0.468563 0.306711
C64   C     C_R   0.513309 0.073081 0.531437 0.306711
O21   O     O_2   0.957765 0.630706 0.532480 -0.463337
O22   O     O_2   0.042235 0.369293 0.467520 -0.463337
O23   O     O_2   0.045122 0.369332 0.032451 -0.463410
O24   O     O_2   0.954878 0.630668 0.967549 -0.463410
O25   O     O_2   0.455059 0.869329 0.967543 -0.463406
O26   O     O_2   0.544941 0.130671 0.032457 -0.463406
O27   O     O_2   0.545027 0.130668 0.467547 -0.463402
O28   O     O_2   0.454973 0.869331 0.532453 -0.463402
O29   O     O_2   0.950393 0.516791 0.619012 -0.485471
O30   O     O_2   0.049607 0.483209 0.380988 -0.485471
O31   O     O_2   0.046758 0.483219 0.119056 -0.485528
O32   O     O_2   0.953242 0.516781 0.880944 -0.485528
O33   O     O_2   0.453051 0.983222 0.880945 -0.485522
O34   O     O_2   0.546949 0.016778 0.119055 -0.485522
O35   O     O_2   0.546794 0.016780 0.380943 -0.485523
O36   O     O_2   0.453205 0.983220 0.619057 -0.485523
H1    H     H_    0.983589 0.445511 0.589693 0.210538
H2    H     H_    0.016411 0.554488 0.410307 0.210538
H3    H     H_    0.011881 0.554458 0.089746 0.210555
H4    H     H_    0.988119 0.445542 0.910254 0.210555
H5    H     H_    0.487830 0.054463 0.910257 0.210556
H6    H     H_    0.512170 0.945536 0.089743 0.210556
H7    H     H_    0.511961 0.945540 0.410254 0.210556
H8    H     H_    0.488039 0.054460 0.589746 0.210556
C65   C     C_R   0.898936 0.393092 0.368256 -0.101571
C66   C     C_R   0.101064 0.606908 0.631744 -0.101571
C67   C     C_R   0.101152 0.606940 0.868271 -0.101482
C68   C     C_R   0.898848 0.393060 0.131729 -0.101482
C69   C     C_R   0.398864 0.106935 0.131734 -0.101486
C70   C     C_R   0.601136 0.893065 0.868266 -0.101486
C71   C     C_R   0.601174 0.893058 0.631728 -0.101485
C72   C     C_R   0.398826 0.106942 0.368272 -0.101485
H9    H     H_    0.773208 0.413235 0.372177 0.160760
H10   H     H_    0.226792 0.586765 0.627823 0.160760
H11   H     H_    0.226973 0.586830 0.872208 0.160887
H12   H     H_    0.773027 0.413170 0.127792 0.160887
H13   H     H_    0.273053 0.086821 0.127799 0.160880
H14   H     H_    0.726947 0.913178 0.872201 0.160880
H15   H     H_    0.726999 0.913166 0.627789 0.160876
H16   H     H_    0.273001 0.086833 0.372211 0.160877
C73   C     C_R   0.903764 0.364062 0.337893 0.229730
C74   C     C_R   0.096236 0.635938 0.662107 0.229731
C75   C     C_R   0.096308 0.635964 0.837905 0.229650
C76   C     C_R   0.903692 0.364036 0.162095 0.229650
C77   C     C_R   0.403708 0.135959 0.162100 0.229636
C78   C     C_R   0.596292 0.864041 0.837900 0.229636
C79   C     C_R   0.596323 0.864035 0.662094 0.229640
C80   C     C_R   0.403677 0.135965 0.337906 0.229639
C81   C     C_R   0.067101 0.337244 0.332547 -0.116524
C82   C     C_R   0.932899 0.662756 0.667453 -0.116523
C83   C     C_R   0.932893 0.662753 0.832542 -0.116519
C84   C     C_R   0.067107 0.337247 0.167458 -0.116519
C85   C     C_R   0.567113 0.162751 0.167460 -0.116521
C86   C     C_R   0.432887 0.837249 0.832540 -0.116522
C87   C     C_R   0.432903 0.837248 0.667459 -0.116520
C88   C     C_R   0.567097 0.162752 0.332541 -0.116520
C89   C     C_R   0.223443 0.341340 0.358037 -0.188815
C90   C     C_R   0.776557 0.658660 0.641962 -0.188815
C91   C     C_R   0.776469 0.658625 0.858009 -0.188862
C92   C     C_R   0.223531 0.341375 0.141990 -0.188862
C93   C     C_R   0.723531 0.158625 0.141990 -0.188866
C94   C     C_R   0.276469 0.841375 0.858009 -0.188866
C95   C     C_R   0.276478 0.841379 0.641994 -0.188844
C96   C     C_R   0.723522 0.158621 0.358006 -0.188844
H17   H     H_    0.350267 0.321356 0.354991 0.162506
H18   H     H_    0.649733 0.678644 0.645009 0.162506
H19   H     H_    0.649588 0.678588 0.854950 0.162613
H20   H     H_    0.350412 0.321412 0.145049 0.162613
H21   H     H_    0.850406 0.178590 0.145048 0.162598
H22   H     H_    0.149594 0.821410 0.854952 0.162598
H23   H     H_    0.149592 0.821418 0.645055 0.162625
H24   H     H_    0.850408 0.178582 0.354945 0.162625
C97   C     C_R   0.217160 0.370623 0.388195 -0.052976
C98   C     C_R   0.782840 0.629377 0.611805 -0.052976
C99   C     C_R   0.782725 0.629332 0.888158 -0.052861
C100  C     C_R   0.217275 0.370667 0.111842 -0.052861
C101  C     C_R   0.717275 0.129332 0.111842 -0.052868
C102  C     C_R   0.282725 0.870668 0.888158 -0.052868
C103  C     C_R   0.282738 0.870672 0.611846 -0.052863
C104  C     C_R   0.717262 0.129328 0.388154 -0.052863
H25   H     H_    0.339029 0.373039 0.407424 0.146552
H26   H     H_    0.660971 0.626961 0.592576 0.146552
H27   H     H_    0.660756 0.626885 0.907362 0.146688
H28   H     H_    0.339244 0.373115 0.092638 0.146688
H29   H     H_    0.839235 0.126886 0.092636 0.146678
H30   H     H_    0.160765 0.873114 0.907364 0.146678
H31   H     H_    0.160768 0.873123 0.592645 0.146676
H32   H     H_    0.839232 0.126877 0.407355 0.146676
C105  C     C_R   0.054384 0.396604 0.393617 0.307437
C106  C     C_R   0.945616 0.603396 0.606383 0.307437
C107  C     C_R   0.945597 0.603385 0.893607 0.307163
C108  C     C_R   0.054403 0.396615 0.106393 0.307163
C109  C     C_R   0.554410 0.103383 0.106395 0.307176
C110  C     C_R   0.445590 0.896617 0.893605 0.307176
C111  C     C_R   0.445618 0.896616 0.606394 0.307176
C112  C     C_R   0.554382 0.103384 0.393605 0.307176
Br1   Br    Br    0.023179 0.368398 0.548118 -0.302623
Br2   Br    Br    0.976821 0.631602 0.451882 -0.302622
Br3   Br    Br    0.970875 0.631534 0.048174 -0.302618
Br4   Br    Br    0.029125 0.368465 0.951826 -0.302618
Br5   Br    Br    0.528755 0.131542 0.951832 -0.302612
Br6   Br    Br    0.471245 0.868458 0.048168 -0.302613
Br7   Br    Br    0.471002 0.868463 0.451828 -0.302607
Br8   Br    Br    0.528998 0.131537 0.548172 -0.302607
Br9   Br    Br    0.685561 0.364981 0.304122 -0.442918
Br10  Br    Br    0.314439 0.635019 0.695878 -0.442918
Br11  Br    Br    0.314590 0.635065 0.804150 -0.443088
Br12  Br    Br    0.685410 0.364935 0.195850 -0.443088
Br13  Br    Br    0.185445 0.135056 0.195860 -0.443062
Br14  Br    Br    0.814554 0.864943 0.804140 -0.443062
Br15  Br    Br    0.814598 0.864933 0.695848 -0.443104
Br16  Br    Br    0.185403 0.135067 0.304151 -0.443103

loop_
_geom_bond_atom_site_label_1
_geom_bond_atom_site_label_2
_ccdc_geom_bond_type
O17   V3    S    
C88   C96   A    
O18   V4    S    
O12   V1    S    
O19   V1    S    
C28   C52   A    
C37   C45   A    
C10   N2    A    
C78   C86   A    
C99   H27   S    
C76   C84   A    
C56   C64   A    
C77   C85   A    
O15   V4    S    
O16   V3    S    
C93   C101  A    
C30   C54   A    
C75   C83   A    
C73   Br9   S    
C20   C28   A    
C98   H26   S    
O8    V1    S    
C42   C57   A    
C15   N7    A    
C71   H15   S    
C41   C58   A    
C8    C81   S    
C26   C50   A    
C103  C111  A    
C104  C112  A    
C38   C46   A    
C46   C61   A    
C21   O33   S    
C98   C106  A    
C34   C42   A    
C67   C75   A    
C45   C62   A    
O1    V3    S    
C3    C86   S    
C17   C25   A    
C4    C85   S    
C30   C38   A    
O3    C2    A    
N8    C24   A    
C65   C73   A    
N7    C112  S    
C70   C110  A    
C63   Br7   S    
C16   N8    A    
N8    C111  S    
C54   C62   A    
C27   C35   A    
C53   C61   A    
C26   C34   A    
C79   Br15  S    
O11   V2    S    
C69   C77   A    
C102  H30   S    
C23   C31   A    
C16   C48   A    
C56   H8    S    
C11   N3    A    
C97   C105  A    
O9    V1    S    
O4    V3    S    
C49   C57   A    
C100  H28   S    
C96   H24   S    
N7    C23   A    
C101  H29   S    
O16   C8    A    
O7    V2    S    
C95   C103  A    
C12   C44   A    
C85   C93   A    
C96   C104  A    
C78   Br14  S    
O12   C4    A    
O3    V4    S    
C21   C29   A    
C19   O31   S    
C11   O23   S    
N1    C17   A    
C68   H12   S    
C90   H18   S    
O5    V1    S    
C70   C78   A    
O17   V1    S    
C7    C82   S    
O19   V3    S    
C35   C36   A    
C18   C26   A    
C5    C84   S    
C51   H3    S    
O20   V4    S    
C66   C74   A    
C54   H6    S    
C80   C88   A    
C33   C41   A    
C93   H21   S    
C68   C108  A    
C104  H32   S    
C17   O29   S    
C14   C46   A    
C91   H19   S    
C67   H11   S    
C101  C109  A    
C92   C100  A    
C71   C111  A    
C39   C47   A    
C68   C76   A    
C55   C63   A    
C72   C112  A    
C22   O34   S    
C15   C47   A    
C44   C59   A    
C61   Br5   S    
C82   C90   A    
C55   H7    S    
C16   O28   S    
C59   Br3   S    
C73   C81   A    
C52   C60   A    
C58   Br2   S    
N2    C18   A    
O11   C3    A    
N6    C22   A    
C24   C32   A    
O8    C5    A    
O13   C5    A    
C12   O24   S    
C71   C79   A    
O9    C1    A    
C48   C63   A    
C53   H5    S    
C72   C80   A    
C50   H2    S    
C29   C53   A    
C43   C60   A    
C102  C110  A    
O4    C1    A    
N2    C105  S    
C9    C41   A    
O6    V2    S    
C72   H16   S    
C31   C39   A    
O18   V2    S    
C97   H25   S    
C24   O36   S    
C25   C49   A    
O10   V2    S    
C12   N4    A    
C1    C88   S    
C35   C43   A    
N6    C109  S    
C13   N5    A    
C2    C87   S    
C49   H1    S    
C83   C91   A    
C94   H22   S    
C103  H31   S    
C23   O35   S    
C29   C37   A    
C64   Br8   S    
C65   H9    S    
O1    C4    A    
C32   C56   A    
C79   C87   A    
C86   C94   A    
C31   C55   A    
O2    C3    A    
O13   V3    S    
C11   C43   A    
C27   C51   A    
C60   Br4   S    
C94   C102  A    
N4    C20   A    
C69   C109  A    
C15   O27   S    
C36   C44   A    
O7    C6    A    
C51   C59   A    
C69   H13   S    
C50   C58   A    
C99   C107  A    
C74   C82   A    
C28   C36   A    
C9    N1    A    
C39   C40   A    
O14   C6    A    
C76   Br12  S    
C81   C89   A    
O20   V2    S    
C14   O26   S    
C75   Br11  S    
C57   Br1   S    
C92   H20   S    
C13   O25   S    
C74   Br10  S    
C90   C98   A    
N3    C19   A    
O5    C8    A    
C13   C45   A    
N3    C108  S    
O10   C2    A    
C65   C105  A    
C89   H17   S    
O6    C7    A    
O15   C7    A    
C10   O22   S    
C95   H23   S    
N1    C106  S    
C9    O21   S    
C32   C40   A    
C67   C107  A    
C37   C38   A    
C77   Br13  S    
C14   N6    A    
C40   C48   A    
C66   C106  A    
N4    C107  S    
N5    C21   A    
C91   C99   A    
N5    C110  S    
C47   C64   A    
C19   C27   A    
C6    C83   S    
C70   H14   S    
C52   H4    S    
C33   C34   A    
C89   C97   A    
C18   O30   S    
C22   C30   A    
C20   O32   S    
C10   C42   A    
C84   C92   A    
C62   Br6   S    
C80   Br16  S    
O14   V4    S    
C66   H10   S    
C100  C108  A    
C87   C95   A    
O2    V4    S    
C25   C33   A    
