data_mof_unit_24802.cif
_audit_creation_date              2012-12-11T15:54:58-0500
_audit_creation_method            fapswitch 2.2
_symmetry_space_group_name_H-M    P1
_symmetry_Int_Tables_number       1
_space_group_crystal_system       triclinic
_cell_length_a                    17.747033
_cell_length_b                    24.702334
_cell_length_c                    15.031867
_cell_angle_alpha                 90.001087
_cell_angle_beta                  126.671341
_cell_angle_gamma                 90.001383
_cell_volume                      5285.56435107

loop_
_atom_site_label
_atom_site_type_symbol
_atom_type_description
_atom_site_fract_x
_atom_site_fract_y
_atom_site_fract_z
_atom_type_partial_charge
Br1   Br    Br    0.052993 0.821306 0.234802 -0.624023
Br2   Br    Br    0.325960 0.199421 0.853439 -0.503456
Br3   Br    Br    0.804016 0.276458 0.798819 -0.489492
Br4   Br    Br    0.803973 0.723606 0.798623 -0.489451
Br5   Br    Br    0.485451 0.795680 0.100653 -0.393987
Br6   Br    Br    0.485349 0.204343 0.100546 -0.394219
Br7   Br    Br    0.980667 0.300670 0.034900 -0.476424
Br8   Br    Br    0.980611 0.699268 0.034618 -0.476633
Br9   Br    Br    0.052974 0.178749 0.234740 -0.623972
Br10  Br    Br    0.544931 0.322342 0.238245 -0.551145
Br11  Br    Br    0.545033 0.677685 0.238212 -0.550935
Br12  Br    Br    0.570728 0.227715 0.927287 -0.451229
Br13  Br    Br    0.571004 0.772271 0.927758 -0.451099
Br14  Br    Br    0.030541 0.725283 0.826905 -0.476648
Br15  Br    Br    0.030488 0.274783 0.827018 -0.476698
Br16  Br    Br    0.326112 0.800631 0.853543 -0.503332
C1    C     C_R   0.950101 0.847076 0.091243 0.269476
C2    C     C_R   0.160019 0.852456 0.092683 0.048331
C3    C     C_R   0.383000 0.683491 0.997966 0.139863
C4    C     C_R   0.677159 0.999998 0.728925 -0.001739
C5    C     C_R   0.177357 0.499999 0.729514 0.002376
C6    C     C_R   0.053488 0.000029 0.361491 -0.048235
C7    C     C_R   0.447543 0.500042 0.269744 -0.049383
C8    C     C_R   0.254351 0.955250 0.307547 -0.123542
C9    C     C_R   0.254354 0.044749 0.307553 -0.123813
C10   C     C_R   0.754863 0.455165 0.307157 -0.131131
C11   C     C_R   0.754855 0.544830 0.307176 -0.131245
C12   C     C_R   0.016808 0.045584 0.749284 -0.127349
C13   C     C_R   0.674323 0.639045 0.094634 0.057715
C14   C     C_R   0.016948 0.954519 0.749311 -0.128170
C15   C     C_R   0.455901 0.545390 0.697494 -0.134633
C16   C     C_R   0.456006 0.454626 0.697515 -0.134516
C17   C     C_1   0.261472 0.871611 0.957014 0.141934
C18   C     C_1   0.261323 0.128421 0.956881 0.141873
C19   C     C_1   0.729909 0.363130 0.862228 0.135536
C20   C     C_1   0.729638 0.636948 0.861756 0.135302
C21   C     C_1   0.351795 0.839027 0.139145 0.157538
C22   C     C_1   0.351710 0.160970 0.139051 0.157544
C23   C     C_1   0.852500 0.371160 0.051318 0.164644
C24   C     C_R   0.674253 0.360911 0.094638 0.057420
C25   C     C_1   0.852354 0.628712 0.050772 0.164713
C26   C     C_1   0.217182 0.165126 0.206375 0.104520
C27   C     C_1   0.217181 0.834871 0.206346 0.104513
C28   C     C_1   0.719932 0.663338 0.202567 0.100124
C29   C     C_1   0.719762 0.336602 0.202537 0.100194
C30   C     C_R   0.300207 1.000000 0.371927 -0.031220
C31   C     C_R   0.801040 0.499997 0.371296 -0.013657
C32   C     C_R   0.045405 0.000098 0.722372 0.016108
C33   C     C_R   0.442950 0.500017 0.635836 -0.005087
C34   C     C_R   0.138590 0.824337 0.000263 0.084207
C35   C     C_R   0.138525 0.175700 0.000291 0.084512
C36   C     C_R   0.666667 0.342214 0.001748 0.030094
C37   C     C_R   0.950076 0.152920 0.091243 0.269658
C38   C     C_R   0.666758 0.657718 0.001733 0.029860
C39   C     C_3   0.956271 0.998843 0.423312 -0.376570
C40   C     C_3   0.112232 0.949780 0.536131 -0.375777
C41   C     C_3   0.385440 0.551035 0.358848 -0.387608
C42   C     C_3   0.384200 0.449516 0.357902 -0.387367
C43   C     C_3   0.954468 0.999296 0.523093 -0.378142
C44   C     C_3   0.110967 0.949953 0.637360 -0.371311
C45   C     C_3   0.385387 0.551240 0.461264 -0.381498
C46   C     C_3   0.383467 0.449492 0.459877 -0.380950
C47   C     C_3   0.108444 0.051671 0.533381 -0.377072
C48   C     C_R   0.447832 0.347370 0.090976 0.271548
C49   C     C_3   0.539425 0.499666 0.470048 -0.364198
C50   C     C_3   0.058736 0.000077 0.462283 0.343328
C51   C     C_3   0.437791 0.500068 0.360815 0.361219
C52   C     C_3   0.055885 0.000142 0.632637 0.329076
C53   C     C_3   0.436352 0.500039 0.533234 0.349745
C54   C     C_R   0.855939 0.152303 0.907395 -0.176773
C55   C     C_R   0.855970 0.847687 0.907395 -0.176718
C56   C     C_R   0.355117 0.652162 0.907437 -0.189602
C57   C     C_R   0.355078 0.347844 0.907434 -0.189484
C58   C     C_3   0.108469 0.051188 0.635429 -0.372471
C59   C     C_R   0.447874 0.652643 0.090971 0.271346
C60   C     C_3   0.538353 0.499406 0.570523 -0.385367
C61   C     C_3   0.726372 0.212705 0.919744 -0.508140
C62   C     C_3   0.726459 0.787273 0.919849 -0.508301
C63   C     C_3   0.215470 0.715168 0.888093 -0.485159
C64   C     C_3   0.215393 0.284878 0.888124 -0.485141
C65   C     C_3   0.151282 0.758874 0.881641 0.201893
C66   C     C_3   0.151194 0.241176 0.881668 0.201858
C67   C     C_3   0.664300 0.257946 0.911546 0.231790
C68   C     C_3   0.664378 0.742044 0.911677 0.231906
C69   C     C_3   0.348858 0.783643 0.996445 0.517580
C70   C     C_R   0.066455 0.852083 0.907887 -0.114149
C71   C     C_3   0.348751 0.216384 0.996376 0.517555
C72   C     C_3   0.845542 0.284758 0.952802 0.515540
C73   C     C_3   0.845509 0.715220 0.952592 0.515522
C74   C     C_3   0.860392 0.238588 0.113616 -0.419174
C75   C     C_3   0.860576 0.761293 0.113611 -0.418917
C76   C     C_3   0.316609 0.711702 0.095096 -0.496713
C77   C     C_3   0.316587 0.288306 0.095135 -0.496655
C78   C     C_3   0.832098 0.229947 0.995168 0.108147
C79   C     C_3   0.832172 0.770007 0.995137 0.108156
C80   C     C_3   0.318967 0.723524 0.994500 0.112283
C81   C     C_R   0.066387 0.147957 0.907917 -0.114553
C82   C     C_3   0.318896 0.276502 0.994498 0.112343
C83   C     C_3   0.202836 0.787367 0.997456 0.071945
C84   C     C_3   0.202766 0.212664 0.997463 0.071900
C85   C     C_3   0.727242 0.302960 0.997566 0.080471
C86   C     C_3   0.727320 0.696974 0.997519 0.080497
C87   C     C_3   0.291046 0.820812 0.021883 -0.189633
C88   C     C_3   0.290941 0.179209 0.021809 -0.189615
C89   C     C_3   0.788872 0.330825 0.965133 -0.169498
C90   C     C_3   0.788781 0.669141 0.964814 -0.169362
C91   C     C_3   0.236291 0.741010 0.083236 -0.341608
C92   C     C_R   0.586224 0.364407 0.907656 -0.095370
C93   C     C_3   0.236267 0.259007 0.083284 -0.341670
C94   C     C_3   0.793815 0.275812 0.112411 -0.412991
C95   C     C_3   0.794039 0.724043 0.112427 -0.413182
C96   C     C_3   0.459655 0.999999 0.431983 -0.372280
C97   C     C_3   0.421023 0.050882 0.546146 -0.377818
C98   C     C_3   0.960689 0.499991 0.432098 -0.380951
C99   C     C_3   0.921424 0.550896 0.545638 -0.362884
C100  C     C_R   0.732813 0.954439 0.754184 -0.126592
C101  C     C_R   0.732815 0.045558 0.754183 -0.126605
C102  C     C_R   0.232958 0.454436 0.754639 -0.133184
C103  C     C_R   0.586262 0.635554 0.907649 -0.095435
C104  C     C_R   0.232961 0.545563 0.754641 -0.133205
C105  C     C_3   0.563028 0.999999 0.529904 -0.377252
C106  C     C_3   0.525744 0.050772 0.645795 -0.373541
C107  C     C_3   0.063925 0.500009 0.530425 -0.379902
C108  C     C_3   0.025947 0.550767 0.645731 -0.372450
C109  C     C_3   0.421014 0.949116 0.546139 -0.377694
C110  C     C_3   0.921413 0.449104 0.545645 -0.362847
C111  C     C_3   0.397836 0.999999 0.472993 0.344787
C112  C     C_3   0.898511 0.499997 0.472582 0.330192
C113  C     C_3   0.574937 0.999997 0.640851 0.338148
C114  C     C_R   0.159996 0.147556 0.092697 0.048383
C115  C     C_3   0.075299 0.499998 0.641091 0.334784
C116  C     C_3   0.525738 0.949221 0.645780 -0.373614
C117  C     C_3   0.025948 0.449219 0.645701 -0.372509
C118  C     C_R   0.041541 0.045263 0.300943 -0.105786
C119  C     C_R   0.041208 0.954762 0.300824 -0.105134
C120  C     C_R   0.477396 0.545340 0.243982 -0.112600
C121  C     C_R   0.477370 0.454703 0.244012 -0.113078
C122  C     C_R   0.887479 0.815823 0.998354 0.117267
C123  C     C_R   0.887421 0.184156 0.998359 0.117314
C124  C     C_R   0.382934 0.316529 0.997966 0.139640
H1    H     H_    0.919831 0.961855 0.372919 0.171885
H2    H     H_    0.184280 0.950964 0.714387 0.188298
H3    H     H_    0.418190 0.411447 0.359435 0.167456
H4    H     H_    0.421450 0.588709 0.509200 0.162657
H5    H     H_    0.417662 0.411547 0.506906 0.162122
H6    H     H_    0.071236 0.088917 0.485374 0.172756
H7    H     H_    0.181808 0.053787 0.559698 0.171664
H8    H     H_    0.578815 0.535917 0.474336 0.177586
H9    H     H_    0.578224 0.463317 0.473458 0.177470
H10   H     H_    0.074828 0.089177 0.634806 0.163385
H11   H     H_    0.182097 0.051131 0.711902 0.188997
H12   H     H_    0.577342 0.535335 0.623050 0.177356
H13   H     H_    0.078707 0.911571 0.489951 0.172669
H14   H     H_    0.575671 0.462765 0.621322 0.177435
H15   H     H_    0.700867 0.202206 0.834106 0.181631
H16   H     H_    0.700896 0.797792 0.834198 0.181609
H17   H     H_    0.208115 0.716565 0.809523 0.189888
H18   H     H_    0.208008 0.283492 0.809536 0.189887
H19   H     H_    0.717980 0.175487 0.954873 0.222567
H20   H     H_    0.718146 0.824486 0.955063 0.222578
H21   H     H_    0.191276 0.674142 0.891562 0.216345
H22   H     H_    0.191234 0.325906 0.891643 0.216337
H23   H     H_    0.136450 0.789170 0.818253 0.107793
H24   H     H_    0.312025 0.551554 0.281678 0.170431
H25   H     H_    0.136320 0.210890 0.818243 0.107824
H26   H     H_    0.623781 0.274962 0.826258 0.100315
H27   H     H_    0.623716 0.725082 0.826334 0.100272
H28   H     H_    0.812091 0.163928 0.821115 0.167953
H29   H     H_    0.812108 0.836070 0.821111 0.168005
H30   H     H_    0.314336 0.664620 0.821617 0.148331
H31   H     H_    0.314285 0.335383 0.821613 0.148388
H32   H     H_    0.930956 0.257436 0.167288 0.250442
H33   H     H_    0.931150 0.742453 0.167194 0.250441
H34   H     H_    0.382879 0.725606 0.173157 0.240102
H35   H     H_    0.310941 0.449435 0.280429 0.170266
H36   H     H_    0.382850 0.274375 0.173164 0.240163
H37   H     H_    0.860758 0.199903 0.152041 0.206997
H38   H     H_    0.860975 0.799952 0.152134 0.207044
H39   H     H_    0.308430 0.667641 0.103315 0.188222
H40   H     H_    0.308450 0.332365 0.103414 0.188262
H41   H     H_    0.752903 0.251963 0.133064 0.238303
H42   H     H_    0.753230 0.747875 0.133245 0.238261
H43   H     H_    0.177940 0.712387 0.056450 0.251144
H44   H     H_    0.177939 0.287638 0.056542 0.251164
H45   H     H_    0.263209 0.753495 0.167202 0.177681
H46   H     H_    0.915920 0.962836 0.519766 0.170099
H47   H     H_    0.263195 0.246512 0.167247 0.177709
H48   H     H_    0.837727 0.306213 0.178650 0.170018
H49   H     H_    0.837953 0.693592 0.178551 0.170056
H50   H     H_    0.444338 0.963668 0.379691 0.171614
H51   H     H_    0.376588 0.051594 0.575717 0.169645
H52   H     H_    0.945577 0.463652 0.379903 0.165816
H53   H     H_    0.876650 0.551650 0.574732 0.179984
H54   H     H_    0.444344 0.036328 0.379696 0.171630
H55   H     H_    0.406814 0.088627 0.498246 0.164845
H56   H     H_    0.945556 0.536313 0.379856 0.165787
H57   H     H_    0.078532 0.911505 0.637170 0.164006
H58   H     H_    0.907517 0.588641 0.497858 0.164137
H59   H     H_    0.597304 0.036313 0.524446 0.170884
H60   H     H_    0.557591 0.088728 0.642704 0.160310
H61   H     H_    0.098334 0.536329 0.525221 0.164406
H62   H     H_    0.057941 0.588741 0.642990 0.162353
H63   H     H_    0.711656 0.912533 0.739538 0.101795
H64   H     H_    0.711658 0.087464 0.739531 0.101780
H65   H     H_    0.211863 0.412512 0.740106 0.099525
H66   H     H_    0.211870 0.587486 0.740109 0.099526
H67   H     H_    0.597300 0.963686 0.524438 0.170897
H68   H     H_    0.311931 0.552598 0.434692 0.166701
H69   H     H_    0.533114 0.051039 0.724683 0.179293
H70   H     H_    0.098373 0.463710 0.525218 0.164417
H71   H     H_    0.032876 0.551000 0.724349 0.180558
H72   H     H_    0.406789 0.911370 0.498232 0.164834
H73   H     H_    0.376586 0.948409 0.575720 0.169591
H74   H     H_    0.907461 0.411353 0.497864 0.164105
H75   H     H_    0.876668 0.448374 0.574780 0.179997
H76   H     H_    0.557575 0.911268 0.642664 0.160317
H77   H     H_    0.533117 0.948946 0.724673 0.179292
H78   H     H_    0.057920 0.411254 0.642881 0.162356
H79   H     H_    0.309810 0.449252 0.432731 0.166894
H80   H     H_    0.032915 0.448955 0.724341 0.180553
H81   H     H_    0.051558 0.086628 0.327231 0.158150
H82   H     H_    0.050482 0.913382 0.326868 0.157676
H83   H     H_    0.468383 0.586927 0.256423 0.141630
H84   H     H_    0.468423 0.413135 0.256686 0.141811
H85   H     H_    0.264254 0.914943 0.338433 0.125685
H86   H     H_    0.264259 0.085055 0.338452 0.125637
H87   H     H_    0.765828 0.414523 0.337332 0.124523
H88   H     H_    0.765792 0.585463 0.337390 0.124638
H89   H     H_    0.019250 0.087146 0.729989 0.096922
H90   H     H_    0.914608 0.035479 0.518041 0.170596
H91   H     H_    0.019521 0.912997 0.729811 0.097100
H92   H     H_    0.443973 0.587174 0.671394 0.100979
H93   H     H_    0.444284 0.412840 0.671441 0.100876
H94   H     H_    0.027786 0.840583 0.821924 0.139977
H95   H     H_    0.027643 0.159509 0.821977 0.140051
H96   H     H_    0.554740 0.355841 0.821663 0.106293
H97   H     H_    0.554764 0.644120 0.821653 0.106270
H98   H     H_    0.916786 0.034539 0.369857 0.171998
H99   H     H_    0.185994 0.949869 0.563536 0.170800
H100  H     H_    0.420002 0.588869 0.360526 0.167587
N1    N     N_R   0.950530 0.896220 0.057200 -0.072784
N2    N     N_R   0.818150 0.028600 0.792440 -0.040645
N3    N     N_R   0.318150 0.471400 0.792440 -0.038970
N4    N     N_R   0.318150 0.528600 0.792440 -0.038979
N5    N     N_R   0.025710 0.028600 0.207560 -0.036400
N6    N     N_R   0.025710 0.971400 0.207560 -0.036309
N7    N     N_R   0.525710 0.528600 0.207560 -0.031799
N8    N     N_R   0.525710 0.471400 0.207560 -0.031739
N9    N     N_R   0.181850 0.971400 0.207560 -0.041688
N10   N     N_R   0.181850 0.028600 0.207560 -0.041699
N11   N     N_R   0.681850 0.471400 0.207560 -0.046577
N12   N     N_R   0.950530 0.103780 0.057200 -0.072797
N13   N     N_R   0.681850 0.528600 0.207560 -0.046588
N14   N     N_R   0.974290 0.028600 0.792440 -0.042270
N15   N     N_R   0.974290 0.971400 0.792440 -0.042184
N16   N     N_R   0.474290 0.528600 0.792440 -0.041494
N17   N     N_R   0.474290 0.471400 0.792440 -0.041475
N18   N     N_R   0.049470 0.896220 0.942800 -0.058106
N19   N     N_R   0.049470 0.103780 0.942800 -0.058136
N20   N     N_R   0.549470 0.396220 0.942800 -0.049322
N21   N     N_R   0.549470 0.603780 0.942800 -0.049298
N22   N     N_R   0.106670 0.103780 0.057200 -0.063183
N23   N     N_R   0.450530 0.396220 0.057200 -0.080370
N24   N     N_R   0.106670 0.896220 0.057200 -0.063182
N25   N     N_R   0.606670 0.603780 0.057200 -0.058903
N26   N     N_R   0.606670 0.396220 0.057200 -0.058944
N27   N     N_1   0.238767 0.911668 0.907449 -0.075897
N28   N     N_1   0.238597 0.088373 0.907272 -0.075823
N29   N     N_1   0.684106 0.388532 0.781912 -0.076250
N30   N     N_1   0.683690 0.611640 0.781318 -0.076172
N31   N     N_1   0.399971 0.853446 0.230505 -0.067754
N32   N     N_1   0.399902 0.146532 0.230395 -0.067743
N33   N     N_1   0.901804 0.402746 0.118629 -0.071535
N34   N     N_R   0.450530 0.603780 0.057200 -0.080417
N35   N     N_1   0.901616 0.597053 0.117908 -0.071477
N36   N     N_1   0.263461 0.180437 0.297216 -0.057089
N37   N     N_1   0.263439 0.819550 0.297178 -0.057061
N38   N     N_1   0.756436 0.683675 0.288518 -0.034669
N39   N     N_1   0.756190 0.316256 0.288464 -0.034579
N40   N     N_R   0.893330 0.103780 0.942800 -0.066672
N41   N     N_R   0.893330 0.896220 0.942800 -0.066693
N42   N     N_R   0.393330 0.603780 0.942800 -0.066688
N43   N     N_R   0.393330 0.396220 0.942800 -0.066703
N44   N     N_R   0.818150 0.971400 0.792440 -0.040643
Ni1   Ni    Ni4+2 0.065600 0.934400 0.131190 0.257029
Ni2   Ni    Ni4+2 0.065600 0.065600 0.131190 0.256853
Ni3   Ni    Ni4+2 0.565600 0.434400 0.131190 0.265147
Ni4   Ni    Ni4+2 0.565600 0.565600 0.131190 0.265161
Ni5   Ni    Ni4+2 0.934400 0.065600 0.868810 0.234012
Ni6   Ni    Ni4+2 0.934400 0.934400 0.868810 0.234103
Ni7   Ni    Ni4+2 0.434400 0.565600 0.868810 0.224174
Ni8   Ni    Ni4+2 0.434400 0.434400 0.868810 0.224256

loop_
_geom_bond_atom_site_label_1
_geom_bond_atom_site_label_2
_ccdc_geom_bond_type
C35   C81   A    
C83   C87   S    
C92   H96   S    
C42   C46   S    
C39   H1    S    
C39   C43   S    
C13   N25   A    
C61   C78   S    
C40   H99   S    
C42   H35   S    
N34   N42   A    
C2    C34   A    
C76   C80   S    
C4    C113  S    
N43   Ni8   S    
N19   N22   A    
C7    C51   S    
C100  H63   S    
N20   Ni8   S    
C3    C56   A    
C48   N23   A    
C54   N40   A    
C31   C112  S    
C77   H40   S    
C93   H47   S    
N21   N25   A    
C120  H83   S    
C121  H84   S    
C94   H48   S    
N9    N10   A    
C70   H94   S    
C49   C60   S    
C98   H56   S    
C15   N16   A    
C43   H46   S    
N24   Ni1   S    
C18   N28   T    
C8    N9    A    
C12   N14   A    
C36   C92   A    
C63   H21   S    
C5    C104  A    
C74   H32   S    
C69   C80   S    
C45   H68   S    
C11   H88   S    
N11   N13   A    
C13   C38   A    
C60   H12   S    
C52   C58   S    
N3    N4    A    
C81   H95   S    
C107  H70   S    
C34   C83   S    
C9    H86   S    
C84   C88   S    
N23   N43   A    
C75   H33   S    
C53   C60   S    
C76   H34   S    
C116  H77   S    
C104  N4    A    
N2    N44   A    
C6    C50   S    
C96   C111  S    
C22   C88   S    
C104  H66   S    
C110  H74   S    
N25   Ni4   S    
C44   H2    S    
C92   N20   A    
C109  H73   S    
C42   H3    S    
C35   C114  A    
C5    C115  S    
C97   C106  S    
C94   H41   S    
C49   C51   S    
C46   H5    S    
C27   N37   T    
C73   C90   S    
C44   H57   S    
C120  N7    A    
C40   H13   S    
C55   H29   S    
C86   C90   S    
C1    C122  A    
C116  H76   S    
C55   C122  A    
N14   Ni5   S    
C67   C85   S    
C62   C79   S    
C47   H6    S    
C69   C87   S    
N19   Ni5   S    
C105  H59   S    
N41   Ni6   S    
C71   C82   S    
Br5   C69   S    
C101  N2    A    
C23   N33   T    
C99   H53   S    
C74   H37   S    
C1    N1    A    
C84   C93   S    
N9    Ni1   S    
N5    N6    A    
C15   H92   S    
C21   N31   T    
C78   C123  S    
C65   H23   S    
C119  N6    A    
C12   C32   A    
C86   C95   S    
N11   Ni3   S    
C62   C68   S    
C19   N29   T    
C106  H60   S    
N26   Ni3   S    
C47   H7    S    
C4    C101  A    
C67   H26   S    
C109  H72   S    
C7    C121  A    
C74   C78   S    
Br15  C66   S    
C46   C53   S    
C16   H93   S    
C106  C113  S    
C85   C89   S    
C24   C29   S    
C97   H51   S    
C99   H58   S    
C72   C78   S    
C36   C85   S    
N13   Ni4   S    
C117  H80   S    
N23   Ni3   S    
C25   C90   S    
C107  H61   S    
C20   C90   S    
C55   N41   A    
N18   Ni6   S    
C30   C111  S    
C47   C58   S    
C102  H65   S    
C98   H52   S    
C110  C117  S    
C64   C66   S    
N5    Ni2   S    
N1    N41   A    
C4    C100  A    
C121  N8    A    
C109  C116  S    
C103  H97   S    
N2    Ni5   S    
C28   N38   T    
C65   C83   S    
C29   N39   T    
C85   C94   S    
C24   C36   A    
C96   H50   S    
C95   H42   S    
C18   C88   S    
C99   C112  S    
C40   C44   S    
N4    Ni7   S    
C108  H62   S    
C37   N12   A    
C56   H30   S    
C14   H91   S    
C73   C79   S    
C34   C70   A    
C2    N24   A    
C5    C102  A    
C19   C89   S    
C76   H39   S    
C54   H28   S    
C43   C52   S    
C98   C112  S    
C9    N10   A    
C42   C51   S    
C45   H4    S    
C64   H18   S    
Br7   C72   S    
Br13  C68   S    
C10   H87   S    
C76   C91   S    
C64   H22   S    
N16   N17   A    
N10   Ni2   S    
C106  H69   S    
N21   Ni7   S    
Br2   C71   S    
C26   C114  S    
C32   C52   S    
C49   H8    S    
C11   N13   A    
C96   H54   S    
C114  N22   A    
C10   C31   A    
C61   H19   S    
C70   N18   A    
C98   C107  S    
C7    C120  A    
C93   H44   S    
C62   H20   S    
C75   H38   S    
N22   Ni2   S    
C17   N27   T    
C95   H49   S    
C59   N34   A    
Br16  C69   S    
C108  C115  S    
C58   H11   S    
C100  N44   A    
C56   N42   A    
C74   C94   S    
N20   N26   A    
C8    H85   S    
C101  H64   S    
C39   C50   S    
C102  N3    A    
C81   N19   A    
C21   C87   S    
C57   H31   S    
C48   C124  A    
C14   C32   A    
N3    Ni8   S    
C23   C89   S    
C119  H82   S    
C91   H43   S    
C16   N17   A    
C79   C122  S    
C110  C112  S    
C99   C108  S    
C118  N5    A    
C107  C115  S    
Br3   C72   S    
C17   C87   S    
C118  H81   S    
C66   C84   S    
N34   Ni4   S    
C38   C86   S    
Br10  C48   S    
N40   Ni5   S    
C61   C67   S    
C105  C113  S    
N7    Ni4   S    
C115  C117  S    
N12   Ni2   S    
C63   H17   S    
N8    Ni3   S    
N18   N24   A    
N7    N8    A    
C25   N35   T    
C41   C45   S    
C97   C111  S    
C108  H71   S    
C63   C80   S    
Br4   C73   S    
N15   Ni6   S    
C83   C91   S    
C91   H45   S    
C77   H36   S    
C63   C65   S    
C11   C31   A    
C6    C119  A    
C35   C84   S    
C44   C52   S    
C45   C53   S    
C46   H79   S    
C113  C116  S    
N14   N15   A    
C3    C59   A    
N12   N40   A    
C26   N36   T    
C96   C105  S    
C13   C28   S    
C68   H27   S    
Br11  C59   S    
C2    C27   S    
C61   H15   S    
C72   C89   S    
C41   C51   S    
C57   C124  A    
C62   H16   S    
C103  N21   A    
C41   H24   S    
C64   C82   S    
C40   C50   S    
C77   C82   S    
C60   H14   S    
C57   N43   A    
C97   H55   S    
C117  H78   S    
C20   N30   T    
C39   H98   S    
C49   H9    S    
C16   C33   A    
C47   C50   S    
C41   H100  S    
C37   C123  A    
C10   N11   A    
Br6   C71   S    
C110  H75   S    
N44   Ni6   S    
C71   C88   S    
C6    C118  A    
C75   C95   S    
N42   Ni7   S    
C54   C123  A    
Br9   C37   S    
Br1   C1    S    
Br12  C67   S    
C75   C79   S    
C12   H89   S    
C82   C124  S    
C109  C111  S    
C105  H67   S    
C14   N15   A    
C58   H10   S    
N6    Ni1   S    
C33   C53   S    
Br8   C73   S    
C15   C33   A    
Br14  C65   S    
N1    Ni1   S    
C68   C86   S    
C38   C103  A    
C43   H90   S    
C22   N32   T    
C9    C30   A    
N16   Ni7   S    
C3    C80   S    
N17   Ni8   S    
C77   C93   S    
C8    C30   A    
C66   H25   S    
C24   N26   A    
