data_mof_unit_28394.cif
_audit_creation_date              2012-12-11T14:13:27-0500
_audit_creation_method            fapswitch 2.2
_symmetry_space_group_name_H-M    P1
_symmetry_Int_Tables_number       1
_space_group_crystal_system       triclinic
_cell_length_a                    11.599888
_cell_length_b                    18.503128
_cell_length_c                    9.987579
_cell_angle_alpha                 89.905105
_cell_angle_beta                  110.787188
_cell_angle_gamma                 90.100524
_cell_volume                      2004.12937108

loop_
_atom_site_label
_atom_site_type_symbol
_atom_type_description
_atom_site_fract_x
_atom_site_fract_y
_atom_site_fract_z
_atom_type_partial_charge
C1    C     C_R   0.073309 0.646214 0.140304 0.563821
C2    C     C_2   0.590534 0.077605 0.090567 -0.058650
C3    C     C_2   0.600803 0.429140 0.066659 -0.078519
C4    C     C_2   0.408940 0.577579 0.914244 -0.059111
C5    C     C_2   0.456097 0.977485 0.078308 -0.162938
C6    C     C_2   0.476637 0.051369 0.040955 -0.125972
C7    C     C_2   0.527473 0.470030 0.962044 -0.173314
C8    C     C_2   0.513753 0.545361 0.989142 -0.147991
C9    C     C_2   0.012639 0.923044 0.114020 -0.082275
C10   C     C_2   0.990696 0.077968 0.887384 -0.086365
C11   C     C_2   0.989307 0.422581 0.887152 -0.084464
C12   C     C_R   0.926467 0.353868 0.859616 0.560391
C13   C     C_2   0.009523 0.577769 0.112377 -0.084314
C14   C     C_2   0.025564 0.964243 0.010826 -0.143603
C15   C     C_2   0.981441 0.037372 0.993298 -0.135992
C16   C     C_2   0.975103 0.464030 0.989124 -0.142058
C17   C     C_2   0.022293 0.536561 0.009298 -0.141299
C18   C     C_R   0.467722 0.646099 0.442162 0.624371
C19   C     C_R   0.532075 0.353819 0.557709 0.617975
C20   C     C_R   0.531730 0.146390 0.557116 0.624870
C21   C     C_R   0.469112 0.853641 0.442882 0.613025
C22   C     C_R   0.376781 0.645557 0.962616 0.606182
C23   C     C_R   0.926809 0.146302 0.859773 0.561072
C24   C     C_R   0.624861 0.355935 0.034261 0.604272
C25   C     C_R   0.623385 0.144861 0.036962 0.591191
C26   C     C_R   0.352147 0.862318 0.008554 0.567681
C27   C     C_R   0.509939 0.425035 0.484247 0.029538
C28   C     C_R   0.488943 0.574701 0.515062 0.030404
C29   C     C_R   0.494906 0.924946 0.516415 0.037699
C30   C     C_R   0.509817 0.075220 0.483483 0.029875
C31   C     C_R   0.284195 0.414993 0.392012 0.256872
C32   C     C_R   0.714800 0.584144 0.608787 0.256385
C33   C     C_R   0.720540 0.916937 0.593243 0.260205
C34   C     C_R   0.073839 0.853943 0.140465 0.553636
C35   C     C_R   0.283114 0.081322 0.405280 0.256234
C36   C     C_R   0.171041 0.441454 0.388412 -0.122461
C37   C     C_R   0.827768 0.557718 0.611469 -0.123147
C38   C     C_R   0.831115 0.945193 0.591704 -0.130572
C39   C     C_R   0.174480 0.052579 0.412821 -0.130822
C40   C     C_R   0.164868 0.507812 0.449485 -0.141754
C41   C     C_R   0.833371 0.491757 0.548526 -0.141362
C42   C     C_R   0.833333 0.012608 0.532566 -0.143311
C43   C     C_R   0.176705 0.986569 0.479830 -0.143019
C44   C     C_R   0.269108 0.551878 0.502089 0.238350
C45   C     C_R   0.393060 0.455922 0.455958 -0.037774
C46   C     C_R   0.728786 0.447993 0.495360 0.239020
C47   C     C_R   0.727817 0.055653 0.485984 0.239599
C48   C     C_R   0.284363 0.945376 0.526411 0.253602
C49   C     C_R   0.384250 0.528810 0.493414 -0.047796
C50   C     C_R   0.614205 0.470990 0.505251 -0.045459
C51   C     C_R   0.615062 0.030589 0.499211 -0.050174
C52   C     C_R   0.392084 0.969945 0.503374 -0.041496
C53   C     C_R   0.605712 0.543641 0.543750 -0.036574
C54   C     C_R   0.609882 0.957010 0.536231 -0.037279
C55   C     C_R   0.395120 0.042531 0.462069 -0.037267
C56   C     C_2   0.365992 0.939105 0.986243 -0.096655
Cl1   Cl    Cl    0.283746 0.335270 0.296796 -0.494815
Cl2   Cl    Cl    0.715571 0.662748 0.707161 -0.492367
Cl3   Cl    Cl    0.727868 0.835793 0.686979 -0.481296
Cl4   Cl    Cl    0.272354 0.161151 0.306698 -0.500855
Cl5   Cl    Cl    0.249166 0.629006 0.595505 -0.549519
Cl6   Cl    Cl    0.746692 0.371333 0.399586 -0.551435
Cl7   Cl    Cl    0.744090 0.135090 0.396093 -0.543890
Cl8   Cl    Cl    0.284508 0.870150 0.633780 -0.513461
Cr1   Cr    Cr6+3 0.187610 0.750000 0.979860 1.113520
Cr2   Cr    Cr6+3 0.812390 0.250000 0.020140 1.119424
Cr3   Cr    Cr6+3 0.245810 0.750000 0.341640 1.163147
Cr4   Cr    Cr6+3 0.754190 0.250000 0.658360 1.172415
Cr5   Cr    Cr6+3 0.485760 0.750000 0.219910 1.085517
Cr6   Cr    Cr6+3 0.514240 0.250000 0.780090 1.083117
H1    H     H_    0.087746 0.409998 0.340169 0.167028
H2    H     H_    0.521765 0.952242 0.173231 0.154956
H3    H     H_    0.582298 0.571485 0.080591 0.164465
H4    H     H_    0.475105 0.447788 0.857007 0.163760
H5    H     H_    0.664370 0.045393 0.164117 0.136335
H6    H     H_    0.301115 0.964892 0.891398 0.135400
H7    H     H_    0.338582 0.547993 0.830616 0.143736
H8    H     H_    0.655793 0.453597 0.167839 0.150320
H9    H     H_    0.935121 0.056881 0.063856 0.163403
H10   H     H_    0.073042 0.944820 0.941411 0.151654
H11   H     H_    0.072754 0.555346 0.942418 0.159964
H12   H     H_    0.911293 0.588863 0.660503 0.166015
H13   H     H_    0.924100 0.445298 0.055459 0.160631
H14   H     H_    0.031632 0.057179 0.812705 0.096481
H15   H     H_    0.970596 0.943698 0.187772 0.102116
H16   H     H_    0.964522 0.557776 0.183842 0.100121
H17   H     H_    0.034846 0.442502 0.816161 0.101217
H18   H     H_    0.915654 0.914426 0.635028 0.160451
H19   H     H_    0.088757 0.082249 0.369882 0.162676
H20   H     H_    0.077517 0.525747 0.453928 0.141747
H21   H     H_    0.920449 0.473836 0.543287 0.141977
H22   H     H_    0.918801 0.032197 0.524951 0.139526
H23   H     H_    0.094097 0.966963 0.494650 0.135899
H24   H     H_    0.402483 0.080948 0.961643 0.163026
O1    O     O_R   0.267710 0.668200 0.902110 -0.460309
O2    O     O_R   0.883280 0.330790 0.732340 -0.473250
O3    O     O_R   0.883280 0.169210 0.732340 -0.475068
O4    O     O_R   0.116720 0.830790 0.267660 -0.486523
O5    O     O_R   0.366710 0.675440 0.427590 -0.432390
O6    O     O_R   0.633290 0.324560 0.572410 -0.434496
O7    O     O_R   0.633290 0.175440 0.572410 -0.437192
O8    O     O_R   0.366710 0.824560 0.427590 -0.441017
O9    O     O_R   0.534870 0.669390 0.371760 -0.490781
O10   O     O_R   0.465130 0.330610 0.628240 -0.495187
O11   O     O_R   0.465130 0.169390 0.628240 -0.485463
O12   O     O_R   0.732290 0.331800 0.097890 -0.459871
O13   O     O_R   0.534870 0.830610 0.371760 -0.502791
O14   O     O_R   0.453080 0.674480 0.075160 -0.506046
O15   O     O_R   0.546920 0.325520 0.924840 -0.507263
O16   O     O_R   0.546920 0.174480 0.924840 -0.509019
O17   O     O_R   0.453080 0.825520 0.075160 -0.475278
O18   O     O_3   0.306390 0.750000 0.180470 -0.332638
O19   O     O_3   0.693610 0.250000 0.819530 -0.312689
O20   O     O_R   0.732290 0.168200 0.097890 -0.459172
O21   O     O_R   0.267710 0.831800 0.902110 -0.434499
O22   O     O_R   0.099480 0.674460 0.038850 -0.494152
O23   O     O_R   0.900520 0.325540 0.961150 -0.495588
O24   O     O_R   0.900520 0.174460 0.961150 -0.493288
O25   O     O_R   0.099480 0.825540 0.038850 -0.508895
O26   O     O_R   0.116720 0.669210 0.267660 -0.472026

loop_
_geom_bond_atom_site_label_1
_geom_bond_atom_site_label_2
_ccdc_geom_bond_type
C44   C49   A    
C30   C51   A    
C56   H6    S    
Cr2   O19   S    
C22   O1    A    
C5    C56   D    
C32   Cl2   S    
C4    C8    D    
C23   O24   A    
Cr5   O13   S    
C7    C8    S    
C20   C30   S    
Cr4   O2    S    
C46   Cl6   S    
C38   C42   A    
C5    H2    S    
C3    C7    D    
C10   C15   D    
C47   Cl7   S    
C5    C6    S    
Cr5   O18   S    
Cr6   O10   S    
C48   Cl8   S    
C29   C54   A    
C33   C54   A    
C11   C16   D    
C26   O21   A    
Cr6   O16   S    
Cr3   O4    S    
C9    H15   S    
Cr4   O3    S    
C15   H9    S    
C11   H17   S    
C16   C17   S    
C6    H24   S    
Cr2   O23   S    
C13   H16   S    
C41   C46   A    
C1    O22   A    
C14   H10   S    
C19   C27   S    
Cr3   O26   S    
C40   C44   A    
C17   H11   S    
C27   C50   A    
Cr3   O5    S    
Cr4   O19   S    
C18   O9    A    
C27   C45   A    
C33   Cl3   S    
Cr1   O21   S    
C3    C24   S    
C2    C6    D    
Cr2   O12   S    
Cr5   O14   S    
C7    H4    S    
Cr5   O9    S    
Cr6   O19   S    
C50   C53   A    
C35   C55   A    
C11   C12   S    
C36   C40   A    
C18   C28   S    
Cr4   O7    S    
C36   H1    S    
C47   C51   A    
C20   O7    A    
C21   C29   S    
C16   H13   S    
C38   H18   S    
C35   Cl4   S    
C1    O26   A    
C35   C39   A    
C9    C14   D    
Cr4   O6    S    
Cr1   O18   S    
Cr6   O15   S    
C4    C22   S    
C19   O10   A    
C45   C49   A    
C28   C53   A    
Cr1   O25   S    
C32   C37   A    
C21   O13   A    
C25   O16   A    
C21   O8    A    
C23   O3    A    
C31   C45   A    
C9    C34   S    
C44   Cl5   S    
Cr1   O22   S    
C37   H12   S    
C24   O12   A    
C18   O5    A    
C32   C53   A    
C20   O11   A    
C43   C48   A    
C34   O25   A    
Cr2   O20   S    
C41   H21   S    
C31   C36   A    
C24   O15   A    
C34   O4    A    
Cr6   O11   S    
C26   C56   S    
C39   C43   A    
C19   O6    A    
C52   C55   A    
C10   C23   S    
C30   C55   A    
C46   C50   A    
C33   C38   A    
C13   C17   D    
C51   C54   A    
C31   Cl1   S    
C4    H7    S    
C25   O20   A    
Cr5   O17   S    
C22   O14   A    
C10   H14   S    
C8    H3    S    
C43   H23   S    
C28   C49   A    
C2    C25   S    
C42   H22   S    
C42   C47   A    
C37   C41   A    
C12   O23   A    
Cr3   O18   S    
Cr1   O1    S    
C1    C13   S    
Cr2   O24   S    
C14   C15   S    
C12   O2    A    
C40   H20   S    
C48   C52   A    
C3    H8    S    
C26   O17   A    
C39   H19   S    
C2    H5    S    
Cr3   O8    S    
C29   C52   A    
