data_mof_unit_23658.cif
_audit_creation_date              2012-12-10T19:14:23-0500
_audit_creation_method            fapswitch 2.2
_symmetry_space_group_name_H-M    P1
_symmetry_Int_Tables_number       1
_space_group_crystal_system       triclinic
_cell_length_a                    10.675648
_cell_length_b                    9.819545
_cell_length_c                    18.843889
_cell_angle_alpha                 90.388753
_cell_angle_beta                  89.563396
_cell_angle_gamma                 90.43206
_cell_volume                      1975.2467737

loop_
_atom_site_label
_atom_site_type_symbol
_atom_type_description
_atom_site_fract_x
_atom_site_fract_y
_atom_site_fract_z
_atom_type_partial_charge
C1    C     C_R   0.258149 0.499038 0.499482 0.946000
C2    C     C_R   0.629239 0.517887 0.071794 0.206851
C3    C     C_R   0.493829 0.596105 0.827425 -0.248826
C4    C     C_R   0.664363 0.438441 0.807770 -0.262277
C5    C     C_R   0.458780 0.584145 0.756449 0.346551
C6    C     C_R   0.632232 0.427298 0.735945 0.410471
C7    C     C_R   0.529391 0.501387 0.710551 -0.107484
C8    C     C_R   0.596179 0.523760 0.853235 -0.008304
C9    C     C_3   0.070364 0.564459 0.568870 0.194007
C10   C     C_3   0.070352 0.347161 0.490928 0.202479
C11   C     C_3   0.926657 0.547472 0.571818 0.081177
C12   C     C_3   0.926546 0.350115 0.485339 0.079017
C13   C     C_3   0.076444 0.579423 0.434427 -0.722493
C14   C     C_3   0.121688 0.496465 0.499485 -0.145512
C15   C     C_3   0.878670 0.500117 0.497248 -0.136351
C16   C     C_R   0.504778 0.499971 0.365263 0.885385
C17   C     C_3   0.931738 0.595753 0.437101 0.835500
C18   C     C_3   0.392430 0.080681 0.540794 -0.143755
C19   C     C_3   0.389616 0.919160 0.538434 -0.173733
C20   C     C_3   0.490946 0.080935 0.424624 -0.139420
C21   C     C_3   0.494725 0.917961 0.424430 -0.154334
C22   C     C_3   0.617644 0.081824 0.527931 -0.241934
C23   C     C_3   0.615314 0.921034 0.530680 -0.276641
C24   C     C_R   0.742058 0.500226 0.498270 1.056238
C25   C     C_R   0.503260 0.500265 0.634796 0.970099
C26   C     C_R   0.626153 0.595502 0.266207 -0.041292
C27   C     C_R   0.484141 0.407132 0.243812 -0.142065
C28   C     C_R   0.663831 0.596550 0.195168 -0.011205
C29   C     C_R   0.518045 0.406238 0.172051 0.006994
C30   C     C_R   0.608541 0.502141 0.147662 -0.081824
C31   C     C_R   0.536667 0.501680 0.290264 -0.094191
C32   C     C_R   0.622785 0.529059 0.929103 0.335794
H1    H     H_    0.667763 0.666955 0.303451 0.204847
H2    H     H_    0.412535 0.338470 0.263203 0.221193
H3    H     H_    0.303885 0.113003 0.516024 0.129353
H4    H     H_    0.302605 0.890313 0.510171 0.124232
H5    H     H_    0.698913 0.114938 0.494845 0.191466
H6    H     H_    0.699252 0.881655 0.502259 0.230556
H7    H     H_    0.636981 0.125283 0.581185 0.235557
H8    H     H_    0.625655 0.886656 0.586264 0.178975
H9    H     H_    0.574841 0.116816 0.394283 0.190235
H10   H     H_    0.583232 0.888595 0.396593 0.180408
H11   H     H_    0.438280 0.658813 0.862980 0.169054
H12   H     H_    0.742853 0.381568 0.827982 0.165994
H13   H     H_    0.093473 0.675373 0.567508 0.195141
H14   H     H_    0.110342 0.303627 0.441122 0.156204
H15   H     H_    0.901132 0.466711 0.610935 0.165604
H16   H     H_    0.886903 0.285030 0.528302 0.173640
H17   H     H_    0.122617 0.681262 0.432358 0.207142
H18   H     H_    0.105324 0.525991 0.384662 0.201274
N1    N     N_R   0.679716 0.416125 0.032216 -0.156416
N2    N     N_R   0.580599 0.627618 0.039297 -0.142535
N3    N     N_R   0.676635 0.421773 0.961768 -0.159022
N4    N     N_R   0.577536 0.633136 0.969085 -0.158801
N5    N     N_3   0.499750 0.138610 0.498490 -0.120921
N6    N     N_3   0.499750 0.861390 0.498490 -0.139955
O1    O     O_R   0.314910 0.616040 0.499990 -0.651923
O2    O     O_R   0.314910 0.383960 0.499990 -0.628999
O3    O     O_R   0.500100 0.616080 0.398110 -0.620706
O4    O     O_R   0.500100 0.383920 0.398110 -0.632418
O5    O     O_R   0.685320 0.616040 0.499960 -0.560574
O6    O     O_R   0.685320 0.383960 0.499960 -0.619487
O7    O     O_R   0.500130 0.616000 0.601840 -0.632208
O8    O     O_R   0.500130 0.384000 0.601840 -0.584287
Zn1   Zn    Zn3+2 0.500150 0.654960 0.499970 0.957165
Zn2   Zn    Zn3+2 0.500150 0.345040 0.499970 0.963580
O9    O     O_3   0.898129 0.733028 0.449747 -0.730515
H19   H     H_    0.955601 0.774522 0.484963 0.347324
O10   O     O_3   0.880526 0.556686 0.371384 -0.774895
H20   H     H_    0.910983 0.623042 0.335508 0.372386
C33   C     C_2   0.382200 0.141910 0.614842 0.505289
H21   H     H_    0.305112 0.209388 0.627619 0.127606
O11   O     O_2   0.458720 0.117749 0.660838 -0.594168
C34   C     C_2   0.371305 0.856770 0.610679 0.579875
H22   H     H_    0.447662 0.852402 0.648114 0.122370
O12   O     O_2   0.267598 0.817145 0.629249 -0.584026
C35   C     C_2   0.380966 0.138016 0.383824 0.396346
H23   H     H_    0.308516 0.196822 0.409564 0.091623
O13   O     O_2   0.373046 0.118340 0.319987 -0.522200
C36   C     C_2   0.390348 0.854786 0.380058 0.591351
H24   H     H_    0.295918 0.842899 0.400304 0.017904
O14   O     O_2   0.410621 0.821952 0.318400 -0.524457
C37   C     C_2   0.760906 0.696159 0.171365 0.452141
H25   H     H_    0.797010 0.693401 0.117426 0.085429
O15   O     O_2   0.802515 0.782511 0.211955 -0.541926
C38   C     C_2   0.452822 0.309763 0.123129 0.463243
H26   H     H_    0.465378 0.316287 0.066173 0.081148
O16   O     O_2   0.382862 0.221135 0.146052 -0.501532
O17   O     O_3   0.353892 0.648604 0.731470 -0.749954
H27   H     H_    0.314675 0.701980 0.770474 0.361260
O18   O     O_3   0.701373 0.347832 0.689440 -0.770001
H28   H     H_    0.770409 0.304175 0.715611 0.336433
O19   O     O_3   0.122784 0.507791 0.630162 -0.754541
H29   H     H_    0.207691 0.547779 0.635536 0.392030
O20   O     O_3   0.108956 0.260719 0.546020 -0.774216
H30   H     H_    0.061345 0.282761 0.589878 0.367642
O21   O     O_3   0.870467 0.669752 0.594294 -0.757244
H31   H     H_    0.888039 0.679894 0.645736 0.365872
O22   O     O_3   0.883243 0.291732 0.421230 -0.710702
H32   H     H_    0.937667 0.321983 0.381448 0.374812

loop_
_geom_bond_atom_site_label_1
_geom_bond_atom_site_label_2
_ccdc_geom_bond_type
C19   N6    S    
O7    Zn1   S    
C9    H13   S    
O19   H29   S    
C27   C29   A    
C11   H15   S    
O20   H30   S    
C12   H16   S    
O21   H31   S    
C23   N6    S    
C35   H23   S    
C16   C31   S    
C17   O10   S    
C3    H11   S    
C24   O5    A    
C34   O12   D    
C20   C35   S    
C19   H4    S    
C16   O4    A    
C38   O16   D    
C6    O18   S    
C18   C19   S    
C25   O7    A    
C12   O22   S    
C11   C15   S    
O2    Zn2   S    
O22   H32   S    
C23   H8    S    
C10   H14   S    
C18   H3    S    
C4    C8    A    
O4    Zn2   S    
C26   C31   A    
C13   C14   S    
C28   C37   S    
C20   N5    S    
C10   C12   S    
C32   N4    A    
N2    N4    A    
C20   H9    S    
C35   O13   D    
C27   H2    S    
C17   O9    S    
C34   H22   S    
O6    Zn2   S    
C27   C31   A    
O9    H19   S    
C8    C32   S    
C36   O14   D    
C3    C8    A    
C10   C14   S    
O18   H28   S    
C33   O11   D    
C38   H26   S    
C4    H12   S    
C22   H5    S    
C21   H10   S    
N1    N3    A    
C16   O3    A    
O8    Zn2   S    
C9    C14   S    
C29   C30   A    
C1    O1    A    
C26   H1    S    
C37   H25   S    
C12   C15   S    
C9    C11   S    
C29   C38   S    
C22   N5    S    
C2    N2    A    
C18   N5    S    
C13   H17   S    
C4    C6    A    
C15   C24   S    
C37   O15   D    
C9    O19   S    
C32   N3    A    
N5    Zn2   S    
C5    C7    A    
C18   C33   S    
C15   C17   S    
C24   O6    A    
C19   C34   S    
O1    Zn1   S    
C36   H24   S    
C3    C5    A    
C21   N6    S    
C6    C7    A    
C23   H6    S    
C26   C28   A    
C7    C25   S    
C13   C17   S    
C2    C30   S    
C28   C30   A    
C33   H21   S    
C1    O2    A    
O3    Zn1   S    
C10   O20   S    
C22   H7    S    
C21   C36   S    
O10   H20   S    
C5    O17   S    
C2    N1    A    
C13   H18   S    
O5    Zn1   S    
C20   C21   S    
C22   C23   S    
C1    C14   S    
O17   H27   S    
C25   O8    A    
C11   O21   S    
N6    Zn1   S    
