data_mof_unit_11510.cif
_audit_creation_date              2012-12-11T17:00:20-0500
_audit_creation_method            fapswitch 2.2
_symmetry_space_group_name_H-M    P1
_symmetry_Int_Tables_number       1
_space_group_crystal_system       triclinic
_cell_length_a                    6.958374
_cell_length_b                    13.643252
_cell_length_c                    20.204921
_cell_angle_alpha                 102.918124
_cell_angle_beta                  90.8019
_cell_angle_gamma                 89.449007
_cell_volume                      1869.37921923

loop_
_atom_site_label
_atom_site_type_symbol
_atom_type_description
_atom_site_fract_x
_atom_site_fract_y
_atom_site_fract_z
_atom_type_partial_charge
O1    O     O_R   0.506770 0.599700 0.449550 -0.540347
O2    O     O_R   0.179980 0.595740 0.587960 -0.545788
O3    O     O_R   0.004580 0.400300 0.550450 -0.538778
C1    C     C_R   0.348321 0.616672 0.615465 0.694087
O4    O     O_R   0.177380 0.611700 0.452380 -0.541292
O5    O     O_R   0.001970 0.416370 0.413900 -0.541256
C2    C     C_R   0.343396 0.637911 0.435170 0.695618
O6    O     O_R   0.509390 0.583630 0.586100 -0.538095
O7    O     O_3   0.337530 0.435890 0.487530 -0.369706
V1    V     V_3+5 0.064660 0.511890 0.502310 1.409962
O8    O     O_R   0.671950 0.404260 0.412040 -0.542303
C3    C     C_R   0.840538 0.384889 0.384256 0.697743
O9    O     O_R   0.674540 0.388300 0.547620 -0.540464
C4    C     C_R   0.844973 0.361455 0.563913 0.696101
V2    V     V_3+5 0.564030 0.488110 0.497690 1.411164
O10   O     O_3   0.841030 0.564110 0.512470 -0.372006
C5    C     C_R   0.935213 0.114664 0.611591 -0.158975
H1    H     H_    0.930496 0.164666 0.518182 0.101558
H2    H     H_    0.981026 0.992313 0.695737 0.124151
H3    H     H_    0.973942 0.038393 0.586488 0.109230
C6    C     C_R   0.859449 0.284641 0.603707 -0.030769
C7    C     C_R   0.805173 0.313537 0.930020 -0.166942
C8    C     C_R   0.779594 0.388344 0.894010 -0.117702
C9    C     C_R   0.799019 0.366383 0.823682 -0.158048
C10   C     C_R   0.845971 0.267847 0.787288 0.077280
C11   C     C_R   0.875609 0.191915 0.824793 0.069112
C12   C     C_R   0.864011 0.242045 0.715082 0.072563
C13   C     C_R   0.913630 0.141623 0.682347 0.143817
C14   C     C_R   0.942980 0.068928 0.720344 -0.208090
C15   C     C_R   0.924424 0.093520 0.790375 -0.200476
C16   C     C_R   0.835598 0.312444 0.673995 -0.216425
C17   C     C_R   0.909858 0.186065 0.572581 -0.173747
C18   C     C_R   0.853505 0.215734 0.896187 -0.075122
H4    H     H_    0.798375 0.389933 0.694834 0.090372
H5    H     H_    0.786428 0.331837 0.984575 0.099060
H6    H     H_    0.775981 0.428400 0.799568 0.103884
H7    H     H_    0.742759 0.464002 0.920768 0.113537
H8    H     H_    0.949644 0.034470 0.817438 0.119416
C19   C     C_R   0.727180 0.178265 0.230338 0.121747
C20   C     C_R   0.869211 0.185617 0.183672 -0.145179
C21   C     C_R   0.018192 0.254834 0.207571 -0.186004
H9    H     H_    0.135813 0.262395 0.174680 0.126701
C22   C     C_R   0.010544 0.319434 0.273065 -0.175471
H10   H     H_    0.122500 0.374638 0.288470 0.122862
C23   C     C_R   0.853557 0.316618 0.316361 -0.109981
C24   C     C_R   0.718763 0.241612 0.293958 0.063488
C25   C     C_3   0.505153 0.240077 0.295634 -0.409415
C26   C     C_3   0.514262 0.167049 0.226009 -0.053937
H11   H     H_    0.442026 0.314323 0.293357 0.148726
H12   H     H_    0.450844 0.207397 0.337431 0.176374
H13   H     H_    0.449457 0.198308 0.184489 0.115719
C27   C     C_R   0.502263 0.753792 0.704370 0.098724
C28   C     C_R   0.351634 0.686568 0.683229 -0.112969
C29   C     C_R   0.194856 0.691605 0.727484 -0.171241
H14   H     H_    0.075293 0.641008 0.713272 0.129534
C30   C     C_R   0.196702 0.756770 0.792373 -0.187805
H15   H     H_    0.079220 0.754526 0.826374 0.131294
C31   C     C_R   0.355839 0.818449 0.815071 -0.114227
C32   C     C_R   0.504682 0.817746 0.768803 0.117734
C33   C     C_3   0.714588 0.801455 0.777581 -0.407702
C34   C     C_3   0.711721 0.732198 0.707416 -0.408330
H16   H     H_    0.745301 0.761547 0.818910 0.168459
H17   H     H_    0.798520 0.870993 0.780084 0.170352
H18   H     H_    0.740895 0.652113 0.707946 0.164154
H19   H     H_    0.793411 0.761992 0.669364 0.174644
C35   C     C_R   0.160949 0.860102 0.375639 -0.161808
H20   H     H_    0.187053 0.821521 0.472152 0.105880
H21   H     H_    0.030880 0.953935 0.283142 0.121505
H22   H     H_    0.074309 0.926111 0.396098 0.110985
C36   C     C_R   0.334806 0.714074 0.394320 -0.042449
C37   C     C_R   0.478738 0.692662 0.073011 -0.153508
C38   C     C_R   0.521738 0.621297 0.110461 -0.123731
C39   C     C_R   0.465900 0.636527 0.177872 -0.156374
C40   C     C_R   0.357199 0.722355 0.208700 0.073632
C41   C     C_R   0.295413 0.789724 0.167510 0.071853
C42   C     C_R   0.313686 0.745660 0.279522 0.060209
C43   C     C_R   0.198669 0.831814 0.306071 0.145572
C44   C     C_R   0.121697 0.889483 0.263142 -0.217145
C45   C     C_R   0.169468 0.869142 0.195004 -0.221121
C46   C     C_R   0.381203 0.687403 0.325286 -0.222406
C47   C     C_R   0.228245 0.801692 0.419268 -0.162494
C48   C     C_R   0.368820 0.778148 0.100893 -0.086718
H23   H     H_    0.460323 0.618216 0.308486 0.099966
H24   H     H_    0.535669 0.682348 0.022235 0.107117
H25   H     H_    0.510591 0.579814 0.204428 0.105179
H26   H     H_    0.606213 0.555532 0.087913 0.115122
H27   H     H_    0.111136 0.919005 0.165126 0.143288
O11   O     O_R   0.203450 0.916320 0.913910 -0.541293
O12   O     O_R   0.535520 0.888300 0.047620 -0.538784
O13   O     O_R   0.710860 0.083650 0.086100 -0.539987
C49   C     C_R   0.368219 0.860824 0.064273 0.672875
O14   O     O_R   0.532860 0.904250 0.912040 -0.541646
O15   O     O_R   0.708190 0.099710 0.949550 -0.536432
C50   C     C_R   0.364202 0.883128 0.884611 0.700086
O16   O     O_R   0.206120 0.900260 0.050460 -0.544353
O17   O     O_3   0.375280 0.064080 0.012470 -0.371425
V3    V     V_3+5 0.648180 0.988110 0.997690 1.408797
O18   O     O_R   0.038220 0.111740 0.952370 -0.539897
C51   C     C_R   0.867826 0.138393 0.935943 0.690712
O19   O     O_R   0.040880 0.095790 0.087940 -0.547245
C52   C     C_R   0.872926 0.118272 0.114879 0.689575
V4    V     V_3+5 0.148800 0.011950 0.002300 1.396364
O20   O     O_3   0.871820 0.935920 0.987530 -0.371366
C53   C     C_3   0.446613 0.060066 0.226070 -0.290595
C54   C     C_3   0.578032 0.001704 0.265794 -0.724855
H28   H     H_    0.720441 0.988149 0.241319 0.210758
H29   H     H_    0.596272 0.043056 0.319376 0.217455
H30   H     H_    0.516829 0.927355 0.265686 0.227395
H31   H     H_    0.299699 0.065536 0.247316 0.182523
H32   H     H_    0.437733 0.017358 0.172660 0.178211

loop_
_geom_bond_atom_site_label_1
_geom_bond_atom_site_label_2
_ccdc_geom_bond_type
O17   V4    S    
C1    C28   S    
C39   C40   A    
C1    O6    A    
C2    C36   S    
C45   H27   S    
C25   H11   S    
C43   C44   A    
C7    H5    S    
C54   H29   S    
C9    H6    S    
C40   C42   A    
C33   H17   S    
C4    C6    S    
C13   C14   A    
H20   C47   S    
C27   C34   S    
O5    C3    A    
C53   H31   S    
C35   H22   S    
V2    O10   S    
C26   C53   S    
C5    H3    S    
C30   H15   S    
C15   H8    S    
C33   H16   S    
C21   H9    S    
C7    C18   A    
C36   C47   A    
C20   C52   S    
C29   H14   S    
O8    V2    S    
C26   H13   S    
C8    C9    A    
O1    V2    S    
O12   C49   A    
O7    V1    S    
O15   C51   A    
O13   V3    S    
O16   V4    S    
C37   C48   A    
C32   C33   S    
O9    C4    A    
C21   C22   A    
C46   H23   S    
O19   V4    S    
C53   C54   S    
C54   H30   S    
O14   V3    S    
C25   H12   S    
C29   C30   A    
H21   C44   S    
C6    C17   A    
O11   C50   A    
C40   C41   A    
C12   C16   A    
C42   C43   A    
C19   C20   A    
O4    C2    A    
C44   C45   A    
C3    C23   S    
C10   C11   A    
O18   V4    S    
C36   C46   A    
C48   C49   S    
O12   V3    S    
C33   C34   S    
C18   C51   S    
C34   H18   S    
O2    C1    A    
C22   H10   S    
O13   C52   A    
C14   C15   A    
C27   C32   A    
C8    H7    S    
C6    C16   A    
C11   C18   A    
O11   V4    S    
C25   C26   S    
O17   V3    S    
O14   C50   A    
C16   H4    S    
C9    C10   A    
C22   C23   A    
C39   H25   S    
V3    O20   S    
O3    C4    A    
C19   C24   A    
C20   C21   A    
C11   C15   A    
O6    V2    S    
O9    V2    S    
H1    C17   S    
O2    V1    S    
O15   V3    S    
C27   C28   A    
C37   H24   S    
C31   C50   S    
C35   C43   A    
C24   C25   S    
O1    C2    A    
C5    C13   A    
C42   C46   A    
C38   C39   A    
O5    V1    S    
C38   H26   S    
O8    C3    A    
C41   C48   A    
C28   C29   A    
C10   C12   A    
C54   H28   S    
C31   C32   A    
O4    V1    S    
O3    V1    S    
V1    O10   S    
C35   C47   A    
C53   H32   S    
O19   C52   A    
C30   C31   A    
C34   H19   S    
O7    V2    S    
V4    O20   S    
C49   O16   A    
C23   C24   A    
C37   C38   A    
O18   C51   A    
C12   C13   A    
C5    C17   A    
C7    C8    A    
C41   C45   A    
C19   C26   S    
H2    C14   S    
