data_mof_unit_9806.cif
_audit_creation_date              2013-03-05T15:49:18-0500
_audit_creation_method            fapswitch 2.2
_symmetry_space_group_name_H-M    P1
_symmetry_Int_Tables_number       1
_space_group_crystal_system       triclinic
_cell_length_a                    10.67608
_cell_length_b                    12.06928
_cell_length_c                    12.842574
_cell_angle_alpha                 92.908395
_cell_angle_beta                  90.822724
_cell_angle_gamma                 85.466504
_cell_volume                      1647.40783737

loop_
_atom_site_label
_atom_site_type_symbol
_atom_site_description
_atom_site_fract_x
_atom_site_fract_y
_atom_site_fract_z
_atom_type_partial_charge
O1    O     O_R   0.506170 0.421690 0.658830 -0.662622
O2    O     O_R   0.491330 0.609320 0.646410 -0.582639
C1    C     C_R   0.497210 0.521633 0.700109 0.840613
O3    O     O_R   0.690660 0.406170 0.506210 -0.605733
O4    O     O_R   0.675810 0.593790 0.493790 -0.561663
C2    C     C_R   0.739598 0.499745 0.503282 0.959640
Zn1   Zn    Zn3+2 0.509910 0.374720 0.508290 0.993346
Zn2   Zn    Zn3+2 0.490090 0.625280 0.491710 1.087325
O5    O     O_R   0.508670 0.390680 0.353590 -0.606049
O6    O     O_R   0.493830 0.578310 0.341170 -0.573916
O7    O     O_R   0.324190 0.406210 0.506210 -0.632596
O8    O     O_R   0.309340 0.593830 0.493790 -0.578762
C3    C     C_R   0.504563 0.477713 0.299797 0.978977
C4    C     C_R   0.260735 0.500939 0.503158 0.875941
C5    C     C_R   0.883503 0.400259 0.673967 -0.232587
H1    H     H_    0.782948 0.396290 0.676554 0.163053
C6    C     C_R   0.955265 0.355264 0.756478 0.375031
C7    C     C_R   0.084565 0.365811 0.759948 -0.184311
C8    C     C_R   0.142314 0.415710 0.680197 -0.217514
H2    H     H_    0.242406 0.422814 0.687278 0.163433
C9    C     C_R   0.071933 0.455816 0.593985 0.106912
C10   C     C_R   0.941177 0.450782 0.591428 0.021110
C11   C     C_R   0.872545 0.498746 0.507047 -0.178551
C12   C     C_R   0.931651 0.550726 0.427406 0.306070
C13   C     C_R   0.059914 0.550964 0.429928 -0.216511
C14   C     C_R   0.128693 0.503190 0.510627 -0.141611
C15   C     C_R   0.513514 0.462231 0.188526 -0.174518
C16   C     C_R   0.490311 0.533758 0.811067 -0.043472
C17   C     C_R   0.400749 0.624412 0.966618 -0.123664
C18   C     C_R   0.416839 0.622096 0.859637 -0.135488
C19   C     C_R   0.549840 0.449550 0.868040 -0.217956
C20   C     C_R   0.535799 0.451754 0.974356 0.099392
C21   C     C_R   0.460063 0.539343 0.023951 0.160633
C22   C     C_R   0.446163 0.541185 0.130236 -0.241152
C23   C     C_R   0.588292 0.372869 0.139529 0.313223
C24   C     C_R   0.596457 0.367638 0.031466 -0.198054
H3    H     H_    0.342505 0.692011 0.004299 0.194389
H4    H     H_    0.654143 0.300465 0.992554 0.230566
N1    N     N_R   0.523130 0.207800 0.519340 -0.114684
N2    N     N_R   0.476870 0.792180 0.480660 -0.211751
C25   C     C_R   0.410228 0.956624 0.387038 -0.293133
C26   C     C_R   0.415415 0.841117 0.397408 0.428228
C27   C     C_R   0.536339 0.858678 0.553430 0.340867
C28   C     C_R   0.533735 0.976480 0.543827 -0.021386
C29   C     C_R   0.468755 0.024877 0.459531 -0.029212
C30   C     C_R   0.464011 0.141142 0.448821 0.074847
C31   C     C_R   0.588386 0.162754 0.601032 0.027194
C32   C     C_R   0.595004 0.047534 0.614894 -0.168827
H5    H     H_    0.360159 0.992933 0.321391 0.207321
N3    N     N_R   0.863623 0.600940 0.341981 0.225113
O9    O     O_R   0.899299 0.691933 0.305513 -0.310392
O10   O     O_R   0.778860 0.548153 0.290728 -0.362564
H6    H     H_    0.368958 0.686537 0.814684 0.188361
H7    H     H_    0.606032 0.381640 0.829094 0.194359
H8    H     H_    0.412622 0.178720 0.384585 0.136277
H9    H     H_    0.634801 0.216597 0.656396 0.171523
H10   H     H_    0.647722 0.015195 0.680815 0.217692
N4    N     N_R   0.356963 0.776828 0.317035 0.218399
O11   O     O_R   0.371705 0.801000 0.220556 -0.402555
O12   O     O_R   0.260654 0.723832 0.339561 -0.388674
N5    N     N_R   0.602909 0.809046 0.638675 0.219259
O13   O     O_R   0.556377 0.823253 0.731890 -0.386556
O14   O     O_R   0.720528 0.773949 0.627852 -0.358966
N6    N     N_R   0.897220 0.297865 0.835959 0.205368
O15   O     O_R   0.796991 0.246115 0.814470 -0.445959
O16   O     O_R   0.951447 0.286600 0.926649 -0.341553
H11   H     H_    0.141602 0.333675 0.823719 0.190389
H12   H     H_    0.106754 0.584587 0.365828 0.226623
H13   H     H_    0.383194 0.604578 0.168062 0.231211
N7    N     N_R   0.658972 0.289551 0.197125 0.225350
O17   O     O_R   0.666122 0.186137 0.162238 -0.334043
O18   O     O_R   0.733405 0.318536 0.273072 -0.318408

loop_
_geom_bond_atom_site_label_1
_geom_bond_atom_site_label_2
_geom_bond_distance
_ccdc_geom_bond_type
C30   H8    1.082999 S    
C5    H1    1.079441 S    
O4    Zn2   1.989192 S    
N3    O10   1.299824 A    
C9    C14   1.405593 A    
N2    C27   1.381316 A    
C5    C6    1.405008 A    
N7    O17   1.301364 A    
C25   C26   1.403817 A    
N3    O9    1.301514 A    
C19   C20   1.374396 A    
Zn2   O8    1.996707 S    
C15   C23   1.416321 A    
N6    O15   1.300378 A    
C26   N4    1.426065 S    
C16   C18   1.398374 A    
O2    C1    1.289143 A    
C7    H11   1.082837 S    
C32   H10   1.082102 S    
C6    N6    1.436541 S    
C28   C32   1.410105 A    
C25   C29   1.386580 A    
C9    C10   1.401918 A    
C20   C21   1.410083 A    
Zn1   O7    1.989192 S    
C22   H13   1.078742 S    
C17   C18   1.385653 A    
C13   H12   1.081769 S    
C27   C28   1.431393 A    
N1    C30   1.362246 A    
C2    C11   1.418600 S    
C20   C24   1.394985 A    
N2    C26   1.380257 A    
C1    C16   1.427443 S    
C8    C9    1.413408 A    
O8    C4    1.283785 A    
C21   C22   1.374002 A    
O1    C1    1.289776 A    
C5    C10   1.420651 A    
C15   C22   1.390715 A    
C12   N3    1.439920 S    
O4    C2    1.287026 A    
Zn2   O6    1.986987 S    
C18   H6    1.083390 S    
O2    Zn2   2.005522 S    
N4    O11   1.301790 A    
O3    C2    1.283767 A    
C17   H3    1.083916 S    
N5    O13   1.300797 A    
C11   C12   1.408580 A    
N4    O12   1.296646 A    
C24   H4    1.084021 S    
C31   C32   1.407034 A    
C17   C21   1.399227 A    
C19   H7    1.082185 S    
O5    C3    1.283776 A    
C12   C13   1.369497 A    
C27   N5    1.428058 S    
C6    C7    1.396134 A    
C7    C8    1.389697 A    
C25   H5    1.084480 S    
O7    C4    1.284127 A    
Zn1   O5    2.005521 S    
Zn1   N1    2.020438 S    
C10   C11   1.421318 A    
C3    C15   1.435303 S    
O1    Zn1   1.986986 S    
N7    O18   1.300865 A    
Zn2   N2    2.020200 S    
O3    Zn1   1.996709 S    
C13   C14   1.384768 A    
C29   C30   1.413749 A    
N1    C31   1.363323 A    
O6    C3    1.297631 A    
C16   C19   1.390027 A    
C4    C14   1.412355 S    
C28   C29   1.404631 A    
C8    H2    1.080927 S    
C23   N7    1.437785 S    
C31   H9    1.080412 S    
N5    O14   1.300191 A    
C23   C24   1.389714 A    
N6    O16   1.301696 A    
