data_mof_unit_20063.cif
_audit_creation_date              2012-12-10T18:57:10-0500
_audit_creation_method            fapswitch 2.2
_symmetry_space_group_name_H-M    P1
_symmetry_Int_Tables_number       1
_space_group_crystal_system       triclinic
_cell_length_a                    8.751508
_cell_length_b                    10.870009
_cell_length_c                    9.591904
_cell_angle_alpha                 90.441164
_cell_angle_beta                  97.695104
_cell_angle_gamma                 91.285016
_cell_volume                      903.970696946

loop_
_atom_site_label
_atom_site_type_symbol
_atom_type_description
_atom_site_fract_x
_atom_site_fract_y
_atom_site_fract_z
_atom_type_partial_charge
C1    C     C_R   0.505572 0.262423 0.499718 0.813442
C2    C     C_R   0.576266 0.932706 0.396624 -0.243312
C3    C     C_R   0.516314 0.870329 0.504912 -0.140086
C4    C     C_R   0.479603 0.937683 0.619237 0.036753
C5    C     C_3   0.337716 0.930763 0.690217 -0.481225
C6    C     C_3   0.340000 0.070851 0.687697 0.252942
C7    C     C_R   0.619627 0.555338 0.088237 0.139719
C8    C     C_R   0.388018 0.437996 0.057439 0.548454
C9    C     C_R   0.389215 0.438818 0.910138 0.008852
C10   C     C_R   0.617043 0.556411 0.940433 0.164488
C11   C     C_3   0.660956 0.688740 0.936528 0.132418
C12   C     C_R   0.204513 0.492938 0.464236 0.729823
C13   C     C_3   0.668340 0.689614 0.096243 0.257409
C14   C     C_R   0.501753 0.737361 0.500940 0.839113
C15   C     C_R   0.795862 0.498262 0.535696 0.941320
C16   C     C_2   0.039089 0.473871 0.445819 0.305483
C17   C     C_2   0.961898 0.501992 0.553266 -0.349750
C18   C     C_R   0.482447 0.064632 0.616920 0.040969
C19   C     C_R   0.521478 0.129009 0.500613 -0.236627
C20   C     C_R   0.580044 0.061270 0.392241 0.329799
Cu1   Cu    Cu3+1 0.499990 0.499980 0.640670 0.983316
Cu2   Cu    Cu3+1 0.500010 0.500020 0.359330 1.064254
H1    H     H_    0.298779 0.390038 0.842102 0.190396
H2    H     H_    0.568356 0.747307 0.883331 0.080427
H3    H     H_    0.579662 0.748860 0.132329 0.031736
H4    H     H_    0.021130 0.534176 0.654297 0.144280
H5    H     H_    0.616073 0.881110 0.312896 0.217579
H6    H     H_    0.237391 0.888289 0.621853 0.187234
H7    H     H_    0.360411 0.891471 0.797431 0.208310
H8    H     H_    0.240062 0.110804 0.620742 0.138421
N1    N     N_R   0.500980 0.500930 0.148050 -0.268772
N2    N     N_R   0.500990 0.500890 0.852140 -0.265665
O1    O     O_R   0.500000 0.319640 0.618810 -0.555348
O2    O     O_R   0.500020 0.319680 0.381230 -0.550110
O3    O     O_R   0.274830 0.499980 0.591380 -0.612571
O4    O     O_R   0.274850 0.500020 0.353800 -0.575701
O5    O     O_R   0.499980 0.680320 0.618770 -0.602139
O6    O     O_R   0.500000 0.680360 0.381190 -0.588656
O7    O     O_R   0.725150 0.499980 0.646200 -0.591057
O8    O     O_R   0.725170 0.500020 0.408620 -0.464015
O9    O     O_3   0.963226 0.422531 0.322480 -0.608646
H9    H     H_    0.039686 0.393125 0.263407 0.370555
O10   O     O_3   0.804039 0.705326 0.887603 -0.608659
H10   H     H_    0.781144 0.721258 0.785357 0.339223
S1    S     S_3+6 0.859873 0.718419 0.186891 0.084016
O11   O     O_2   0.856225 0.725360 0.342785 -0.340651
O12   O     O_2   0.964632 0.618078 0.153015 -0.217767
O13   O     O_3   0.929742 0.852614 0.133236 -0.431904
H11   H     H_    0.033005 0.863437 0.188999 0.363587
S2    S     S_3+6 0.651774 0.129170 0.245914 0.038326
O14   O     O_2   0.761633 0.233015 0.295496 -0.204474
O15   O     O_2   0.734737 0.037263 0.167962 -0.239950
O16   O     O_3   0.504678 0.183008 0.134751 -0.510510
H12   H     H_    0.423017 0.117925 0.129831 0.342114
O17   O     O_3   0.367546 0.125346 0.822547 -0.672625
H13   H     H_    0.465197 0.093118 0.872231 0.372016
O18   O     O_3   0.267846 0.374053 0.103811 -0.704923
H14   H     H_    0.304397 0.341642 0.197179 0.368367

loop_
_geom_bond_atom_site_label_1
_geom_bond_atom_site_label_2
_ccdc_geom_bond_type
C7    C10   A    
S2    O15   D    
O10   H10   S    
C11   O10   S    
C2    H5    S    
Cu1   O3    S    
Cu1   O1    S    
C8    O18   S    
C12   O4    A    
C5    H6    S    
Cu2   O4    S    
O9    H9    S    
C19   C20   A    
Cu1   O7    S    
C6    O17   S    
O17   H13   S    
Cu2   O8    S    
C2    C3    A    
C4    C18   A    
Cu1   Cu2   S    
C14   O5    A    
C13   S1    S    
C4    C5    S    
C11   C13   S    
C15   O7    A    
O18   H14   S    
C3    C14   S    
C6    C18   S    
C17   H4    S    
O13   H11   S    
C6    H8    S    
C1    O2    A    
S2    O14   D    
C5    H7    S    
S1    O12   D    
C5    C6    S    
Cu2   O2    S    
Cu1   N2    S    
C15   O8    A    
C1    C19   S    
S2    O16   S    
C14   O6    A    
C10   C11   S    
C1    O1    A    
C3    C4    A    
Cu2   O6    S    
C10   N2    A    
C11   H2    S    
C7    C13   S    
C7    N1    A    
Cu1   O5    S    
C18   C19   A    
Cu2   N1    S    
S1    O13   S    
C15   C17   S    
C8    C9    A    
C20   S2    S    
C9    N2    A    
C13   H3    S    
S1    O11   D    
C8    N1    A    
C2    C20   A    
C16   O9    S    
C9    H1    S    
C12   C16   S    
O16   H12   S    
C16   C17   D    
C12   O3    A    
