data_mof_unit_56460.cif
_audit_creation_date              2012-12-10T17:52:25-0500
_audit_creation_method            fapswitch 2.2
_symmetry_space_group_name_H-M    P1
_symmetry_Int_Tables_number       1
_space_group_crystal_system       triclinic
_cell_length_a                    19.131101
_cell_length_b                    10.702559
_cell_length_c                    9.910588
_cell_angle_alpha                 90.13367
_cell_angle_beta                  89.937763
_cell_angle_gamma                 93.808428
_cell_volume                      2024.72263082

loop_
_atom_site_label
_atom_site_type_symbol
_atom_type_description
_atom_site_fract_x
_atom_site_fract_y
_atom_site_fract_z
_atom_type_partial_charge
C1    C     C_R   0.508641 0.261831 0.500072 0.921892
C2    C     C_R   0.856655 0.558834 0.514359 -0.204126
C3    C     C_R   0.546097 0.118143 0.745134 -0.336879
C4    C     C_R   0.365982 0.508535 0.500021 0.974789
C5    C     C_R   0.533537 0.058577 0.868495 0.503606
C6    C     C_R   0.491749 0.947232 0.873154 0.476533
C7    C     C_R   0.469103 0.888678 0.753619 0.475151
C8    C     C_R   0.490987 0.939669 0.627103 -0.190026
C9    C     C_R   0.519071 0.063506 0.624225 -0.122420
C10   C     C_R   0.516802 0.128787 0.500697 -0.288845
C11   C     C_R   0.507352 0.063563 0.378791 0.522158
C12   C     C_R   0.291753 0.533837 0.501714 -0.346305
C13   C     C_R   0.493438 0.936721 0.380040 0.537390
C14   C     C_R   0.487291 0.872912 0.503204 -0.306524
C15   C     C_R   0.417862 0.322036 0.148440 0.003835
C16   C     C_R   0.493632 0.739258 0.500710 0.946527
C17   C     C_R   0.388849 0.214792 0.090841 -0.084283
C18   C     C_R   0.390380 0.201901 0.953846 -0.278917
C19   C     C_R   0.415295 0.302643 0.869008 0.515006
C20   C     C_R   0.458954 0.405687 0.929175 0.063550
C21   C     C_R   0.459459 0.409765 0.074317 -0.011059
C22   C     C_R   0.539346 0.587754 0.072783 0.569275
C23   C     C_R   0.932712 0.575194 0.520067 0.392475
C24   C     C_R   0.538015 0.587978 0.927979 -0.209728
C25   C     C_R   0.634745 0.501952 0.500041 0.915722
C26   C     C_R   0.257578 0.538563 0.626754 -0.306586
C27   C     C_R   0.187481 0.562279 0.633596 0.602016
C28   C     C_R   0.149681 0.579666 0.514719 -0.276982
C29   C     C_R   0.183878 0.578897 0.389214 0.501400
C30   C     C_R   0.255289 0.559848 0.382238 0.357771
C31   C     C_3   0.639165 0.725374 0.088419 0.141020
C32   C     C_3   0.683133 0.797988 0.193822 -0.681626
C33   C     C_3   0.348819 0.201208 0.691492 0.094507
C34   C     C_R   0.073863 0.586557 0.521064 0.402216
C35   C     C_3   0.324275 0.215628 0.546750 -0.810744
C36   C     C_3   0.305403 0.683666 0.218079 0.108676
C37   C     C_3   0.336095 0.684650 0.076420 -0.556664
C38   C     C_3   0.831006 0.497495 0.856451 0.039197
C39   C     C_3   0.889654 0.493275 0.959335 -0.583457
C40   C     C_3   0.719583 0.356733 0.231351 0.104833
C41   C     C_3   0.674508 0.327006 0.107583 -0.696636
C42   C     C_R   0.817521 0.557286 0.634395 0.457292
C43   C     C_R   0.744739 0.538656 0.626660 -0.401916
C44   C     C_R   0.711305 0.514323 0.502498 -0.284337
C45   C     C_R   0.751351 0.508851 0.383468 0.352753
C46   C     C_R   0.823583 0.535105 0.389683 0.487229
F1    F     F_    0.557990 0.113245 0.984093 -0.601086
F2    F     F_    0.473020 0.895687 0.993516 -0.562998
F3    F     F_    0.421073 0.789644 0.762376 -0.634806
F4    F     F_    0.485655 0.877003 0.259538 -0.547192
F5    F     F_    0.156553 0.566547 0.756801 -0.616391
F6    F     F_    0.147883 0.591275 0.272396 -0.605618
F7    F     F_    0.861559 0.533355 0.274034 -0.664752
F8    F     F_    0.512251 0.121636 0.257188 -0.577344
H1    H     H_    0.284874 0.522804 0.720289 0.239292
H2    H     H_    0.692241 0.737396 0.281934 0.256217
H3    H     H_    0.734455 0.830883 0.149700 0.199734
H4    H     H_    0.655565 0.880418 0.228522 0.260121
H5    H     H_    0.300495 0.187867 0.753942 0.155189
H6    H     H_    0.379387 0.116460 0.694183 0.144795
H7    H     H_    0.368415 0.245344 0.479616 0.238414
H8    H     H_    0.300743 0.124341 0.509553 0.212063
H9    H     H_    0.283378 0.283950 0.542144 0.245707
H10   H     H_    0.345213 0.728714 0.287913 0.153997
H11   H     H_    0.258527 0.740148 0.216302 0.167818
H12   H     H_    0.577370 0.206178 0.745035 0.209557
H13   H     H_    0.298654 0.635590 0.005361 0.253592
H14   H     H_    0.346664 0.782759 0.042100 0.251429
H15   H     H_    0.385887 0.637338 0.075807 0.245619
H16   H     H_    0.820980 0.400993 0.814652 0.133589
H17   H     H_    0.783342 0.526041 0.909350 0.154775
H18   H     H_    0.899362 0.586440 0.007869 0.290096
H19   H     H_    0.874810 0.422567 0.037842 0.226571
H20   H     H_    0.938468 0.466843 0.909120 0.255841
H21   H     H_    0.697170 0.299220 0.316748 0.129083
H22   H     H_    0.773720 0.329854 0.209943 0.162705
H23   H     H_    0.407616 0.331419 0.252734 0.196818
H24   H     H_    0.676766 0.226587 0.080818 0.249514
H25   H     H_    0.619274 0.346407 0.128926 0.283632
H26   H     H_    0.693763 0.384880 0.020741 0.203696
H27   H     H_    0.362476 0.142836 0.152792 0.167751
H28   H     H_    0.365430 0.115091 0.916915 0.136108
H29   H     H_    0.567028 0.659988 0.871031 0.136490
H30   H     H_    0.714276 0.546226 0.718055 0.191484
H31   H     H_    0.629491 0.791188 0.004903 0.142992
H32   H     H_    0.669417 0.646755 0.050962 0.129763
N1    N     N_R   0.038939 0.643245 0.421897 -0.085013
N2    N     N_R   0.969401 0.637654 0.421358 -0.092292
N3    N     N_R   0.967612 0.520366 0.620216 -0.137902
N4    N     N_R   0.036999 0.525919 0.620672 -0.098485
N5    N     N_R   0.499340 0.498800 0.142780 -0.159705
N6    N     N_R   0.499320 0.498720 0.857170 -0.110970
O1    O     O_R   0.500000 0.316780 0.614690 -0.575899
O2    O     O_3   0.391112 0.307999 0.736249 -0.562090
O3    O     O_3   0.287683 0.558666 0.257376 -0.563710
O4    O     O_3   0.851013 0.586519 0.755936 -0.583264
O5    O     O_3   0.719912 0.486136 0.259473 -0.577406
O6    O     O_R   0.499990 0.316750 0.385360 -0.608101
O7    O     O_R   0.398140 0.500000 0.614700 -0.527116
O8    O     O_R   0.398130 0.499970 0.385370 -0.630931
O9    O     O_R   0.500010 0.683250 0.614640 -0.579326
O10   O     O_R   0.500000 0.683220 0.385310 -0.528119
O11   O     O_R   0.601870 0.500030 0.614630 -0.653276
O12   O     O_R   0.601860 0.500000 0.385300 -0.554961
O13   O     O_3   0.575194 0.681250 0.148039 -0.516865
Zn1   Zn    Zn3+2 0.500000 0.500020 0.653130 1.008194
Zn2   Zn    Zn3+2 0.500000 0.499980 0.346870 1.034211

loop_
_geom_bond_atom_site_label_1
_geom_bond_atom_site_label_2
_ccdc_geom_bond_type
N1    N2    A    
C38   H16   S    
C31   H31   S    
C37   H15   S    
C19   C20   A    
C32   H4    S    
C26   H1    S    
C41   H26   S    
C7    C8    A    
C15   H23   S    
C45   C46   A    
C2    C46   A    
C20   N6    A    
C26   C27   A    
C30   O3    S    
C6    F2    S    
C42   O4    S    
C36   C37   S    
C24   H29   S    
C38   C39   S    
C37   H14   S    
C18   C19   A    
C39   H20   S    
C18   H28   S    
C8    C9    A    
C22   N5    A    
C23   N3    A    
C4    C12   S    
C9    C10   A    
C17   H27   S    
C28   C34   S    
C33   H5    S    
C31   H32   S    
C13   C14   A    
C33   O2    S    
C43   H30   S    
C31   O13   S    
C32   H3    S    
C24   N6    A    
C25   C44   S    
C27   F5    S    
N5    Zn2   S    
C7    F3    S    
C41   H24   S    
C36   H11   S    
C25   O11   A    
O6    Zn2   S    
C40   H22   S    
C12   C26   A    
O11   Zn1   S    
C43   C44   A    
C34   N4    A    
C29   C30   A    
C3    C9    A    
O1    Zn1   S    
C5    F1    S    
C31   C32   S    
C39   H18   S    
C17   C18   A    
O10   Zn2   S    
C35   H7    S    
C19   O2    S    
C11   F8    S    
N6    Zn1   S    
C40   C41   S    
C33   H6    S    
C23   N2    A    
C4    O8    A    
C14   C16   S    
C3    H12   S    
C42   C43   A    
C40   O5    S    
C44   C45   A    
C21   N5    A    
C16   O10   A    
O9    Zn1   S    
C15   C17   A    
O7    Zn1   S    
C38   H17   S    
C28   C29   A    
O8    Zn2   S    
C8    C14   A    
C12   C30   A    
C1    C10   S    
C3    C5    A    
C1    O6    A    
C41   H25   S    
C25   O12   A    
C6    C7    A    
C22   O13   S    
C40   H21   S    
C45   O5    S    
C11   C13   A    
C36   O3    S    
C5    C6    A    
C2    C42   A    
C37   H13   S    
C46   F7    S    
C33   C35   S    
C35   H8    S    
C22   C24   A    
C34   N1    A    
C39   H19   S    
C10   C11   A    
C13   F4    S    
C16   O9    A    
C15   C21   A    
C20   C21   A    
C1    O1    A    
C4    O7    A    
C38   O4    S    
C2    C23   S    
C35   H9    S    
N3    N4    A    
C36   H10   S    
C32   H2    S    
O12   Zn2   S    
C27   C28   A    
C29   F6    S    
