data_mof_unit_6928.cif
_audit_creation_date              2012-12-10T18:11:47-0500
_audit_creation_method            fapswitch 2.2
_symmetry_space_group_name_H-M    P1
_symmetry_Int_Tables_number       1
_space_group_crystal_system       triclinic
_cell_length_a                    15.845866
_cell_length_b                    10.76028
_cell_length_c                    9.44484
_cell_angle_alpha                 90.472803
_cell_angle_beta                  90.094345
_cell_angle_gamma                 89.339627
_cell_volume                      1610.23773658

loop_
_atom_site_label
_atom_site_type_symbol
_atom_type_description
_atom_site_fract_x
_atom_site_fract_y
_atom_site_fract_z
_atom_type_partial_charge
C1    C     C_R   0.501219 0.259929 0.499614 0.826770
C2    C     C_3   0.083181 0.495830 0.499269 -0.117343
C3    C     C_3   0.970454 0.596933 0.573051 -0.267621
C4    C     C_3   0.916493 0.499790 0.494121 -0.015146
C5    C     C_3   0.027919 0.602069 0.441424 0.407669
C6    C     C_3   0.972248 0.508006 0.360935 -0.229345
C7    C     C_1   0.174839 0.496427 0.501071 0.129022
C8    C     C_1   0.825031 0.501070 0.495227 0.023589
C9    C     C_3   0.511100 0.071392 0.654000 -0.478797
C10   C     C_3   0.505533 0.929241 0.655292 -0.400122
C11   C     C_3   0.419684 0.071106 0.426488 0.327778
C12   C     C_R   0.339939 0.499388 0.500037 0.841656
C13   C     C_3   0.580452 0.068316 0.416979 0.276700
C14   C     C_3   0.501567 0.122015 0.499216 -0.048024
C15   C     C_3   0.501287 0.877421 0.501793 0.039854
C16   C     C_3   0.418651 0.927427 0.432208 -0.431381
C17   C     C_3   0.580979 0.923147 0.421826 -0.449806
C18   C     C_3   0.511468 0.627719 0.085679 -0.205796
C19   C     C_3   0.511817 0.629417 0.918591 -0.195730
C20   C     C_3   0.571366 0.424136 0.084260 -0.233985
C21   C     C_3   0.422177 0.450521 0.082396 -0.205226
C22   C     C_3   0.570897 0.421943 0.917016 0.509576
C23   C     C_R   0.500390 0.739907 0.500772 0.808001
C24   C     C_3   0.421072 0.454598 0.915464 -0.296223
C25   C     C_R   0.660021 0.500533 0.499745 0.824988
C26   C     C_3   0.970178 0.390902 0.552477 -0.284710
C27   C     C_3   0.027585 0.401534 0.421063 0.409361
C28   C     C_1   0.250350 0.497788 0.500599 -0.120883
C29   C     C_1   0.749559 0.501236 0.497859 -0.202169
C30   C     C_3   0.025327 0.488200 0.628782 0.402658
Cu1   Cu    Cu3+1 0.500040 0.499860 0.642410 0.925702
Cu2   Cu    Cu3+1 0.499960 0.500140 0.357590 0.932323
H1    H     H_    0.449102 0.900834 0.716518 0.171792
H2    H     H_    0.362888 0.894466 0.491753 0.189981
H3    H     H_    0.636410 0.096332 0.480743 0.118618
H4    H     H_    0.638078 0.891586 0.481082 0.145750
H5    H     H_    0.588111 0.876729 0.317700 0.180977
H6    H     H_    0.425769 0.093886 0.313375 0.120931
H7    H     H_    0.412317 0.888962 0.322985 0.146953
H8    H     H_    0.570871 0.668579 0.126477 0.155761
H9    H     H_    0.945690 0.304042 0.598981 0.171102
H10   H     H_    0.459020 0.688738 0.124043 0.155526
H11   H     H_    0.460207 0.692096 0.881365 0.137356
H12   H     H_    0.571777 0.669758 0.880318 0.187830
H13   H     H_    0.632314 0.461233 0.123491 0.184967
H14   H     H_    0.412779 0.353447 0.118396 0.157304
H15   H     H_    0.367315 0.505744 0.122032 0.190710
H16   H     H_    0.366956 0.513929 0.881347 0.187840
H17   H     H_    0.409141 0.359930 0.872196 0.139969
H18   H     H_    0.567943 0.328599 0.125216 0.146065
H19   H     H_    0.949969 0.515361 0.250140 0.180265
H20   H     H_    0.558307 0.324413 0.882627 0.019364
H21   H     H_    0.945200 0.678311 0.632894 0.173855
H22   H     H_    0.465299 0.111694 0.730204 0.174583
H23   H     H_    0.573554 0.098746 0.697710 0.164640
H24   H     H_    0.562040 0.890472 0.709941 0.186199
N1    N     N_3   0.501840 0.500250 0.143650 -0.151108
N2    N     N_3   0.501160 0.503300 0.856280 -0.145330
O1    O     O_R   0.500050 0.317570 0.620260 -0.624944
O2    O     O_R   0.499980 0.317810 0.379740 -0.553226
O3    O     O_R   0.379110 0.499870 0.620240 -0.598057
O4    O     O_R   0.379040 0.500110 0.379720 -0.568983
O5    O     O_R   0.500020 0.682190 0.620260 -0.598378
O6    O     O_R   0.499950 0.682430 0.379740 -0.601867
O7    O     O_R   0.620960 0.499890 0.620280 -0.535622
O8    O     O_R   0.620890 0.500130 0.379760 -0.585086
S1    S     S_3+6 0.062953 0.272489 0.316383 -0.004607
O9    O     O_2   0.149597 0.297419 0.259512 -0.289751
O10   O     O_2   0.065259 0.157501 0.405469 -0.286027
O11   O     O_3   0.995574 0.251715 0.180916 -0.564573
H25   H     H_    0.020902 0.183639 0.123289 0.370988
O12   O     O_3   0.340933 0.129594 0.460459 -0.584442
C31   C     C_3   0.319401 0.130233 0.605299 0.033070
H26   H     H_    0.350331 0.210127 0.658287 0.150444
H27   H     H_    0.336032 0.041681 0.658404 0.141981
C32   C     C_3   0.224155 0.149701 0.618822 -0.255399
H28   H     H_    0.204669 0.233053 0.557890 0.260512
H29   H     H_    0.191406 0.067505 0.573911 0.277999
C33   C     C_3   0.197591 0.168148 0.772895 -0.867561
H30   H     H_    0.215475 0.085393 0.836265 0.255989
H31   H     H_    0.128067 0.181576 0.778408 0.282089
H32   H     H_    0.228161 0.251785 0.818723 0.260294
O13   O     O_3   0.595697 0.125071 0.283247 -0.611408
C34   C     C_3   0.557924 0.070466 0.161772 0.088164
H33   H     H_    0.512271 0.138633 0.117145 0.098636
H34   H     H_    0.518684 0.988003 0.180850 0.124953
C35   C     C_3   0.626292 0.044788 0.049551 -0.327847
H35   H     H_    0.615619 0.106467 0.957274 0.167136
H36   H     H_    0.689873 0.065330 0.093087 0.259058
C36   C     C_3   0.626899 0.910465 0.998160 -0.936109
H37   H     H_    0.648803 0.848457 0.084246 0.259936
H38   H     H_    0.670920 0.899646 0.907422 0.253995
H39   H     H_    0.562597 0.883832 0.963752 0.236002
O14   O     O_3   0.651663 0.462885 0.872430 -0.600295
C37   C     C_3   0.708490 0.362990 0.841835 0.053084
H40   H     H_    0.755689 0.398060 0.765848 0.179240
H41   H     H_    0.677839 0.283094 0.787401 0.113827
C38   C     C_3   0.757064 0.320753 0.973658 -0.422108
H42   H     H_    0.789711 0.401401 0.022216 0.236307
H43   H     H_    0.713074 0.282618 0.052655 0.215843
C39   C     C_3   0.822111 0.220053 0.936337 -0.872041
H44   H     H_    0.790771 0.138988 0.886184 0.249050
H45   H     H_    0.854311 0.188321 0.034194 0.292203
H46   H     H_    0.870085 0.256665 0.862501 0.245615
S2    S     S_3+6 0.066613 0.742255 0.367960 0.009004
O15   O     O_2   0.111768 0.814858 0.480981 -0.280650
O16   O     O_2   0.126697 0.711434 0.249521 -0.307627
O17   O     O_3   0.985051 0.826820 0.305528 -0.529940
H47   H     H_    0.011034 0.900979 0.262960 0.392619
O18   O     O_3   0.055834 0.475347 0.768631 -0.586126
C40   C     C_3   0.988647 0.489675 0.866462 0.059929
H48   H     H_    0.997355 0.419527 0.950991 0.197037
H49   H     H_    0.925246 0.470701 0.819716 0.134380
C41   C     C_3   0.990757 0.619528 0.934910 -0.317703
H50   H     H_    0.034432 0.617980 0.027022 0.259980
H51   H     H_    0.015107 0.688416 0.858610 0.239617
C42   C     C_3   0.903236 0.662440 0.983767 -0.870456
H52   H     H_    0.860689 0.673930 0.891052 0.250553
H53   H     H_    0.908015 0.753230 0.039715 0.287708
H54   H     H_    0.875435 0.593897 0.056711 0.248352

loop_
_geom_bond_atom_site_label_1
_geom_bond_atom_site_label_2
_ccdc_geom_bond_type
C35   H35   S    
C39   H44   S    
C3    C30   S    
C31   H27   S    
C31   H26   S    
Cu1   O3    S    
C37   H40   S    
C34   C35   S    
C4    C8    S    
C42   H53   S    
C41   H50   S    
C37   C38   S    
C5    S2    S    
S2    O16   D    
C26   C27   S    
C12   C28   S    
C8    C29   T    
Cu1   N2    S    
Cu2   O8    S    
C34   H34   S    
C13   H3    S    
C10   C15   S    
C1    O1    A    
C5    C6    S    
C11   C14   S    
C15   C16   S    
O17   H47   S    
Cu1   O7    S    
C18   C19   S    
Cu1   O1    S    
C18   H8    S    
O18   C40   S    
C20   H18   S    
C2    C7    S    
C16   H2    S    
C35   C36   S    
C6    C27   S    
C32   C33   S    
C2    C27   S    
C9    H23   S    
C17   H4    S    
C6    H19   S    
C10   H1    S    
C10   H24   S    
C9    C10   S    
C20   H13   S    
C15   C23   S    
C39   H45   S    
C13   C14   S    
C22   O14   S    
Cu2   N1    S    
C19   H11   S    
C19   N2    S    
C25   C29   S    
S2    O17   S    
C4    C26   S    
S1    O9    D    
C24   H16   S    
Cu1   O5    S    
C25   O7    A    
C32   H28   S    
Cu2   O6    S    
C4    C6    S    
C1    O2    A    
C33   H31   S    
C11   O12   S    
C7    C28   T    
S1    O10   D    
C11   H6    S    
C9    C14   S    
C21   N1    S    
C12   O4    A    
C11   C16   S    
C18   N1    S    
C36   H38   S    
O13   C34   S    
C40   H49   S    
C17   H5    S    
C34   H33   S    
O11   H25   S    
C23   O6    A    
C20   C22   S    
C26   C30   S    
C39   H46   S    
C38   H43   S    
C35   H36   S    
C31   C32   S    
C42   H54   S    
C2    C5    S    
Cu2   O2    S    
C3    C4    S    
C19   H12   S    
C36   H39   S    
C22   H20   S    
C21   H14   S    
C24   H17   S    
C15   C17   S    
C40   H48   S    
C30   O18   S    
Cu1   Cu2   S    
C25   O8    A    
C32   H29   S    
O12   C31   S    
C3    C5    S    
C22   N2    S    
C33   H32   S    
C41   H51   S    
C37   H41   S    
C1    C14   S    
C38   C39   S    
S2    O15   D    
C13   O13   S    
C13   C17   S    
C2    C30   S    
S1    O11   S    
C18   H10   S    
Cu2   O4    S    
C42   H52   S    
C12   O3    A    
C3    H21   S    
C36   H37   S    
C23   O5    A    
C40   C41   S    
O14   C37   S    
C41   C42   S    
C27   S1    S    
C16   H7    S    
C33   H30   S    
C24   N2    S    
C38   H42   S    
C21   C24   S    
C9    H22   S    
C20   N1    S    
C26   H9    S    
C21   H15   S    
