data_mof_unit_58679.cif
_audit_creation_date              2012-12-11T14:44:09-0500
_audit_creation_method            fapswitch 2.2
_symmetry_space_group_name_H-M    P1
_symmetry_Int_Tables_number       1
_space_group_crystal_system       triclinic
_cell_length_a                    18.944298
_cell_length_b                    10.902251
_cell_length_c                    18.844917
_cell_angle_alpha                 89.988303
_cell_angle_beta                  89.898313
_cell_angle_gamma                 89.78985
_cell_volume                      3892.11181491

loop_
_atom_site_label
_atom_site_type_symbol
_atom_type_description
_atom_site_fract_x
_atom_site_fract_y
_atom_site_fract_z
_atom_type_partial_charge
C1    C     C_R   0.711457 0.328589 0.138410 0.578412
C2    C     C_R   0.990501 0.000673 0.037926 -0.139704
C3    C     C_R   0.997210 0.776995 0.036904 0.018258
C4    C     C_R   0.514801 0.054379 0.033018 -0.122650
C5    C     C_R   0.511382 0.058775 0.960486 -0.148597
C6    C     C_R   0.013240 0.555037 0.032934 -0.171471
C7    C     C_R   0.010162 0.556455 0.960340 -0.152220
C8    C     C_3   0.602631 0.725725 0.956601 -0.119238
C9    C     C_3   0.324668 0.094414 0.107386 -0.101816
C10   C     C_3   0.150040 0.178734 0.974124 -0.101249
C11   C     C_3   0.900318 0.322953 0.068409 -0.118094
C12   C     C_R   0.467422 0.500374 0.974927 -0.147836
C13   C     C_R   0.456865 0.489469 0.047572 -0.122607
C14   C     C_R   0.691315 0.879512 0.037527 -0.131548
C15   C     C_R   0.300273 0.952605 0.973731 -0.125496
C16   C     C_R   0.183381 0.411725 0.033491 -0.127800
C17   C     C_R   0.795938 0.341788 0.955508 -0.117828
C18   C     C_R   0.694035 0.867397 0.963188 0.265377
C19   C     C_R   0.288210 0.927892 0.045314 0.259326
C20   C     C_R   0.192218 0.375433 0.962633 0.255290
C21   C     C_R   0.269221 0.378663 0.853953 0.562873
C22   C     C_R   0.786824 0.312636 0.027531 0.267663
C23   C     C_R   0.754424 0.910941 0.927524 0.044451
C24   C     C_R   0.228168 0.860079 0.064535 0.027164
C25   C     C_R   0.245421 0.431861 0.921583 0.039001
C26   C     C_R   0.722414 0.343661 0.061540 0.034513
C27   C     C_R   0.809630 0.965196 0.965516 -0.163796
C28   C     C_R   0.180998 0.819381 0.012663 -0.190471
C29   C     C_R   0.285165 0.527978 0.950840 -0.165173
C30   C     C_R   0.666561 0.390851 0.021269 -0.188808
C31   C     C_R   0.808330 0.968196 0.037850 -0.122640
C32   C     C_R   0.212599 0.832098 0.138179 0.556226
C33   C     C_R   0.191220 0.850226 0.941820 -0.161419
C34   C     C_R   0.278276 0.558175 0.021887 -0.151522
C35   C     C_R   0.676068 0.418376 0.950198 -0.154742
C36   C     C_R   0.748917 0.928709 0.074548 -0.018568
C37   C     C_R   0.250560 0.917846 0.922574 -0.022922
C38   C     C_R   0.229677 0.496124 0.064365 -0.026888
C39   C     C_R   0.742237 0.402169 0.918245 -0.016320
C40   C     C_R   0.479867 0.059838 0.456864 -0.133012
C41   C     C_R   0.473257 0.056149 0.529298 -0.125096
C42   C     C_R   0.025473 0.555468 0.470302 -0.125830
C43   C     C_R   0.770121 0.876603 0.854598 0.571117
C44   C     C_R   0.019053 0.558753 0.542735 -0.133885
C45   C     C_R   0.483990 0.162194 0.570114 0.036922
C46   C     C_R   0.501607 0.167793 0.423745 0.031219
C47   C     C_R   0.998289 0.667204 0.576209 0.031516
C48   C     C_R   0.015719 0.662335 0.429802 0.036128
C49   C     C_R   0.531348 0.154854 0.146780 0.528934
C50   C     C_R   0.468388 0.156334 0.853519 0.541829
C51   C     C_R   0.031912 0.655474 0.146178 0.523229
C52   C     C_R   0.969458 0.655873 0.852722 0.539786
C53   C     C_R   0.500354 0.273344 0.536802 -0.141664
C54   C     C_R   0.484275 0.397315 0.934405 -0.087819
C55   C     C_R   0.509914 0.275952 0.463551 -0.135672
C56   C     C_R   0.990803 0.776030 0.536729 -0.135015
C57   C     C_R   0.000300 0.773771 0.463459 -0.141198
C58   C     C_R   0.797151 0.009088 0.470360 -0.130991
C59   C     C_R   0.184691 0.949799 0.540993 -0.131712
C60   C     C_R   0.315575 0.448132 0.458806 -0.132808
C61   C     C_R   0.700730 0.504778 0.530445 -0.132027
C62   C     C_R   0.797721 0.000008 0.542917 -0.136704
C63   C     C_R   0.180962 0.942650 0.468453 -0.126479
C64   C     C_R   0.319390 0.440695 0.531344 -0.125275
C65   C     C_R   0.466700 0.376586 0.080623 -0.100310
C66   C     C_R   0.700072 0.496621 0.457892 -0.137146
C67   C     C_R   0.751624 0.919309 0.576947 0.034162
C68   C     C_R   0.239041 0.900163 0.428930 0.033488
C69   C     C_R   0.261192 0.399573 0.570949 0.036543
C70   C     C_R   0.747818 0.418991 0.423260 0.033196
C71   C     C_R   0.700072 0.856487 0.537795 -0.130555
C72   C     C_R   0.300523 0.861507 0.463650 -0.137100
C73   C     C_R   0.199590 0.362169 0.536318 -0.136472
C74   C     C_R   0.800856 0.358412 0.461903 -0.132379
C75   C     C_R   0.697769 0.869228 0.464438 -0.134067
C76   C     C_R   0.005501 0.894055 0.926986 -0.094620
C77   C     C_R   0.304925 0.871970 0.537018 -0.133456
C78   C     C_R   0.195143 0.372778 0.462971 -0.133325
C79   C     C_R   0.803302 0.370600 0.535307 -0.134148
C80   C     C_R   0.747538 0.943566 0.430331 0.036577
C81   C     C_R   0.247751 0.920680 0.575480 0.032891
C82   C     C_R   0.252381 0.420446 0.424436 0.031090
C83   C     C_R   0.752166 0.442042 0.569956 0.037032
C84   C     C_R   0.741121 0.969927 0.147148 0.546546
C85   C     C_R   0.258313 0.967017 0.851696 0.537732
C86   C     C_R   0.227077 0.521214 0.140466 0.540971
C87   C     C_R   0.987563 0.888949 0.073631 -0.092351
C88   C     C_R   0.757493 0.465833 0.851491 0.548596
C89   C     C_R   0.730061 0.379447 0.352147 0.555538
C90   C     C_R   0.272214 0.374323 0.645602 0.545803
C91   C     C_R   0.227886 0.874619 0.354342 0.560624
C92   C     C_R   0.769883 0.879369 0.647892 0.547986
C93   C     C_R   0.531526 0.157730 0.353152 0.550146
C94   C     C_R   0.465138 0.156523 0.644694 0.550167
C95   C     C_R   0.034757 0.656687 0.355256 0.552797
C96   C     C_R   0.968464 0.657503 0.646842 0.547329
C97   C     C_R   0.740595 0.974894 0.355944 0.548283
C98   C     C_R   0.000309 0.003231 0.964955 -0.149403
C99   C     C_R   0.258249 0.969431 0.646135 0.544023
C100  C     C_R   0.241799 0.469555 0.353844 0.555557
C101  C     C_R   0.759333 0.474291 0.644185 0.546075
C102  C     C_R   0.496504 0.168680 0.925691 -0.007385
C103  C     C_R   0.504645 0.160274 0.074109 0.002039
C104  C     C_R   0.000081 0.666356 0.923840 -0.006266
C105  C     C_R   0.006894 0.663304 0.072612 -0.010268
C106  C     C_R   0.489330 0.279511 0.965876 0.025534
C107  C     C_R   0.486757 0.272101 0.040937 0.000225
C108  C     C_R   0.000497 0.779253 0.961666 0.023660
Cr1   Cr    Cr6+3 0.772000 0.169640 0.250110 1.033851
Cr2   Cr    Cr6+3 0.383330 0.010620 0.749160 1.019009
Cr3   Cr    Cr6+3 0.116670 0.510620 0.250840 0.996931
Cr4   Cr    Cr6+3 0.883330 0.510620 0.749160 1.018365
Cr5   Cr    Cr6+3 0.228000 0.169640 0.749890 1.041388
Cr6   Cr    Cr6+3 0.272000 0.669640 0.250110 1.025433
Cr7   Cr    Cr6+3 0.728000 0.669640 0.749890 1.042331
Cr8   Cr    Cr6+3 0.614960 0.323350 0.249260 1.002033
Cr9   Cr    Cr6+3 0.385040 0.323350 0.750740 1.003428
Cr10  Cr    Cr6+3 0.114960 0.823350 0.249260 0.999102
Cr11  Cr    Cr6+3 0.885040 0.823350 0.750740 1.004549
Cr12  Cr    Cr6+3 0.616670 0.010620 0.250840 1.015521
H1    H     H_    0.527828 0.966678 0.056660 0.150299
H2    H     H_    0.131490 0.968410 0.443735 0.134263
H3    H     H_    0.368975 0.465306 0.556000 0.135322
H4    H     H_    0.658967 0.545402 0.429453 0.125975
H5    H     H_    0.663870 0.793708 0.563307 0.122589
H6    H     H_    0.344788 0.823915 0.434280 0.119531
H7    H     H_    0.155234 0.325590 0.565748 0.118701
H8    H     H_    0.838337 0.298098 0.435908 0.120230
H9    H     H_    0.657657 0.821131 0.434584 0.119905
H10   H     H_    0.353794 0.847292 0.563114 0.119793
H11   H     H_    0.146149 0.349201 0.436971 0.120625
H12   H     H_    0.517554 0.973452 0.931642 0.177660
H13   H     H_    0.844741 0.324660 0.564744 0.119327
H14   H     H_    0.495820 0.413086 0.879084 0.136345
H15   H     H_    0.457347 0.371533 0.137174 0.133589
H16   H     H_    0.016498 0.901220 0.870879 0.132188
H17   H     H_    0.976432 0.891890 0.129829 0.136552
H18   H     H_    0.003047 0.090279 0.937473 0.121071
H19   H     H_    0.984678 0.085603 0.067030 0.115415
H20   H     H_    0.461810 0.589006 0.949692 0.098640
H21   H     H_    0.442212 0.569155 0.078605 0.125956
H22   H     H_    0.643750 0.855600 0.066088 0.123083
H23   H     H_    0.023119 0.467199 0.057782 0.131507
H24   H     H_    0.346294 0.005465 0.958634 0.137893
H25   H     H_    0.142345 0.369901 0.065142 0.128141
H26   H     H_    0.845877 0.322432 0.929761 0.128030
H27   H     H_    0.856175 0.001181 0.939666 0.164841
H28   H     H_    0.136482 0.763623 0.027384 0.129351
H29   H     H_    0.324989 0.574995 0.919908 0.144758
H30   H     H_    0.616080 0.411243 0.045548 0.154040
H31   H     H_    0.852426 0.009514 0.064884 0.189908
H32   H     H_    0.153100 0.822261 0.902308 0.125645
H33   H     H_    0.312171 0.628151 0.044049 0.143780
H34   H     H_    0.012629 0.469140 0.932931 0.162701
H35   H     H_    0.632779 0.460080 0.921507 0.134800
H36   H     H_    0.472414 0.975536 0.427371 0.127156
H37   H     H_    0.458576 0.969495 0.552998 0.129379
H38   H     H_    0.039328 0.468410 0.446381 0.129061
H39   H     H_    0.025855 0.473871 0.571935 0.126002
H40   H     H_    0.506594 0.356840 0.567258 0.116775
H41   H     H_    0.527085 0.360433 0.438791 0.128427
H42   H     H_    0.974392 0.860913 0.561771 0.128322
H43   H     H_    0.994808 0.857810 0.433268 0.117093
H44   H     H_    0.639552 0.663202 0.985068 0.126706
H45   H     H_    0.835025 0.070259 0.446014 0.128095
H46   H     H_    0.576111 0.671000 0.914954 0.139775
H47   H     H_    0.561218 0.760577 0.993256 0.099149
H48   H     H_    0.269352 0.114365 0.124071 0.132195
H49   H     H_    0.338440 0.148740 0.059344 0.107244
H50   H     H_    0.359915 0.124828 0.150874 0.146951
H51   H     H_    0.203506 0.156641 0.995178 0.109578
H52   H     H_    0.133964 0.101046 0.940138 0.174683
H53   H     H_    0.111153 0.185404 0.018095 0.101485
H54   H     H_    0.934266 0.286259 0.111402 0.132957
H55   H     H_    0.888059 0.420255 0.082039 0.133090
H56   H     H_    0.139360 0.985640 0.569501 0.128799
H57   H     H_    0.930995 0.317229 0.018240 0.100251
H58   H     H_    0.360943 0.483077 0.430216 0.129355
H59   H     H_    0.661561 0.563484 0.555168 0.127411
H60   H     H_    0.837553 0.050558 0.571837 0.125466
O1    O     O_R   0.787540 0.042690 0.170470 -0.504536
O2    O     O_R   0.454130 0.051100 0.669160 -0.525349
O3    O     O_R   0.045870 0.551100 0.330840 -0.524661
O4    O     O_R   0.954130 0.551100 0.669160 -0.523098
O5    O     O_R   0.681340 0.959300 0.325510 -0.500733
O6    O     O_R   0.318660 0.959300 0.674490 -0.509673
O7    O     O_R   0.181340 0.459300 0.325510 -0.501492
O8    O     O_R   0.818660 0.459300 0.674490 -0.504228
O9    O     O_3   0.667880 0.167870 0.250070 -0.268334
O10   O     O_3   0.332120 0.167870 0.749930 -0.249878
O11   O     O_3   0.167880 0.667870 0.250070 -0.285690
O12   O     O_R   0.212460 0.042690 0.829530 -0.510260
O13   O     O_3   0.832120 0.667870 0.749930 -0.246785
O14   O     O_R   0.765660 0.292160 0.175050 -0.448665
O15   O     O_R   0.234340 0.292160 0.824950 -0.443281
O16   O     O_R   0.265660 0.792160 0.175050 -0.467122
O17   O     O_R   0.734340 0.792160 0.824950 -0.444707
O18   O     O_R   0.670190 0.408980 0.168550 -0.529830
O19   O     O_R   0.329810 0.408980 0.831450 -0.536547
O20   O     O_R   0.170190 0.908980 0.168550 -0.512756
O21   O     O_R   0.829810 0.908980 0.831450 -0.542381
O22   O     O_R   0.556580 0.251450 0.175160 -0.529248
O23   O     O_R   0.287540 0.542690 0.170470 -0.522060
O24   O     O_R   0.443420 0.251450 0.824840 -0.512366
O25   O     O_R   0.056580 0.751450 0.175160 -0.526778
O26   O     O_R   0.943420 0.751450 0.824840 -0.511300
O27   O     O_R   0.545920 0.049510 0.170320 -0.514587
O28   O     O_R   0.454080 0.049510 0.829680 -0.514305
O29   O     O_R   0.045920 0.549510 0.170320 -0.531967
O30   O     O_R   0.954080 0.549510 0.829680 -0.517681
O31   O     O_R   0.681390 0.957840 0.176710 -0.510938
O32   O     O_R   0.318610 0.957840 0.823290 -0.502768
O33   O     O_R   0.181390 0.457840 0.176710 -0.507714
O34   O     O_R   0.712460 0.542690 0.829530 -0.513007
O35   O     O_R   0.818610 0.457840 0.823290 -0.505160
O36   O     O_R   0.787500 0.044280 0.330990 -0.532142
O37   O     O_R   0.212500 0.044280 0.669010 -0.527723
O38   O     O_R   0.287500 0.544280 0.330990 -0.522776
O39   O     O_R   0.712500 0.544280 0.669010 -0.532536
O40   O     O_R   0.765610 0.293630 0.323860 -0.505921
O41   O     O_R   0.234390 0.293630 0.676140 -0.505194
O42   O     O_R   0.265610 0.793630 0.323860 -0.495335
O43   O     O_R   0.734390 0.793630 0.676140 -0.507507
O44   O     O_R   0.670140 0.410570 0.329080 -0.523339
O45   O     O_R   0.556540 0.252920 0.323970 -0.507289
O46   O     O_R   0.329860 0.410570 0.670920 -0.530700
O47   O     O_R   0.170140 0.910570 0.329080 -0.524024
O48   O     O_R   0.829860 0.910570 0.670920 -0.527637
O49   O     O_3   0.637526 0.824325 0.923288 -0.559736
O50   O     O_3   0.335447 0.967737 0.096172 -0.546999
O51   O     O_3   0.149245 0.286643 0.932639 -0.560667
O52   O     O_3   0.839116 0.250263 0.064184 -0.559598
O53   O     O_R   0.443460 0.252920 0.676030 -0.507107
O54   O     O_R   0.056540 0.752920 0.323970 -0.504356
O55   O     O_R   0.943460 0.752920 0.676030 -0.508259
O56   O     O_R   0.545870 0.051100 0.330840 -0.519049

loop_
_geom_bond_atom_site_label_1
_geom_bond_atom_site_label_2
_ccdc_geom_bond_type
C58   C62   A    
C71   H5    S    
Cr8   O9    S    
C14   H22   S    
Cr3   O11   S    
C11   O52   S    
C48   C95   S    
C80   C97   S    
C14   C18   A    
C9    H49   S    
C1    O18   A    
Cr11  O21   S    
C32   O16   A    
Cr1   O36   S    
Cr10  O20   S    
Cr12  O5    S    
C89   O44   A    
C24   C32   S    
C76   H16   S    
C84   O31   A    
C48   C57   A    
Cr4   O4    S    
C13   C65   A    
C3    C105  A    
C85   O12   A    
C97   O5    A    
Cr5   O10   S    
Cr7   O17   S    
C61   H59   S    
C88   O34   A    
C62   C67   A    
C38   C86   S    
C52   O26   A    
C2    H19   S    
C37   C85   S    
C84   O1    A    
C88   O35   A    
C96   O4    A    
C31   C36   A    
C14   C36   A    
C30   H30   S    
C20   C25   A    
C10   H52   S    
C54   H14   S    
C4    C103  A    
C56   H42   S    
C17   H26   S    
C68   C91   S    
C23   C43   S    
C56   C57   A    
C8    O49   S    
Cr4   O35   S    
C58   H45   S    
Cr10  O54   S    
C15   C37   A    
C22   C26   A    
C15   C19   A    
C60   C82   A    
C61   C66   A    
C96   O55   A    
C5    H12   S    
C74   H8    S    
C99   O37   A    
Cr1   O9    S    
C11   H54   S    
C97   O36   A    
C46   C55   A    
C43   O21   A    
C73   C78   A    
C12   H20   S    
C92   O48   A    
C69   C73   A    
C11   H57   S    
C62   H60   S    
C13   H21   S    
C101  O8    A    
C75   C80   A    
Cr9   O19   S    
C44   C47   A    
C58   C80   A    
Cr12  O31   S    
Cr7   O13   S    
C45   C53   A    
C76   C108  A    
C20   O51   S    
C52   O30   A    
Cr5   O15   S    
Cr7   O39   S    
C9    H50   S    
C42   H38   S    
C42   C44   A    
C39   C88   S    
Cr6   O38   S    
C45   C94   S    
C74   C79   A    
Cr5   O37   S    
Cr11  O48   S    
C1    O14   A    
C53   C55   A    
C93   O56   A    
C25   C29   A    
C79   H13   S    
Cr9   O46   S    
C28   H28   S    
C60   H58   S    
C21   O19   A    
C27   C31   A    
C18   C23   A    
C24   C28   A    
Cr1   O14   S    
C100  O7    A    
C55   H41   S    
C90   O41   A    
C46   C93   S    
C59   H56   S    
C61   C83   A    
C47   C96   S    
C54   C106  A    
C42   C48   A    
C81   C99   S    
C10   H51   S    
C73   H7    S    
C3    C87   A    
C29   C34   A    
Cr2   O10   S    
Cr2   O6    S    
C33   C37   A    
Cr7   O34   S    
C72   H6    S    
C16   H25   S    
Cr11  O13   S    
Cr4   O30   S    
Cr8   O44   S    
C35   C39   A    
C78   H11   S    
Cr3   O29   S    
C70   C74   A    
C72   C77   A    
C8    H47   S    
Cr8   O18   S    
Cr10  O11   S    
C101  O39   A    
C40   H36   S    
Cr2   O28   S    
C57   H43   S    
Cr9   O53   S    
C68   C72   A    
Cr10  O25   S    
Cr3   O3    S    
C31   H31   S    
C2    C87   A    
C43   O17   A    
Cr11  O26   S    
C16   C20   A    
C64   C69   A    
C21   O15   A    
C91   O42   A    
Cr5   O41   S    
C65   H15   S    
Cr6   O16   S    
C41   H37   S    
C51   C105  S    
C30   C35   A    
C51   O29   A    
Cr11  O55   S    
C40   C41   A    
C95   O54   A    
C98   H18   S    
C28   C33   A    
C50   C102  S    
C23   C27   A    
C7    C104  A    
C8    H44   S    
C1    C26   S    
C3    C108  A    
C66   H4    S    
C59   C63   A    
C49   O22   A    
C70   C89   S    
C40   C46   A    
C69   C90   S    
Cr9   O24   S    
C85   O32   A    
C104  C108  A    
C63   H2    S    
C67   C92   S    
C5    C102  A    
C34   H33   S    
Cr1   O1    S    
Cr5   O12   S    
C21   C25   S    
C63   C68   A    
C52   C104  S    
C53   H40   S    
Cr6   O11   S    
C83   C101  S    
C49   C103  S    
C91   O47   A    
C34   C38   A    
Cr12  O27   S    
C11   H55   S    
C90   O46   A    
C9    H48   S    
Cr2   O32   S    
C59   C81   A    
C35   H35   S    
C4    C5    A    
C78   C82   A    
C18   O49   S    
Cr3   O33   S    
Cr4   O8    S    
Cr8   O22   S    
C51   O25   A    
C94   O53   A    
C26   C30   A    
C6    C7    A    
C50   O24   A    
Cr10  O47   S    
C64   H3    S    
Cr3   O7    S    
C17   C22   A    
Cr8   O45   S    
C60   C64   A    
C92   O43   A    
C36   C84   S    
C19   C24   A    
C86   O33   A    
C32   O20   A    
Cr1   O40   S    
Cr12  O9    S    
Cr12  O56   S    
C89   O40   A    
C71   C75   A    
C95   O3    A    
C66   C70   A    
C7    H34   S    
C2    C98   A    
C10   H53   S    
C8    H46   S    
C82   C100  S    
C10   O51   S    
C6    C105  A    
C4    H1    S    
C102  C106  A    
C67   C71   A    
C77   H10   S    
C33   H32   S    
C19   O50   S    
C49   O27   A    
Cr4   O13   S    
C29   H29   S    
Cr9   O10   S    
Cr7   O43   S    
C100  O38   A    
C15   H24   S    
C79   C83   A    
C17   C39   A    
C93   O45   A    
C22   O52   S    
C12   C13   A    
Cr2   O2    S    
C27   H27   S    
C77   C81   A    
C106  C107  A    
C44   H39   S    
C41   C45   A    
Cr6   O23   S    
C9    O50   S    
C103  C107  A    
C94   O2    A    
C6    H23   S    
C87   H17   S    
C76   C98   A    
C86   O23   A    
C65   C107  A    
C99   O6    A    
C12   C54   A    
C75   H9    S    
C16   C38   A    
C47   C56   A    
Cr6   O42   S    
C50   O28   A    
