data_mof_unit_67948.cif
_audit_creation_date              2012-12-10T19:24:11-0500
_audit_creation_method            fapswitch 2.2
_symmetry_space_group_name_H-M    P1
_symmetry_Int_Tables_number       1
_space_group_crystal_system       triclinic
_cell_length_a                    10.475691
_cell_length_b                    10.525757
_cell_length_c                    9.863825
_cell_angle_alpha                 90.259371
_cell_angle_beta                  87.445357
_cell_angle_gamma                 90.34862
_cell_volume                      1086.51960531

loop_
_atom_site_label
_atom_site_type_symbol
_atom_type_description
_atom_site_fract_x
_atom_site_fract_y
_atom_site_fract_z
_atom_type_partial_charge
C1    C     C_R   0.499649 0.258221 0.500068 0.974973
C2    C     C_R   0.500350 0.741779 0.499932 0.974974
C3    C     C_3   0.392261 0.957585 0.564233 -0.127559
C4    C     C_3   0.607739 0.042414 0.435768 -0.127561
C5    C     C_3   0.491124 0.386523 0.047366 0.478647
C6    C     C_3   0.508876 0.613477 0.952634 0.478646
C7    C     C_3   0.595071 0.435217 0.945748 -0.204988
C8    C     C_3   0.404929 0.564783 0.054252 -0.204990
C9    C     C_3   0.396567 0.450494 0.957587 0.022060
C10   C     C_3   0.603433 0.549506 0.042413 0.022061
C11   C     C_R   0.257948 0.501237 0.502458 0.909719
C12   C     C_R   0.742052 0.498763 0.497542 0.909719
C13   C     C_3   0.031486 0.517566 0.630312 -0.266516
C14   C     C_3   0.968513 0.482434 0.369688 -0.266514
C15   C     C_3   0.953549 0.405428 0.576223 0.438834
C16   C     C_3   0.046451 0.594571 0.423777 0.438833
C17   C     C_3   0.877260 0.498136 0.494081 -0.085921
C18   C     C_3   0.122740 0.501864 0.505919 -0.085922
C19   C     C_3   0.953267 0.611279 0.547188 -0.268609
C20   C     C_3   0.046733 0.388720 0.452812 -0.268608
C21   C     C_3   0.494808 0.040662 0.628866 0.407790
C22   C     C_3   0.505191 0.959338 0.371135 0.407789
C23   C     C_3   0.602174 0.958840 0.563787 0.375178
C24   C     C_3   0.397826 0.041159 0.436213 0.375173
C25   C     C_3   0.499869 0.876463 0.499285 -0.341836
C26   C     C_3   0.500131 0.123537 0.500715 -0.341836
H1    H     H_    0.057048 0.534683 0.736408 0.160750
H2    H     H_    0.942951 0.465316 0.263592 0.160750
H3    H     H_    0.911779 0.702405 0.583810 0.208369
H4    H     H_    0.088220 0.297594 0.416190 0.208371
H5    H     H_    0.674469 0.379765 0.896825 0.217739
H6    H     H_    0.325531 0.620235 0.103175 0.217739
N1    N     N_3   0.499910 0.500030 0.863290 -0.146703
N2    N     N_3   0.500090 0.499970 0.136710 -0.146702
O1    O     O_R   0.500010 0.313960 0.616610 -0.584873
O2    O     O_R   0.499990 0.686040 0.383390 -0.584872
O3    O     O_R   0.500060 0.313950 0.383350 -0.565258
O4    O     O_R   0.499940 0.686050 0.616650 -0.565259
O5    O     O_R   0.313930 0.499970 0.616610 -0.659420
O6    O     O_R   0.686070 0.500030 0.383390 -0.659419
O7    O     O_R   0.313980 0.499960 0.383350 -0.583846
O8    O     O_R   0.686020 0.500040 0.616650 -0.583846
Zn1   Zn    Zn3+2 0.499970 0.500010 0.655740 1.008657
Zn2   Zn    Zn3+2 0.500030 0.499990 0.344260 1.008659
Cl1   Cl    Cl    0.887989 0.277384 0.674876 -0.661070
Cl2   Cl    Cl    0.112010 0.722615 0.325122 -0.661072
Cl3   Cl    Cl    0.734628 0.902254 0.652953 -0.582869
Cl4   Cl    Cl    0.265371 0.097744 0.347048 -0.582869
Cl5   Cl    Cl    0.491661 0.092657 0.801021 -0.421758
Cl6   Cl    Cl    0.508343 0.907344 0.198979 -0.421756
C27   C     C_3   0.272436 0.902841 0.638027 -0.308453
C28   C     C_3   0.177077 0.006532 0.683111 -0.312109
C29   C     C_3   0.070243 0.952191 0.776107 -0.763550
H7    H     H_    0.022461 0.871429 0.725742 0.273685
H8    H     H_    0.109641 0.919290 0.872483 0.265029
H9    H     H_    0.998038 0.026620 0.800175 0.302401
H10   H     H_    0.226106 0.083632 0.738149 0.251364
H11   H     H_    0.133731 0.048405 0.593077 0.277286
H12   H     H_    0.225457 0.834869 0.569453 0.228495
H13   H     H_    0.302441 0.849527 0.727958 0.256567
C30   C     C_3   0.727562 0.097160 0.361972 -0.308443
C31   C     C_3   0.822931 0.993470 0.316904 -0.312105
C32   C     C_3   0.929759 0.047805 0.223900 -0.763585
H14   H     H_    0.890360 0.080692 0.127522 0.265036
H15   H     H_    0.977537 0.128575 0.274253 0.273687
H16   H     H_    0.001969 0.973380 0.199840 0.302412
H17   H     H_    0.866281 0.951615 0.406943 0.277295
H18   H     H_    0.773909 0.916358 0.261878 0.251359
H19   H     H_    0.697556 0.150461 0.272033 0.256573
H20   H     H_    0.774533 0.165143 0.430540 0.228486
Cl7   Cl    Cl    0.485304 0.228084 0.108014 -0.464538
Cl8   Cl    Cl    0.514695 0.771916 0.891986 -0.464534
C33   C     C_3   0.270990 0.396126 0.909450 -0.330436
C34   C     C_3   0.181412 0.356505 0.029614 -0.377224
C35   C     C_3   0.051023 0.315103 0.982330 -0.809436
H21   H     H_    0.005783 0.393412 0.927345 0.272259
H22   H     H_    0.060985 0.230711 0.914915 0.298021
H23   H     H_    0.987829 0.290382 0.071645 0.246262
H24   H     H_    0.223415 0.276414 0.084811 0.306715
H25   H     H_    0.167676 0.437296 0.101626 0.233335
H26   H     H_    0.224415 0.471728 0.852534 0.208145
H27   H     H_    0.290862 0.313663 0.841249 0.244693
C36   C     C_3   0.729010 0.603876 0.090547 -0.330436
C37   C     C_3   0.818589 0.643492 0.970381 -0.377236
C38   C     C_3   0.948976 0.684902 0.017662 -0.809428
H28   H     H_    0.939010 0.769301 0.085067 0.298020
H29   H     H_    0.994216 0.606599 0.072656 0.272265
H30   H     H_    0.012170 0.709616 0.928342 0.246256
H31   H     H_    0.832326 0.562698 0.898376 0.233333
H32   H     H_    0.776584 0.723577 0.915178 0.306718
H33   H     H_    0.709139 0.686341 0.158745 0.244697
H34   H     H_    0.775586 0.528277 0.147467 0.208144

loop_
_geom_bond_atom_site_label_1
_geom_bond_atom_site_label_2
_ccdc_geom_bond_type
C30   H20   S    
C7    C10   S    
C21   C26   S    
C32   H15   S    
C11   C18   S    
C33   C34   S    
C21   Cl5   S    
C20   H4    S    
C29   H7    S    
C6    Cl8   S    
C36   H34   S    
C9    C33   S    
C13   C18   S    
C22   C24   S    
C24   C26   S    
C29   H9    S    
C30   H19   S    
C10   C36   S    
C12   O8    A    
C8    C9    S    
C22   C25   S    
C12   C17   S    
O1    Zn1   S    
C1    O3    A    
C22   Cl6   S    
C38   H29   S    
C32   H16   S    
C34   H25   S    
C9    N1    S    
C7    N1    S    
C14   C17   S    
C3    C24   S    
C37   H32   S    
C33   H26   S    
C29   H8    S    
O5    Zn1   S    
C15   C20   S    
C7    H5    S    
C34   C35   S    
C13   C19   S    
C27   C28   S    
C24   Cl4   S    
C14   C20   S    
C3    C25   S    
N2    Zn2   S    
C37   C38   S    
C16   Cl2   S    
C5    C7    S    
C4    C23   S    
C3    C27   S    
C6    C8    S    
C38   H28   S    
C4    C30   S    
C8    H6    S    
C12   O6    A    
C35   H21   S    
C5    C9    S    
C31   C32   S    
C4    C22   S    
C2    O4    A    
C36   C37   S    
C5    N2    S    
C10   N2    S    
C8    N2    S    
C11   O5    A    
C35   H22   S    
C28   H11   S    
C31   H17   S    
C34   H24   S    
C13   C15   S    
C1    C26   S    
O7    Zn2   S    
C14   C16   S    
O2    Zn2   S    
C27   H12   S    
O8    Zn1   S    
C15   Cl1   S    
C19   H3    S    
C33   H27   S    
C28   C29   S    
C1    O1    A    
C38   H30   S    
C2    O2    A    
C15   C17   S    
C6    C10   S    
C4    C26   S    
C36   H33   S    
C6    N1    S    
C31   H18   S    
C23   Cl3   S    
C21   C23   S    
O4    Zn1   S    
C5    Cl7   S    
O3    Zn2   S    
C16   C19   S    
C17   C19   S    
C11   O7    A    
C2    C25   S    
C18   C20   S    
C23   C25   S    
C30   C31   S    
C35   H23   S    
C3    C21   S    
C28   H10   S    
C32   H14   S    
O6    Zn2   S    
C16   C18   S    
C37   H31   S    
C13   H1    S    
C27   H13   S    
C14   H2    S    
N1    Zn1   S    
