data_mof_unit_51402.cif
_audit_creation_date              2013-03-05T15:48:53-0500
_audit_creation_method            fapswitch 2.2
_symmetry_space_group_name_H-M    P1
_symmetry_Int_Tables_number       1
_space_group_crystal_system       triclinic
_cell_length_a                    18.356771
_cell_length_b                    18.373557
_cell_length_c                    51.020396
_cell_angle_alpha                 89.708786
_cell_angle_beta                  90.043219
_cell_angle_gamma                 119.944501
_cell_volume                      14910.7697687

loop_
_atom_site_label
_atom_site_type_symbol
_atom_site_description
_atom_site_fract_x
_atom_site_fract_y
_atom_site_fract_z
_atom_type_partial_charge
O1    O     O_R   0.475290 0.813700 0.278840 -0.494986
O2    O     O_R   0.475290 0.813700 0.221160 -0.462912
O3    O     O_R   0.448450 0.657720 0.276690 -0.500795
O4    O     O_R   0.448450 0.657720 0.223310 -0.493123
C1    C     C_R   0.407689 0.584807 0.287962 0.543413
C2    C     C_R   0.409594 0.584462 0.212514 0.554018
O5    O     O_R   0.338410 0.524710 0.278840 -0.501988
O6    O     O_R   0.338410 0.524710 0.221160 -0.501349
O7    O     O_R   0.209270 0.551550 0.276690 -0.496679
O8    O     O_R   0.209270 0.551550 0.223310 -0.492598
C3    C     C_R   0.175126 0.590712 0.287497 0.533937
C4    C     C_R   0.175326 0.591316 0.212417 0.543864
O9    O     O_R   0.186300 0.661590 0.278840 -0.494868
O10   O     O_R   0.186300 0.661590 0.221160 -0.504468
O11   O     O_R   0.342280 0.790730 0.276690 -0.499881
O12   O     O_R   0.342280 0.790730 0.223310 -0.502987
C5    C     C_R   0.416056 0.825280 0.287450 0.565538
C6    C     C_R   0.415965 0.825128 0.212357 0.561522
Cr1   Cr    Cr6+3 0.456550 0.732290 0.250000 1.028839
Cr2   Cr    Cr6+3 0.275740 0.543450 0.250000 1.031474
Cr3   Cr    Cr6+3 0.267710 0.724260 0.250000 1.035019
O13   O     O_3   0.333333 0.666667 0.250000 -0.240923
C7    C     C_R   0.025067 0.418337 0.402608 0.477801
C8    C     C_R   0.051838 0.438175 0.097340 0.468552
O14   O     O_2   0.039954 0.369569 0.390813 -0.455961
O15   O     O_2   0.100836 0.419211 0.107152 -0.440994
N1    N     N_R   0.027653 0.485107 0.389243 -0.373708
N2    N     N_R   0.016767 0.474236 0.112782 -0.402180
C9    C     C_R   0.003439 0.536846 0.401234 0.450601
C10   C     C_R   0.957634 0.492145 0.102665 0.423348
C11   C     C_R   0.144373 0.577642 0.360379 -0.089142
C12   C     C_R   0.090016 0.586643 0.144935 -0.100921
C13   C     C_R   0.179680 0.604034 0.335587 -0.144731
C14   C     C_R   0.128151 0.615223 0.169207 -0.143714
C15   C     C_R   0.056013 0.488609 0.315965 -0.134891
C16   C     C_R   0.084257 0.472315 0.182416 -0.119534
C17   C     C_R   0.020331 0.460371 0.341129 0.335566
C18   C     C_R   0.041946 0.442593 0.158510 0.320184
C19   C     C_R   0.064248 0.507012 0.363340 0.261836
C20   C     C_R   0.048060 0.500714 0.139087 0.214223
C21   C     C_R   0.990596 0.465838 0.442741 -0.115527
C22   C     C_R   0.978716 0.450971 0.059311 -0.115198
C23   C     C_R   0.007024 0.407575 0.429834 0.006661
C24   C     C_R   0.033361 0.425593 0.070263 -0.003405
C25   C     C_R   0.002665 0.339558 0.444420 0.279217
C26   C     C_R   0.065909 0.386285 0.053971 0.268164
C27   C     C_R   0.981027 0.525982 0.428017 0.021049
C28   C     C_R   0.935256 0.478129 0.075876 0.028282
C29   C     C_R   0.135260 0.560868 0.313236 -0.015343
C30   C     C_R   0.127302 0.558639 0.187940 -0.032369
H1    H     H_    0.021676 0.455234 0.298653 0.101797
H2    H     H_    0.082907 0.427824 0.196699 0.132497
C31   C     C_R   0.865690 0.426492 0.686733 0.027832
C32   C     C_R   0.864940 0.426559 0.813531 0.004068
C33   C     C_R   0.988199 0.403883 0.512996 0.055478
C34   C     C_R   0.006199 0.427680 0.987725 0.055996
C35   C     C_R   0.983349 0.535487 0.511214 -0.030791
C36   C     C_R   0.915110 0.489723 0.992846 -0.026286
C37   C     C_R   0.984486 0.470360 0.525912 -0.005829
C38   C     C_R   0.956506 0.459246 0.976551 -0.000696
C39   C     C_R   0.001450 0.347598 0.528469 -0.088150
C40   C     C_R   0.058565 0.413056 0.970935 -0.077179
C41   C     C_R   0.996626 0.347599 0.555635 -0.102645
C42   C     C_R   0.051259 0.414605 0.943933 -0.091107
C43   C     C_R   0.983767 0.407315 0.568535 0.041503
C44   C     C_R   0.994431 0.435133 0.932599 0.045314
C45   C     C_R   0.981786 0.471374 0.553769 -0.087136
C46   C     C_R   0.949538 0.461287 0.948823 -0.082107
C47   C     C_R   0.977206 0.536241 0.566868 -0.000176
C48   C     C_R   0.897783 0.489085 0.937339 -0.009992
C49   C     C_R   0.960616 0.528277 0.594131 0.434562
C50   C     C_R   0.884211 0.480469 0.909916 0.434762
N3    N     N_R   0.957691 0.462298 0.608242 -0.387423
N4    N     N_R   0.927267 0.452923 0.894414 -0.393736
C51   C     C_R   0.973590 0.404773 0.595925 0.426976
C52   C     C_R   0.983217 0.432120 0.905307 0.431095
C53   C     C_R   0.969807 0.513474 0.654045 -0.078888
C54   C     C_R   0.871188 0.364855 0.855146 -0.038535
C55   C     C_R   0.936636 0.502727 0.679444 -0.153054
C56   C     C_R   0.847784 0.355828 0.828807 -0.124661
C57   C     C_R   0.829128 0.361036 0.668469 -0.116483
C58   C     C_R   0.911111 0.506878 0.824644 -0.148084
C59   C     C_R   0.860584 0.372590 0.643005 -0.045381
C60   C     C_R   0.934270 0.515809 0.851018 -0.066834
C61   C     C_R   0.930647 0.449088 0.635392 0.221557
C62   C     C_R   0.912369 0.444668 0.866567 0.235095
O16   O     O_2   0.977675 0.350666 0.608831 -0.513614
O17   O     O_2   0.022823 0.410578 0.891181 -0.506908
C63   C     C_R   0.984938 0.399183 0.485091 -0.021903
C64   C     C_R   0.007428 0.417709 0.015340 -0.022066
C65   C     C_R   0.984476 0.464556 0.470518 -0.016671
C66   C     C_R   0.968208 0.450045 0.031666 -0.015758
C67   C     C_R   0.975092 0.527383 0.483442 0.011325
C68   C     C_R   0.916741 0.479503 0.020602 0.014621
C69   C     C_R   0.977918 0.329306 0.471065 0.176547
C70   C     C_R   0.043625 0.373177 0.027292 0.187488
H3    H     H_    0.965466 0.554099 0.693225 0.126796
H4    H     H_    0.812040 0.293188 0.820838 0.186704
H5    H     H_    0.024148 0.572861 0.648636 0.141135
H6    H     H_    0.853968 0.309493 0.866988 0.166997
H7    H     H_    0.002640 0.300092 0.566509 0.158511
H8    H     H_    0.090574 0.399647 0.931946 0.145144
H9    H     H_    0.016558 0.303141 0.519917 0.161646
H10   H     H_    0.107037 0.401578 0.978360 0.163217
O18   O     O_2   0.004807 0.594367 0.388714 -0.462828
O19   O     O_2   0.926613 0.522640 0.116939 -0.437418
C71   C     C_R   0.951353 0.574366 0.440882 0.209406
C72   C     C_R   0.872087 0.491641 0.064863 0.229442
H11   H     H_    0.242152 0.657966 0.333842 0.115414
H12   H     H_    0.161697 0.682197 0.172861 0.147594
H13   H     H_    0.179080 0.612682 0.377435 0.139842
H14   H     H_    0.095261 0.631844 0.130270 0.154967
C73   C     C_R   0.994809 0.608175 0.524849 0.188853
C74   C     C_R   0.877207 0.532901 0.980708 0.178478
C75   C     C_R   0.991288 0.607968 0.552495 0.286009
C76   C     C_R   0.864458 0.528162 0.953359 0.252686
O20   O     O_2   0.945768 0.578324 0.605140 -0.506739
O21   O     O_2   0.833309 0.496266 0.899784 -0.463090
C77   C     C_R   0.949530 0.574801 0.468250 -0.055862
C78   C     C_R   0.862969 0.490775 0.037683 -0.058404
H15   H     H_    0.773514 0.302110 0.673521 0.137747
H16   H     H_    0.926523 0.562557 0.813235 0.120089
H17   H     H_    0.828636 0.322615 0.628909 0.167449
H18   H     H_    0.966872 0.577828 0.859603 0.125227
H19   H     H_    0.922952 0.609021 0.477494 0.201819
H20   H     H_    0.810343 0.495395 0.030259 0.172789
C79   C     C_R   0.418652 0.988928 0.402759 0.459027
C80   C     C_R   0.446537 0.016825 0.098198 0.470751
O22   O     O_2   0.376642 0.010436 0.389745 -0.442712
O23   O     O_2   0.461468 0.073819 0.113371 -0.459796
N5    N     N_R   0.466233 0.960622 0.390144 -0.366569
N6    N     N_R   0.434700 0.941646 0.108014 -0.370595
C81   C     C_R   0.520049 0.942842 0.404093 0.472697
C82   C     C_R   0.418867 0.875970 0.091658 0.457224
C83   C     C_R   0.521307 0.977250 0.344334 0.260848
C84   C     C_R   0.509695 0.931442 0.146920 0.262764
C85   C     C_R   0.510783 0.936342 0.319881 0.237584
C86   C     C_R   0.505580 0.904112 0.173066 0.237524
C87   C     C_R   0.361506 0.848074 0.328986 -0.203612
C88   C     C_R   0.361993 0.877352 0.176387 -0.202277
C89   C     C_R   0.373929 0.879362 0.354259 -0.128198
C90   C     C_R   0.366952 0.906614 0.150904 -0.131234
C91   C     C_R   0.453672 0.941516 0.362521 0.185506
C92   C     C_R   0.438869 0.930586 0.135788 0.187875
C93   C     C_R   0.477082 0.979852 0.444655 -0.082142
C94   C     C_R   0.431291 0.962647 0.053792 -0.076908
C95   C     C_R   0.419287 0.994095 0.430435 -0.006158
C96   C     C_R   0.443699 0.028464 0.070791 -0.008985
C97   C     C_R   0.365041 0.014673 0.444107 0.281370
C98   C     C_R   0.457036 0.105172 0.059934 0.269660
C99   C     C_R   0.528733 0.955541 0.431280 0.052851
C100  C     C_R   0.417666 0.885686 0.064430 0.050820
C101  C     C_R   0.429872 0.872491 0.312063 -0.012398
C102  C     C_R   0.429348 0.871996 0.187397 -0.027763
H21   H     H_    0.298974 0.800025 0.323338 0.150703
H22   H     H_    0.303363 0.854634 0.186944 0.153923
H23   H     H_    0.321517 0.852994 0.367851 0.139470
H24   H     H_    0.312516 0.905490 0.142246 0.141792
C103  C     C_R   0.560770 0.133941 0.687237 -0.041957
C104  C     C_R   0.553961 0.124325 0.811875 -0.045379
C105  C     C_R   0.425740 0.004756 0.513723 0.037238
C106  C     C_R   0.439874 0.056976 0.987651 0.035296
C107  C     C_R   0.554171 0.994579 0.513637 0.023586
C108  C     C_R   0.434084 0.921356 0.981881 0.020641
C109  C     C_R   0.492393 0.003915 0.527405 0.038359
C110  C     C_R   0.440084 0.995329 0.971096 0.039846
C111  C     C_R   0.357482 0.998161 0.528377 -0.081456
C112  C     C_R   0.430478 0.121460 0.975800 -0.089939
C113  C     C_R   0.360912 0.003759 0.555569 -0.093674
C114  C     C_R   0.437899 0.134403 0.948851 -0.090439
C115  C     C_R   0.432202 0.014876 0.569086 0.037069
C116  C     C_R   0.449196 0.079841 0.932530 0.029754
C117  C     C_R   0.497429 0.013086 0.555066 -0.026554
C118  C     C_R   0.446390 0.007953 0.943475 -0.032481
C119  C     C_R   0.568117 0.021480 0.568586 0.037105
C120  C     C_R   0.450690 0.949167 0.926876 0.027176
C121  C     C_R   0.575999 0.038731 0.595582 0.449162
C122  C     C_R   0.460752 0.964540 0.899726 0.446455
N7    N     N_R   0.513725 0.045038 0.608823 -0.366571
N8    N     N_R   0.469011 0.038045 0.889463 -0.367040
C123  C     C_R   0.440486 0.029000 0.596254 0.469946
C124  C     C_R   0.462781 0.095257 0.905472 0.475073
C125  C     C_R   0.536628 0.154074 0.641450 0.239357
C126  C     C_R   0.441703 0.074686 0.844843 0.251037
C127  C     C_R   0.550517 0.181215 0.667447 -0.171963
C128  C     C_R   0.474190 0.108961 0.820088 -0.158624
C129  C     C_R   0.552663 0.055163 0.681323 0.174187
C130  C     C_R   0.599517 0.099197 0.828474 0.178545
C131  C     C_R   0.535740 0.026540 0.655344 -0.080230
C132  C     C_R   0.569173 0.069557 0.853702 -0.080418
C133  C     C_R   0.528400 0.075343 0.635397 0.173623
C134  C     C_R   0.491970 0.058881 0.862280 0.174210
O24   O     O_2   0.383657 0.029183 0.608684 -0.489957
O25   O     O_2   0.470703 0.160309 0.896180 -0.434664
C135  C     C_R   0.427555 0.008515 0.485883 -0.035463
C136  C     C_R   0.445849 0.050469 0.015356 -0.036644
C137  C     C_R   0.482668 0.988672 0.472325 -0.003273
C138  C     C_R   0.433075 0.973524 0.026121 -0.004290
C139  C     C_R   0.544574 0.979094 0.486252 0.039416
C140  C     C_R   0.424247 0.907765 0.009388 0.038403
C141  C     C_R   0.376369 0.031661 0.471176 0.173215
C142  C     C_R   0.465698 0.118478 0.032689 0.211019
H25   H     H_    0.559301 0.242679 0.672013 0.166369
H26   H     H_    0.436969 0.124545 0.807222 0.180537
H27   H     H_    0.308189 0.001266 0.565912 0.169207
H28   H     H_    0.434317 0.187258 0.940827 0.191903
H29   H     H_    0.300089 0.987345 0.519041 0.167514
H30   H     H_    0.415613 0.161940 0.987003 0.175123
O26   O     O_2   0.560062 0.915561 0.392762 -0.488944
O27   O     O_2   0.406472 0.809186 0.100938 -0.478355
C143  C     C_R   0.586768 0.942547 0.445365 -0.090662
C144  C     C_R   0.403385 0.819798 0.047718 -0.096721
H31   H     H_    0.626745 0.923346 0.435556 0.174102
H32   H     H_    0.390517 0.759441 0.055435 0.163429
C145  C     C_R   0.623545 0.001439 0.527790 -0.127287
C146  C     C_R   0.438970 0.863724 0.964702 -0.124028
C147  C     C_R   0.630719 0.015572 0.554676 -0.096803
C148  C     C_R   0.446811 0.877316 0.937789 -0.087138
O28   O     O_2   0.639108 0.050227 0.607217 -0.496116
O29   O     O_2   0.462934 0.912985 0.885173 -0.478624
C149  C     C_R   0.594834 0.954312 0.472275 -0.126741
C150  C     C_R   0.406340 0.830385 0.020788 -0.131097
H33   H     H_    0.675245 0.999655 0.518415 0.140403
H34   H     H_    0.439791 0.808565 0.971506 0.159301
H35   H     H_    0.686029 0.022293 0.564541 0.176454
H36   H     H_    0.451020 0.831531 0.925541 0.193397
H37   H     H_    0.528358 0.965944 0.650431 0.182861
H38   H     H_    0.606397 0.055171 0.866984 0.182243
H39   H     H_    0.639381 0.940933 0.481768 0.115056
H40   H     H_    0.392897 0.775887 0.009382 0.140575
C151  C     C_R   0.505010 0.645728 0.411814 0.460068
C152  C     C_R   0.558382 0.507430 0.103764 0.456033
O30   O     O_2   0.521210 0.712486 0.401591 -0.490642
O31   O     O_2   0.572052 0.465590 0.119621 -0.476193
N9    N     N_R   0.481147 0.575683 0.396441 -0.360547
N10   N     N_R   0.531647 0.561388 0.112345 -0.369323
C153  C     C_R   0.465766 0.500493 0.407493 0.458643
C154  C     C_R   0.518483 0.611462 0.094909 0.453609
C155  C     C_R   0.379126 0.535009 0.360001 0.257598
C156  C     C_R   0.559337 0.630795 0.155667 0.264207
C157  C     C_R   0.363794 0.532809 0.333081 -0.120043
C158  C     C_R   0.526833 0.635467 0.180075 -0.113034
C159  C     C_R   0.512503 0.621717 0.324341 -0.158778
C160  C     C_R   0.401536 0.500839 0.172903 -0.142001
C161  C     C_R   0.529219 0.621014 0.351085 -0.092866
C162  C     C_R   0.432917 0.495636 0.148542 -0.113268
C163  C     C_R   0.463111 0.577980 0.369040 0.226513
C164  C     C_R   0.510272 0.561039 0.139467 0.222396
C165  C     C_R   0.485996 0.561572 0.450906 -0.021639
C166  C     C_R   0.549598 0.545936 0.058719 -0.036060
C167  C     C_R   0.508429 0.639754 0.439290 0.045557
C168  C     C_R   0.569174 0.500076 0.076800 0.026773
C169  C     C_R   0.531093 0.709344 0.455416 -0.102206
C170  C     C_R   0.596896 0.446482 0.067489 -0.053097
C171  C     C_R   0.466453 0.491953 0.434873 0.025137
C172  C     C_R   0.526472 0.603843 0.067855 0.026633
C173  C     C_R   0.429609 0.576612 0.315152 -0.026109
C174  C     C_R   0.447053 0.572034 0.188542 -0.029833
H41   H     H_    0.563966 0.657682 0.310892 0.128931
H42   H     H_    0.339958 0.451095 0.178888 0.156094
H43   H     H_    0.593573 0.654632 0.357933 0.154737
H44   H     H_    0.394852 0.442652 0.135987 0.120342
H45   H     H_    0.547483 0.769845 0.447044 0.157705
H46   H     H_    0.612445 0.410469 0.080927 0.213264
C175  C     C_R   0.567730 0.444795 0.688579 -0.016627
C176  C     C_R   0.572245 0.434228 0.814301 -0.013567
C177  C     C_R   0.516471 0.615929 0.522259 0.036903
C178  C     C_R   0.586588 0.470948 0.994649 0.064259
C179  C     C_R   0.439099 0.462000 0.517580 -0.035223
C180  C     C_R   0.507577 0.545190 0.987032 -0.036088
C181  C     C_R   0.479387 0.534265 0.533603 -0.010429
C182  C     C_R   0.547882 0.502203 0.977221 -0.011299
C183  C     C_R   0.559754 0.686111 0.538819 -0.126699
C184  C     C_R   0.629379 0.431998 0.983936 -0.052147
C185  C     C_R   0.567375 0.676150 0.565553 -0.093910
C186  C     C_R   0.634243 0.424349 0.957033 -0.038498
C187  C     C_R   0.530907 0.595922 0.576916 0.043660
C188  C     C_R   0.595485 0.453911 0.939742 0.052081
C189  C     C_R   0.484308 0.524720 0.561060 -0.088194
C190  C     C_R   0.550063 0.490937 0.949812 -0.094655
C191  C     C_R   0.443594 0.444037 0.572569 -0.016149
C192  C     C_R   0.506735 0.516362 0.932528 -0.012400
C193  C     C_R   0.458475 0.435423 0.599256 0.473766
C194  C     C_R   0.515664 0.510492 0.905249 0.448453
N11   N     N_R   0.507070 0.505515 0.614357 -0.370017
N12   N     N_R   0.559817 0.473663 0.895811 -0.379518
C195  C     C_R   0.541411 0.585191 0.603730 0.449166
C196  C     C_R   0.600120 0.446077 0.912526 0.479942
C197  C     C_R   0.610231 0.511973 0.645911 -0.075358
C198  C     C_R   0.627014 0.521507 0.853054 -0.082608
C199  C     C_R   0.631423 0.489813 0.669912 0.235156
C200  C     C_R   0.634270 0.508986 0.826192 0.246386
C201  C     C_R   0.485928 0.429752 0.683829 -0.152689
C202  C     C_R   0.502578 0.376318 0.829283 -0.160829
C203  C     C_R   0.465675 0.455683 0.660330 0.258331
C204  C     C_R   0.496380 0.388016 0.856094 0.238426
C205  C     C_R   0.528122 0.494370 0.640785 0.187449
C206  C     C_R   0.560976 0.460512 0.868119 0.180157
O32   O     O_2   0.581961 0.646529 0.617598 -0.495330
O33   O     O_2   0.639227 0.413996 0.903607 -0.449033
C207  C     C_R   0.510677 0.624504 0.494725 0.025649
C208  C     C_R   0.581128 0.479706 0.022125 0.042215
C209  C     C_R   0.482912 0.552829 0.478634 0.036337
C210  C     C_R   0.550814 0.532198 0.031425 0.032437
C211  C     C_R   0.452365 0.472302 0.490047 0.033576
C212  C     C_R   0.520705 0.570553 0.013675 0.037192
C213  C     C_R   0.533227 0.702288 0.482575 -0.135528
C214  C     C_R   0.605046 0.438214 0.040718 -0.067400
H47   H     H_    0.656657 0.538963 0.630478 0.143336
H48   H     H_    0.673223 0.578380 0.862578 0.121171
H49   H     H_    0.603194 0.731931 0.577289 0.169625
H50   H     H_    0.669076 0.395257 0.949792 0.181248
H51   H     H_    0.591932 0.749712 0.531440 0.112956
H52   H     H_    0.663120 0.410026 0.995832 0.139637
H53   H     H_    0.550194 0.758360 0.493661 0.106999
H54   H     H_    0.626792 0.395753 0.035203 0.172854
O34   O     O_2   0.449632 0.440626 0.393425 -0.492264
O35   O     O_2   0.497234 0.660674 0.102994 -0.455601
C215  C     C_R   0.447291 0.415245 0.446571 -0.115822
C216  C     C_R   0.509694 0.651099 0.049734 -0.098233
H55   H     H_    0.299334 0.501514 0.326255 0.173480
H56   H     H_    0.563290 0.689953 0.192247 0.175541
H57   H     H_    0.435593 0.361613 0.434775 0.188321
H58   H     H_    0.495986 0.699140 0.056134 0.171718
C217  C     C_R   0.386518 0.382694 0.529766 0.192055
C218  C     C_R   0.453745 0.558683 0.970015 0.197400
C219  C     C_R   0.387671 0.374600 0.557248 0.289329
C220  C     C_R   0.452235 0.542416 0.942974 0.283062
O36   O     O_2   0.430287 0.365500 0.608955 -0.395263
O37   O     O_2   0.484811 0.538507 0.889804 -0.451806
C221  C     C_R   0.440724 0.405705 0.473668 -0.077968
C222  C     C_R   0.507738 0.635300 0.023064 -0.080955
H59   H     H_    0.437612 0.397509 0.698549 0.182483
H60   H     H_    0.454520 0.318761 0.820452 0.196349
H61   H     H_    0.428782 0.346104 0.481583 0.203033
H62   H     H_    0.497155 0.675368 0.009924 0.165011
O38   O     O_R   0.524710 0.338410 0.721160 -0.506320
O39   O     O_R   0.524710 0.338410 0.778840 -0.517271
O40   O     O_R   0.551550 0.209270 0.723310 -0.488854
O41   O     O_R   0.551550 0.209270 0.776690 -0.506785
C223  C     C_R   0.590781 0.174977 0.712657 0.587442
C224  C     C_R   0.590460 0.174270 0.787529 0.567808
O42   O     O_R   0.661590 0.186300 0.721160 -0.461063
O43   O     O_R   0.661590 0.186300 0.778840 -0.431659
O44   O     O_R   0.790730 0.342280 0.723310 -0.496497
O45   O     O_R   0.790730 0.342280 0.776690 -0.492252
C225  C     C_R   0.824272 0.415598 0.712324 0.551997
C226  C     C_R   0.824174 0.415389 0.787738 0.533990
O46   O     O_R   0.813700 0.475290 0.721160 -0.501917
O47   O     O_R   0.813700 0.475290 0.778840 -0.528483
O48   O     O_R   0.657720 0.448450 0.723310 -0.456999
O49   O     O_R   0.657720 0.448450 0.776690 -0.451451
C227  C     C_R   0.584217 0.409058 0.712381 0.566560
C228  C     C_R   0.584326 0.408269 0.787867 0.565307
Cr4   Cr    Cr6+3 0.543450 0.275740 0.750000 1.066125
Cr5   Cr    Cr6+3 0.724260 0.267710 0.750000 1.114387
Cr6   Cr    Cr6+3 0.732290 0.456550 0.750000 1.050858
O50   O     O_3   0.666667 0.333333 0.750000 -0.266018
N13   N     N_R   0.917485 0.618661 0.426707 0.103589
O51   O     O_R   0.925437 0.688046 0.436043 -0.323369
O52   O     O_R   0.864017 0.581190 0.407847 -0.245731
N14   N     N_R   0.814098 0.502905 0.080811 0.109853
O53   O     O_R   0.795549 0.560606 0.074723 -0.273193
O54   O     O_R   0.769207 0.446769 0.098426 -0.280953
N15   N     N_R   0.020387 0.686138 0.511323 0.054979
O55   O     O_R   0.983527 0.729472 0.516201 -0.275782
O56   O     O_R   0.085797 0.717774 0.495958 -0.378235
N16   N     N_R   0.863723 0.592351 0.995083 0.055722
O57   O     O_R   0.924462 0.649906 0.008986 -0.310843
O58   O     O_R   0.794552 0.594864 0.992312 -0.315273
O59   O     O_3   0.003650 0.679348 0.565545 -0.484184
C229  C     C_3   0.090772 0.739214 0.566911 0.050863
H63   H     H_    0.097837 0.802279 0.563687 0.187549
H64   H     H_    0.129746 0.731573 0.551555 0.136066
C230  C     C_3   0.125660 0.737375 0.594021 -0.278349
H65   H     H_    0.086335 0.743670 0.609395 0.200058
H66   H     H_    0.123744 0.676478 0.596905 0.169317
C231  C     C_3   0.216322 0.808514 0.596991 -0.465894
H67   H     H_    0.257044 0.803820 0.581779 0.151562
H68   H     H_    0.240367 0.804535 0.616608 0.179941
H69   H     H_    0.219538 0.870307 0.595171 0.177518
O60   O     O_3   0.818672 0.561955 0.942440 -0.504801
C232  C     C_3   0.873887 0.645382 0.934195 0.066269
H70   H     H_    0.925923 0.649859 0.921755 0.126516
H71   H     H_    0.901469 0.686944 0.951485 0.185644
C233  C     C_3   0.823941 0.675818 0.918073 -0.246944
H72   H     H_    0.798767 0.636384 0.900256 0.188757
H73   H     H_    0.769906 0.669034 0.929841 0.196362
C234  C     C_3   0.878545 0.767518 0.909848 -0.473402
H74   H     H_    0.900291 0.808478 0.927397 0.182602
H75   H     H_    0.841366 0.786531 0.897296 0.167428
H76   H     H_    0.934082 0.776259 0.898567 0.156750
O61   O     O_3   0.303678 0.022720 0.430709 -0.474443
C235  C     C_3   0.224074 0.950051 0.435102 0.057610
H77   H     H_    0.175393 0.968372 0.432145 0.193715
H78   H     H_    0.215795 0.925497 0.455593 0.148575
C236  C     C_3   0.207685 0.880142 0.415621 -0.306615
H79   H     H_    0.213375 0.904177 0.395261 0.216862
H80   H     H_    0.254559 0.859423 0.418502 0.150147
C237  C     C_3   0.120131 0.804273 0.419324 -0.419268
H81   H     H_    0.112988 0.778162 0.439452 0.205951
H82   H     H_    0.110579 0.754885 0.405060 0.196605
H83   H     H_    0.071527 0.822401 0.415903 0.208647
O62   O     O_3   0.471103 0.171616 0.075907 -0.478771
C238  C     C_3   0.392821 0.165583 0.081537 0.048740
H84   H     H_    0.351698 0.107126 0.092846 0.141824
H85   H     H_    0.359544 0.165149 0.063197 0.148741
C239  C     C_3   0.407907 0.241306 0.097881 -0.223019
H86   H     H_    0.444966 0.245341 0.115609 0.219690
H87   H     H_    0.444524 0.299563 0.086117 0.184046
C240  C     C_3   0.325184 0.234829 0.106368 -0.481425
H88   H     H_    0.286554 0.229616 0.088960 0.155565
H89   H     H_    0.338265 0.291873 0.117487 0.152954
H90   H     H_    0.289270 0.178974 0.119183 0.170400
O63   O     O_3   0.939636 0.392907 0.344222 -0.527930
C241  C     C_3   0.932786 0.318167 0.333962 0.034808
H91   H     H_    0.914894 0.272257 0.350347 0.207728
H92   H     H_    0.992180 0.325482 0.325459 0.122119
C242  C     C_3   0.863229 0.281766 0.313309 -0.250798
H93   H     H_    0.803267 0.270683 0.322221 0.235989
H94   H     H_    0.879585 0.327453 0.296935 0.158051
C243  C     C_3   0.850831 0.199072 0.302438 -0.455251
H95   H     H_    0.909422 0.209006 0.292840 0.137652
H96   H     H_    0.799642 0.174220 0.287668 0.171102
H97   H     H_    0.833259 0.151899 0.318420 0.188734
O64   O     O_3   0.001592 0.357247 0.153569 -0.528138
C244  C     C_3   0.913350 0.323340 0.154079 0.029679
H98   H     H_    0.885060 0.267504 0.141113 0.191154
H99   H     H_    0.892811 0.366957 0.146203 0.163212
C245  C     C_3   0.879101 0.295155 0.181909 -0.291444
H100  H     H_    0.898921 0.250812 0.189419 0.179284
H101  H     H_    0.905183 0.350589 0.195034 0.160118
C246  C     C_3   0.783302 0.252057 0.182444 -0.459789
H102  H     H_    0.762118 0.295377 0.175017 0.190290
H103  H     H_    0.760443 0.233787 0.202884 0.147220
H104  H     H_    0.755524 0.194612 0.170184 0.170423
N17   N     N_R   0.535164 0.208750 0.621390 0.115920
O65   O     O_R   0.567012 0.212199 0.598331 -0.290453
O66   O     O_R   0.511911 0.263120 0.627101 -0.270798
N18   N     N_R   0.358697 0.057357 0.852098 0.126092
O67   O     O_R   0.313838 0.997867 0.868818 -0.286754
O68   O     O_R   0.324480 0.095798 0.840297 -0.275422
N19   N     N_R   0.348551 0.085520 0.482421 0.088493
O69   O     O_R   0.400320 0.149408 0.496546 -0.268562
O70   O     O_R   0.275388 0.076484 0.476761 -0.284183
N20   N     N_R   0.507170 0.203829 0.023425 0.076851
O71   O     O_R   0.477915 0.253282 0.029235 -0.382835
O72   O     O_R   0.575964 0.232980 0.009710 -0.351450
O73   O     O_3   0.578427 0.959617 0.303226 -0.527822
C247  C     C_3   0.626033 0.923446 0.312491 0.055313
H105  H     H_    0.585561 0.854459 0.315833 0.143722
H106  H     H_    0.657986 0.953005 0.331222 0.182638
C248  C     C_3   0.692697 0.937681 0.292067 -0.258755
H107  H     H_    0.661385 0.908611 0.273260 0.177458
H108  H     H_    0.734347 0.006203 0.288779 0.173914
C249  C     C_3   0.745840 0.899407 0.300826 -0.475649
H109  H     H_    0.778930 0.928591 0.319404 0.169946
H110  H     H_    0.793453 0.910806 0.285537 0.158425
H111  H     H_    0.705551 0.830544 0.303777 0.153695
O74   O     O_3   0.574144 0.902712 0.183720 -0.496077
C250  C     C_3   0.623734 0.978641 0.197269 0.037635
H112  H     H_    0.585751 0.988944 0.212312 0.126474
H113  H     H_    0.651218 0.032656 0.183286 0.144820
C251  C     C_3   0.695124 0.974004 0.211135 -0.223503
H114  H     H_    0.668188 0.918528 0.224446 0.176413
H115  H     H_    0.735032 0.966100 0.196339 0.214268
C252  C     C_3   0.749537 0.053005 0.227068 -0.500421
H116  H     H_    0.779990 0.108773 0.213958 0.153765
H117  H     H_    0.799345 0.046539 0.237362 0.150880
H118  H     H_    0.710843 0.062412 0.241933 0.163184
N21   N     N_R   0.598178 0.054629 0.350242 0.104674
O75   O     O_R   0.655625 0.092701 0.332352 -0.326427
O76   O     O_R   0.604862 0.095588 0.371672 -0.276503
N22   N     N_R   0.584231 0.956689 0.131448 0.099076
O77   O     O_R   0.609070 0.017617 0.114469 -0.301232
O78   O     O_R   0.628066 0.919242 0.134295 -0.209754
N23   N     N_R   0.560293 0.003490 0.701241 0.101820
O79   O     O_R   0.540220 0.006992 0.725474 -0.283858
O80   O     O_R   0.579654 0.946750 0.694820 -0.282990
N24   N     N_R   0.676186 0.103107 0.820321 0.092522
O81   O     O_R   0.676087 0.061819 0.799660 -0.242178
O82   O     O_R   0.739039 0.129913 0.836533 -0.348260
O83   O     O_3   0.011405 0.277579 0.431849 -0.483274
C253  C     C_3   0.085377 0.278608 0.440616 0.038207
H119  H     H_    0.072095 0.212622 0.441096 0.202572
H120  H     H_    0.105135 0.303602 0.460867 0.140436
C254  C     C_3   0.157866 0.328306 0.421527 -0.240573
H121  H     H_    0.139339 0.300419 0.401673 0.240534
H122  H     H_    0.171713 0.394413 0.420718 0.231169
C255  C     C_3   0.237113 0.327380 0.429940 -0.422683
H123  H     H_    0.260500 0.361008 0.448795 0.197202
H124  H     H_    0.286587 0.359557 0.414822 0.220033
H125  H     H_    0.224389 0.261873 0.432132 0.182397
O84   O     O_3   0.109878 0.350385 0.064677 -0.479337
C256  C     C_3   0.196829 0.406454 0.061085 0.064434
H126  H     H_    0.217337 0.464924 0.072560 0.155397
H127  H     H_    0.212566 0.424075 0.040051 0.172848
C257  C     C_3   0.245257 0.363766 0.070571 -0.232017
H128  H     H_    0.228982 0.344221 0.091392 0.194275
H129  H     H_    0.227170 0.306822 0.058630 0.206132
C258  C     C_3   0.339722 0.422701 0.068329 -0.484797
H130  H     H_    0.357627 0.443438 0.047685 0.194684
H131  H     H_    0.373616 0.390047 0.074913 0.142752
H132  H     H_    0.358683 0.478296 0.080945 0.161796
O85   O     O_3   0.711119 0.501009 0.673632 -0.549251
C259  C     C_3   0.772280 0.587607 0.674178 0.006840
H133  H     H_    0.809113 0.598847 0.692485 0.178961
H134  H     H_    0.745990 0.630889 0.674801 0.129299
C260  C     C_3   0.831590 0.609972 0.650660 -0.243246
H135  H     H_    0.848893 0.560657 0.648084 0.225430
H136  H     H_    0.799569 0.612458 0.632519 0.181422
C261  C     C_3   0.911341 0.694719 0.654262 -0.447467
H137  H     H_    0.895245 0.745047 0.656890 0.166132
H138  H     H_    0.951959 0.709654 0.636659 0.196669
H139  H     H_    0.946982 0.692829 0.671607 0.144158
O86   O     O_3   0.697075 0.571620 0.810901 -0.539622
C262  C     C_3   0.778223 0.597989 0.821163 0.014194
H140  H     H_    0.816641 0.594437 0.805029 0.179923
H141  H     H_    0.779594 0.557606 0.837386 0.137705
C263  C     C_3   0.819879 0.689801 0.829789 -0.269327
H142  H     H_    0.824480 0.729752 0.812725 0.198941
H143  H     H_    0.781515 0.697605 0.845114 0.170849
C264  C     C_3   0.907827 0.719684 0.840597 -0.477620
H144  H     H_    0.904562 0.681221 0.857903 0.152949
H145  H     H_    0.936558 0.786321 0.846682 0.176952
H146  H     H_    0.948362 0.714815 0.825363 0.159911
N25   N     N_R   0.308927 0.496694 0.377847 0.070403
O87   O     O_R   0.314257 0.527683 0.401104 -0.368805
O88   O     O_R   0.235733 0.438541 0.369614 -0.361168
N26   N     N_R   0.640161 0.698064 0.147253 0.115686
O89   O     O_R   0.672916 0.771505 0.158251 -0.276262
O90   O     O_R   0.684209 0.685142 0.129853 -0.246115
N27   N     N_R   0.324093 0.312708 0.515041 0.061339
O91   O     O_R   0.311589 0.237378 0.519199 -0.214888
O92   O     O_R   0.273554 0.322791 0.499493 -0.381824
N28   N     N_R   0.392523 0.578286 0.980195 0.051694
O93   O     O_R   0.381077 0.635546 0.968969 -0.339540
O94   O     O_R   0.342101 0.532872 0.998988 -0.391813
O95   O     O_3   0.333091 0.298441 0.569190 -0.463860
C265  C     C_3   0.252024 0.289637 0.571641 0.034278
H147  H     H_    0.205199 0.221572 0.570446 0.191000
H148  H     H_    0.236279 0.320752 0.555529 0.138580
C266  C     C_3   0.241990 0.322288 0.598194 -0.257998
H149  H     H_    0.255031 0.289255 0.614234 0.243956
H150  H     H_    0.287385 0.390578 0.599576 0.201165
C267  C     C_3   0.153576 0.308869 0.601643 -0.434004
H151  H     H_    0.141047 0.344645 0.586433 0.152313
H152  H     H_    0.147977 0.331741 0.621227 0.218591
H153  H     H_    0.106002 0.241113 0.600154 0.166992
O96   O     O_3   0.396796 0.551797 0.926681 -0.476021
C268  C     C_3   0.314912 0.480604 0.928792 0.039151
H154  H     H_    0.269178 0.501896 0.924409 0.181696
H155  H     H_    0.299391 0.452642 0.948871 0.151508
C269  C     C_3   0.302272 0.412920 0.908936 -0.260871
H156  H     H_    0.319375 0.440989 0.888983 0.237295
H157  H     H_    0.343377 0.386777 0.914178 0.204249
C270  C     C_3   0.211334 0.341260 0.908597 -0.445072
H158  H     H_    0.191276 0.313780 0.928528 0.167150
H159  H     H_    0.205622 0.291390 0.895130 0.213174
H160  H     H_    0.169307 0.364375 0.901485 0.178522
N29   N     N_R   0.381794 0.441077 0.656319 0.099313
O97   O     O_R   0.318972 0.382870 0.669577 -0.318654
O98   O     O_R   0.368689 0.490592 0.641181 -0.325006
N30   N     N_R   0.425110 0.325336 0.870679 0.104643
O99   O     O_R   0.354588 0.276761 0.858749 -0.286206
O100  O     O_R   0.431231 0.312199 0.895449 -0.313472
N31   N     N_R   0.930284 0.245599 0.481908 0.080742
O101  O     O_R   0.862516 0.224914 0.495436 -0.307093
O102  O     O_R   0.948507 0.187504 0.476366 -0.306078
N32   N     N_R   0.043690 0.304183 0.013936 0.086759
O103  O     O_R   0.105458 0.289168 0.016616 -0.311966
O104  O     O_R   0.978332 0.252198 0.000339 -0.292951

loop_
_geom_bond_atom_site_label_1
_geom_bond_atom_site_label_2
_geom_bond_distance
_ccdc_geom_bond_type
N6    C92   1.437943 S    
C244  H98   1.110981 S    
C41   C43   1.399600 A    
Cr6   O50   1.963132 S    
C82   O27   1.223565 D    
C33   C37   1.422012 A    
C240  H89   1.110215 S    
C267  H153  1.110746 S    
C192  C220  1.412645 A    
C72   C78   1.395924 A    
C256  H126  1.113971 S    
C81   C99   1.403495 A    
N31   O101  1.301930 A    
C5    C101  1.478099 S    
N24   O81   1.301274 A    
C16   C30   1.404457 A    
C209  C211  1.416381 A    
C270  H158  1.110990 S    
C115  C117  1.409706 A    
O10   Cr3   2.005072 S    
C168  C170  1.399894 A    
C107  C109  1.416174 A    
C60   C62   1.401720 A    
C236  H80   1.110470 S    
C113  H27   1.083282 S    
C35   C37   1.417903 A    
N2    C20   1.447202 S    
N32   O104  1.301708 A    
C208  C214  1.414187 A    
C7    C23   1.418059 A    
C229  H63   1.111118 S    
O11   C5    1.297148 A    
N26   O89   1.301703 A    
N9    C163  1.441674 S    
C39   C41   1.388964 A    
C40   C42   1.385574 A    
N14   O54   1.301438 A    
C94   C100  1.412792 A    
C153  O34   1.222819 D    
C251  H114  1.111293 S    
N29   O98   1.301247 A    
N9    C153  1.381733 Am   
C175  C227  1.478940 S    
C112  H30   1.077742 S    
O3    Cr1   1.879253 S    
C124  O25   1.222827 D    
C187  C189  1.410729 A    
C56   H4    1.082067 S    
C86   C102  1.419098 A    
C181  C189  1.419333 A    
C125  N17   1.440109 S    
C194  O37   1.221858 D    
Cr3   O13   1.960486 S    
C197  H47   1.080436 S    
N3    C51   1.382813 Am   
C131  H37   1.083015 S    
C269  H157  1.109873 S    
C90   H24   1.083035 S    
O45   Cr5   1.888872 S    
N16   O57   1.301505 A    
C24   C26   1.416739 A    
C268  C269  1.533310 S    
C53   C55   1.402683 A    
C215  H57   1.083469 S    
C110  C118  1.422438 A    
C14   C30   1.402996 A    
C242  C243  1.526783 S    
C160  C174  1.401565 A    
C119  C121  1.406035 A    
C49   N3    1.384571 Am   
C259  H133  1.110746 S    
N17   O65   1.301246 A    
C57   H15   1.083955 S    
C269  C270  1.525279 S    
C12   C14   1.391967 A    
C248  C249  1.525446 S    
C233  H73   1.112049 S    
C146  H34   1.076790 S    
C3    C29   1.467731 S    
C262  C263  1.530810 S    
C64   C66   1.413533 A    
C246  H104  1.110941 S    
C44   C52   1.404755 A    
C261  H137  1.111050 S    
C66   C68   1.418032 A    
C257  H128  1.111835 S    
C196  O33   1.222907 D    
C85   C101  1.416240 A    
C254  H122  1.110359 S    
C117  C119  1.408305 A    
C188  C196  1.403762 A    
C88   H22   1.082949 S    
C179  C211  1.421328 A    
C89   H23   1.083280 S    
C203  C205  1.412357 A    
C252  H117  1.110404 S    
C239  H87   1.110667 S    
C165  C171  1.409295 A    
C58   C60   1.396462 A    
N27   O92   1.301259 A    
C15   H1    1.082693 S    
C234  H74   1.110755 S    
C180  C182  1.417640 A    
C177  C207  1.422654 A    
C233  C234  1.525445 S    
C84   N22   1.440370 S    
C255  H123  1.110001 S    
C232  H70   1.115327 S    
N5    C91   1.444388 S    
C270  H160  1.110111 S    
C185  H49   1.083592 S    
C83   C85   1.422315 A    
C177  C183  1.412492 A    
N20   O72   1.301368 A    
C158  H56   1.082875 S    
C95   C97   1.414477 A    
O2    Cr1   1.996381 S    
O41   Cr4   1.879373 S    
C55   H3    1.082991 S    
O41   C224  1.297631 A    
O86   C262  1.417307 S    
C230  H65   1.111271 S    
C135  C141  1.421768 A    
O38   Cr4   1.996699 S    
O61   C235  1.420543 S    
C229  C230  1.531113 S    
C97   O61   1.386371 S    
C104  C224  1.486560 S    
C241  H91   1.111286 S    
C197  C205  1.399445 A    
N11   C195  1.380431 Am   
N15   O55   1.301452 A    
N12   C196  1.378600 Am   
C3    O9    1.288680 A    
N22   O77   1.301042 A    
C165  C209  1.420920 A    
O38   C227  1.287654 A    
C231  H69   1.110483 S    
C251  C252  1.526044 S    
C166  C210  1.418700 A    
C16   C18   1.403948 A    
C18   O64   1.383952 S    
C22   C66   1.422460 A    
C189  C191  1.409509 A    
C245  H101  1.111151 S    
N19   O70   1.300762 A    
C235  H77   1.110964 S    
N7    C133  1.441638 S    
N6    C82   1.377191 Am   
C50   O21   1.221903 D    
N13   O51   1.301419 A    
C175  C199  1.409396 A    
C176  C200  1.413252 A    
C129  N23   1.440987 S    
C231  H67   1.111052 S    
C238  H84   1.114143 S    
C166  C168  1.408549 A    
C148  H36   1.083743 S    
C105  C109  1.414941 A    
C183  H51   1.078406 S    
C73   C75   1.411907 A    
C247  H106  1.112960 S    
O12   Cr3   1.880583 S    
N1    C9    1.379739 Am   
C81   O26   1.223129 D    
N10   C164  1.437755 S    
C242  H93   1.111691 S    
C160  H42   1.082892 S    
O63   C241  1.417896 S    
C151  C167  1.409370 A    
C111  C113  1.390750 A    
C144  C150  1.383990 A    
C250  H112  1.115846 S    
C42   H8    1.082014 S    
C244  H99   1.115354 S    
N4    C52   1.377943 Am   
C9    C27   1.411544 A    
C132  H38   1.083422 S    
C130  N24   1.434788 S    
C10   C28   1.414323 A    
C141  N19   1.442175 S    
C96   C98   1.414559 A    
N21   O76   1.301081 A    
O96   C268  1.420558 S    
C84   C92   1.411284 A    
C264  H146  1.110755 S    
C54   C56   1.395828 A    
C247  C248  1.526923 S    
N14   O53   1.301264 A    
C207  C213  1.413811 A    
C143  C149  1.387267 A    
C261  H139  1.110818 S    
C199  O85   1.384951 S    
C218  N28   1.438539 S    
C130  C132  1.398071 A    
C2    C174  1.477105 S    
C103  C129  1.413352 A    
C265  H148  1.116201 S    
C217  C219  1.410514 A    
C37   C45   1.422701 A    
C68   C78   1.408525 A    
C178  C182  1.423540 A    
O47   Cr6   2.001274 S    
C126  C128  1.401970 A    
C249  H109  1.110870 S    
C121  N7    1.382310 Am   
C15   C29   1.403059 A    
C234  H76   1.110383 S    
C170  C214  1.391461 A    
C103  C223  1.465703 S    
C63   C65   1.413036 A    
C16   H2    1.083349 S    
C169  H45   1.081729 S    
C120  C122  1.406059 A    
C53   C61   1.408331 A    
C182  C190  1.418233 A    
C258  H130  1.110843 S    
O39   C228  1.288476 A    
C9    O18   1.221617 D    
C107  C145  1.413644 A    
C121  O28   1.222715 D    
C75   O59   1.387949 S    
C175  C201  1.405616 A    
C253  H119  1.111105 S    
C57   C59   1.393656 A    
C116  C118  1.408429 A    
C40   H10   1.079687 S    
C223  O42   1.284967 A    
C166  C172  1.409172 A    
C208  C210  1.416257 A    
C149  H39   1.078233 S    
C49   O20   1.221062 D    
C241  C242  1.529896 S    
O62   C238  1.414598 S    
C256  H127  1.115147 S    
C238  C239  1.527930 S    
O8    Cr2   1.882025 S    
N17   O66   1.301497 A    
C145  H33   1.078179 S    
C35   C73   1.428513 A    
C202  H60   1.082816 S    
C43   C45   1.409931 A    
C154  O35   1.223107 D    
C203  N29   1.439580 S    
O49   C228  1.299710 A    
C93   C99   1.411037 A    
C94   C138  1.422959 A    
C79   O22   1.221690 D    
O7    C3    1.292065 A    
O45   C226  1.297274 A    
C266  H149  1.111388 S    
C87   H21   1.081881 S    
C1    C173  1.471904 S    
C21   C27   1.414741 A    
C266  C267  1.525254 S    
C26   C70   1.407917 A    
C155  C157  1.398525 A    
C22   C28   1.415091 A    
O74   C250  1.412027 S    
C23   C25   1.418731 A    
N3    C61   1.449628 S    
C105  C111  1.411558 A    
C152  C168  1.406831 A    
C51   O16   1.222767 D    
C21   C65   1.420870 A    
C243  H95   1.110780 S    
C14   H12   1.083468 S    
C106  C112  1.412674 A    
C213  H53   1.078736 S    
C178  C184  1.411982 A    
C25   C69   1.415204 A    
C156  C164  1.412167 A    
C7    O14   1.220617 D    
C113  C115  1.401104 A    
C230  C231  1.526810 S    
C224  O43   1.289199 A    
C47   C75   1.411315 A    
O40   C223  1.291537 A    
C48   C50   1.416725 A    
C86   O74   1.382517 S    
C83   N21   1.450611 S    
C8    N2    1.380591 Am   
C4    O10   1.285593 A    
C237  H81   1.111002 S    
N24   O82   1.301307 A    
C74   C76   1.410603 A    
C264  H144  1.110910 S    
C64   C70   1.421249 A    
C71   N13   1.438887 S    
C191  C193  1.412089 A    
C266  H150  1.109369 S    
O1    C5    1.285755 A    
C185  C187  1.401382 A    
C194  N12   1.377734 Am   
C232  C233  1.528393 S    
C76   O60   1.385293 S    
C236  H79   1.111044 S    
C87   C89   1.386130 A    
C17   O63   1.385978 S    
C180  C212  1.420166 A    
C249  H111  1.111109 S    
C33   C39   1.412220 A    
C204  C206  1.409639 A    
C183  C185  1.391492 A    
C118  C120  1.408747 A    
C229  H64   1.116940 S    
C53   H5    1.082857 S    
C256  C257  1.526857 S    
N26   O90   1.301221 A    
C85   O73   1.383682 S    
C150  H40   1.077582 S    
C243  H97   1.110971 S    
C251  H115  1.111669 S    
N29   O97   1.301450 A    
C258  H132  1.109174 S    
C254  H121  1.111318 S    
C36   C74   1.429125 A    
C11   H13   1.083098 S    
C151  N9    1.382138 Am   
C67   C77   1.407375 A    
C204  N30   1.442302 S    
C253  C254  1.527397 S    
C147  H35   1.083584 S    
C135  C137  1.416640 A    
C207  C209  1.417157 A    
O60   C232  1.413142 S    
C21   C23   1.414337 A    
C198  C206  1.397364 A    
C186  H50   1.083816 S    
N16   O58   1.301009 A    
C108  C110  1.416072 A    
C268  H155  1.115187 S    
C108  C146  1.414899 A    
C187  C195  1.408011 A    
C195  O32   1.222553 D    
C263  H143  1.109350 S    
C216  H58   1.083455 S    
C122  O29   1.222818 D    
C265  H147  1.110896 S    
C39   H9    1.079101 S    
C88   C90   1.389951 A    
C114  H28   1.083858 S    
C89   C91   1.399902 A    
C260  H135  1.108044 S    
C78   H20   1.079289 S    
C250  C251  1.527935 S    
C193  N11   1.382033 Am   
O64   C244  1.416017 S    
C87   C101  1.399056 A    
C13   C29   1.398755 A    
O59   C229  1.420172 S    
C70   N32   1.442781 S    
N18   O67   1.301368 A    
C105  C135  1.421348 A    
C155  C163  1.414319 A    
C267  H151  1.110233 S    
C248  H108  1.111228 S    
C106  C110  1.417896 A    
C177  C181  1.421898 A    
C184  H52   1.077732 S    
N8    C124  1.383492 Am   
C246  H103  1.110304 S    
C261  H138  1.109982 S    
C257  H129  1.111510 S    
C126  C134  1.410980 A    
C104  C128  1.409474 A    
O44   C225  1.293363 A    
C123  O24   1.222678 D    
C94   C96   1.414868 A    
C162  H44   1.082994 S    
C262  H140  1.107505 S    
C34   C40   1.411216 A    
C259  C260  1.531116 S    
C270  H159  1.110448 S    
C100  C144  1.398056 A    
C161  H43   1.082704 S    
C120  C148  1.398798 A    
N27   O91   1.301252 A    
C240  H90   1.110712 S    
C255  H124  1.108900 S    
C237  H83   1.110534 S    
C71   C77   1.396942 A    
C93   C95   1.412277 A    
C32   C56   1.406050 A    
C26   O84   1.382787 S    
O1    Cr1   2.007172 S    
C257  C258  1.522221 S    
C230  H66   1.110775 S    
C50   N4    1.382299 Am   
C236  C237  1.524182 S    
O46   Cr6   2.000362 S    
C1    O5    1.286713 A    
C80   C96   1.418362 A    
C2    O6    1.292717 A    
C48   C76   1.415253 A    
N32   O103  1.300800 A    
C34   C38   1.420371 A    
C125  C133  1.413173 A    
N30   O100  1.300659 A    
C255  H125  1.110731 S    
C241  H92   1.117489 S    
C211  C221  1.410798 A    
C63   C69   1.421666 A    
N21   O75   1.301172 A    
N23   O79   1.301423 A    
C212  C222  1.410671 A    
C65   C67   1.415418 A    
O7    Cr2   1.884446 S    
C4    C30   1.474703 S    
C82   C100  1.401312 A    
C226  O47   1.288579 A    
C151  O30   1.222538 D    
C159  H41   1.083107 S    
C245  C246  1.526428 S    
C235  H78   1.116509 S    
C77   H19   1.079532 S    
C178  C208  1.421190 A    
C59   C61   1.403969 A    
C144  H32   1.083903 S    
C198  H48   1.080391 S    
C93   C137  1.419588 A    
C161  C163  1.404805 A    
C54   H6    1.082880 S    
C8    C24   1.414700 A    
O4    C2    1.293194 A    
C269  H156  1.111004 S    
C98   C142  1.405487 A    
C231  H68   1.110306 S    
C32   C58   1.405968 A    
C90   C92   1.396152 A    
C15   C17   1.414836 A    
C262  H141  1.117407 S    
O42   Cr5   2.006961 S    
C25   O83   1.387048 S    
N25   O88   1.301496 A    
N23   O80   1.301540 A    
C132  C134  1.400357 A    
C12   H14   1.082973 S    
N11   C205  1.443883 S    
C157  H55   1.083620 S    
C153  C171  1.405675 A    
C265  C266  1.532344 S    
C8    O15   1.221222 D    
C146  C148  1.389036 A    
O3    C1    1.295162 A    
C235  C236  1.534616 S    
C80   O23   1.221620 D    
C31   C225  1.472987 S    
C260  C261  1.525893 S    
C122  N8    1.381914 Am   
O48   C227  1.297434 A    
C260  H136  1.108970 S    
N28   O94   1.301728 A    
C176  C202  1.409479 A    
C140  C150  1.411760 A    
C127  H25   1.084638 S    
C79   N5    1.380348 Am   
C138  C140  1.424697 A    
C233  H72   1.112045 S    
C17   C19   1.409720 A    
C18   C20   1.415882 A    
C264  H145  1.110212 S    
C103  C127  1.401203 A    
C28   C72   1.416674 A    
C179  C217  1.424434 A    
N2    C10   1.380945 Am   
N10   C154  1.381847 Am   
C254  C255  1.524602 S    
C200  O86   1.389203 S    
C33   C63   1.426191 A    
C31   C57   1.403513 A    
C58   H16   1.081971 S    
C242  H94   1.110995 S    
C145  C147  1.391251 A    
C116  C124  1.405106 A    
C252  H118  1.110975 S    
C239  H86   1.111651 S    
C38   C46   1.422364 A    
C249  H110  1.110370 S    
O5    Cr2   1.998717 S    
C106  C136  1.426739 A    
C240  H88   1.110391 S    
C234  H75   1.110416 S    
C114  C116  1.399171 A    
C59   H17   1.082947 S    
C193  O36   1.222053 D    
C221  H61   1.079967 S    
C108  C140  1.419938 A    
C42   C44   1.398062 A    
C44   C46   1.412698 A    
C22   C24   1.413967 A    
C32   C226  1.477104 S    
N20   O71   1.300765 A    
O2    C6    1.287758 A    
O39   Cr4   2.005683 S    
C152  N10   1.380515 Am   
C41   H7    1.083076 S    
C267  H152  1.110433 S    
C253  H120  1.117123 S    
C69   N31   1.444138 S    
O85   C259  1.417721 S    
O6    Cr2   2.002572 S    
C99   C143  1.399769 A    
O83   C253  1.420525 S    
C31   C55   1.403821 A    
C190  C192  1.412129 A    
C156  N26   1.441544 S    
N15   O56   1.301623 A    
C72   N14   1.435599 S    
C112  C114  1.389311 A    
C167  C169  1.401417 A    
C238  H85   1.114954 S    
C109  C117  1.419590 A    
N25   O87   1.301094 A    
C131  C133  1.403233 A    
C159  C173  1.402133 A    
C47   C49   1.415255 A    
C245  H100  1.111550 S    
C126  N18   1.440627 S    
O4    Cr1   1.889160 S    
N22   O78   1.301332 A    
C160  C162  1.393924 A    
C263  H142  1.111562 S    
C159  C161  1.399766 A    
C11   C13   1.391528 A    
C139  C149  1.410938 A    
C7    N1    1.380447 Am   
C214  H54   1.077255 S    
C158  C174  1.407685 A    
C184  C186  1.387964 A    
C155  N25   1.440407 S    
C54   C62   1.400971 A    
C34   C64   1.421505 A    
C247  H105  1.116048 S    
C217  N27   1.438233 S    
C35   C67   1.425524 A    
O49   Cr6   1.883511 S    
C10   O19   1.221418 D    
C243  H96   1.110583 S    
C180  C218  1.425781 A    
C80   N6    1.378223 Am   
C152  O31   1.222456 D    
C98   O62   1.384304 S    
N18   O68   1.301513 A    
C36   C38   1.418693 A    
C250  H113  1.114436 S    
C216  C222  1.389496 A    
C244  C245  1.532464 S    
C162  C164  1.402346 A    
C165  C167  1.409069 A    
O44   Cr5   1.880142 S    
O9    Cr3   1.998121 S    
Cr1   O13   1.961423 S    
N28   O93   1.301316 A    
C237  H82   1.109709 S    
N8    C134  1.442931 S    
C259  H134  1.117917 S    
N1    C19   1.444270 S    
C268  H154  1.111110 S    
C157  C173  1.402726 A    
C201  H59   1.083295 S    
C119  C147  1.400927 A    
C154  C172  1.403266 A    
C45   C47   1.408003 A    
C111  H29   1.080519 S    
Cr5   O50   1.960643 S    
C232  H71   1.112596 S    
C169  C213  1.393412 A    
C225  O46   1.288961 A    
C125  C127  1.397205 A    
C252  H116  1.109772 S    
C239  C240  1.525650 S    
C156  C158  1.402679 A    
C128  H26   1.082822 S    
N13   O52   1.301556 A    
N4    C62   1.441048 S    
C137  C139  1.422835 A    
C215  C221  1.390421 A    
C176  C228  1.486024 S    
O43   Cr5   1.997057 S    
O8    C4    1.296458 A    
C107  C139  1.420452 A    
C192  C194  1.412475 A    
C191  C219  1.412102 A    
O12   C6    1.298231 A    
C143  H31   1.083629 S    
C186  C188  1.399815 A    
O73   C247  1.415911 S    
C27   C71   1.416931 A    
C258  H131  1.109161 S    
C188  C190  1.411545 A    
C13   H11   1.081552 S    
C104  C130  1.417798 A    
C136  C142  1.425609 A    
C97   C141  1.409659 A    
O95   C265  1.419889 S    
N30   O99   1.301466 A    
C84   C86   1.411693 A    
C52   O17   1.222940 D    
O84   C256  1.414035 S    
C136  C138  1.420109 A    
C222  H62   1.080134 S    
Cr2   O13   1.963067 S    
N5    C81   1.381277 Am   
C6    C102  1.483862 S    
C218  C220  1.410476 A    
N31   O102  1.300358 A    
C60   H18   1.082774 S    
C43   C51   1.407466 A    
C219  O95   1.387716 S    
C179  C181  1.417050 A    
C36   C68   1.429791 A    
N19   O69   1.301650 A    
C201  C203  1.404658 A    
C202  C204  1.399290 A    
C142  N20   1.436441 S    
C263  C264  1.526023 S    
C210  C212  1.415558 A    
C83   C91   1.419640 A    
C197  C199  1.403204 A    
C11   C19   1.401104 A    
C198  C200  1.408191 A    
C12   C20   1.401929 A    
C248  H107  1.110974 S    
C115  C123  1.405625 A    
C129  C131  1.404741 A    
C73   N15   1.437908 S    
C170  H46   1.083049 S    
O11   Cr3   1.888058 S    
Cr4   O50   1.961203 S    
C74   N16   1.438967 S    
C246  H102  1.110869 S    
C88   C102  1.404901 A    
C46   C48   1.409709 A    
N12   C206  1.436531 S    
O40   Cr4   1.888512 S    
C172  C216  1.400669 A    
C220  O96   1.388805 S    
C171  C215  1.401129 A    
O48   Cr6   1.883116 S    
C79   C95   1.415353 A    
N7    C123  1.382258 Am   
