data_mof_unit_60264.cif
_audit_creation_date              2012-12-11T16:11:34-0500
_audit_creation_method            fapswitch 2.2
_symmetry_space_group_name_H-M    P1
_symmetry_Int_Tables_number       1
_space_group_crystal_system       triclinic
_cell_length_a                    19.852241
_cell_length_b                    19.891252
_cell_length_c                    20.724032
_cell_angle_alpha                 107.526817
_cell_angle_beta                  107.07953
_cell_angle_gamma                 111.309506
_cell_volume                      6478.51698549

loop_
_atom_site_label
_atom_site_type_symbol
_atom_type_description
_atom_site_fract_x
_atom_site_fract_y
_atom_site_fract_z
_atom_type_partial_charge
C1    C     C_R   0.723137 0.719259 0.645700 -0.135947
C2    C     C_R   0.574168 0.731353 0.504730 -0.127984
C3    C     C_R   0.478019 0.446245 0.281132 -0.059672
C4    C     C_R   0.462161 0.294561 0.531412 0.752226
C5    C     C_R   0.339886 0.565503 0.566007 -0.213313
C6    C     C_R   0.498490 0.516544 0.272709 -0.002816
C7    C     C_R   0.269817 0.497531 0.545163 -0.173145
C8    C     C_R   0.546293 0.773510 0.544744 0.073429
C9    C     C_R   0.261998 0.272942 0.273764 -0.098105
C10   C     C_3   0.045295 0.472166 0.641437 -0.269252
C11   C     C_3   0.035268 0.549092 0.657600 -0.210836
C12   C     C_R   0.510451 0.266467 0.511601 -0.116118
C13   C     C_1   0.818642 0.501511 0.544936 -0.044668
C14   C     C_1   0.212308 0.496364 0.572443 0.122075
C15   C     C_3   0.963492 0.422312 0.567176 -0.189489
C16   C     C_R   0.487999 0.553258 0.709431 0.714788
C17   C     C_3   0.955562 0.499052 0.583231 -0.001142
C18   C     C_3   0.009581 0.447716 0.523136 0.794393
C19   C     C_3   0.089919 0.496563 0.595822 -0.205590
C20   C     C_3   0.000379 0.523295 0.537777 -0.432958
C21   C     C_3   0.080137 0.571694 0.611432 0.787365
C22   C     C_1   0.880673 0.500535 0.566291 0.076763
C23   C     C_R   0.440559 0.482993 0.710946 -0.182798
C24   C     C_1   0.159725 0.496009 0.589007 0.130418
C25   C     C_3   0.637519 0.086585 0.658946 -0.278063
C26   C     C_3   0.659740 0.122081 0.606097 0.861604
C27   C     C_1   0.538746 0.220543 0.539438 0.085954
C28   C     C_R   0.669853 0.434589 0.466492 -0.105392
C29   C     C_1   0.573509 0.857109 0.570949 -0.033870
C30   C     C_3   0.555894 0.087627 0.631188 -0.402426
C31   C     C_3   0.579463 0.122505 0.579166 -0.285921
C32   C     C_3   0.515428 0.002138 0.565326 0.778377
C33   C     C_3   0.595460 0.001105 0.592114 -0.181294
C34   C     C_R   0.745180 0.502127 0.516059 0.085613
C35   C     C_3   0.538642 0.037012 0.514222 0.660364
C36   C     C_3   0.619023 0.036017 0.540071 -0.502738
C37   C     C_1   0.560775 0.179748 0.561014 0.183887
C38   C     C_1   0.589779 0.925434 0.586608 0.152802
C39   C     C_R   0.466572 0.520080 0.201083 0.133852
C40   C     C_R   0.419810 0.419270 0.644543 -0.128809
C41   C     C_R   0.464057 0.469386 0.135262 0.030988
C42   C     C_R   0.427486 0.469686 0.066684 -0.200139
C43   C     C_R   0.393752 0.520305 0.063097 0.199907
C44   C     C_R   0.397510 0.571547 0.128750 -0.149888
C45   C     C_R   0.544474 0.580888 0.345475 0.039100
C46   C     C_R   0.432248 0.570252 0.197046 -0.171019
C47   C     C_R   0.351135 0.525822 0.845968 -0.196813
C48   C     C_R   0.385142 0.534186 0.796906 -0.122191
C49   C     C_R   0.376817 0.403360 0.768795 -0.149103
C50   C     C_R   0.342478 0.394151 0.817420 0.015921
C51   C     C_R   0.333177 0.457802 0.859622 0.166397
C52   C     C_R   0.736237 0.569766 0.534794 -0.121330
C53   C     C_2   0.363769 0.526049 0.992432 -0.202211
C54   C     C_2   0.318794 0.458528 0.925709 -0.210018
C55   C     C_R   0.401324 0.474459 0.760412 0.141593
C56   C     C_R   0.273355 0.430851 0.505303 0.849800
C57   C     C_R   0.781515 0.849151 0.764258 0.136420
C58   C     C_R   0.757998 0.898136 0.805871 -0.178553
C59   C     C_R   0.814172 0.979167 0.857479 -0.150240
C60   C     C_R   0.894744 0.011922 0.868570 0.208422
C61   C     C_R   0.916459 0.964919 0.822801 -0.161762
C62   C     C_R   0.860416 0.883947 0.771306 -0.162747
C63   C     C_R   0.105094 0.218559 0.084238 -0.326319
C64   C     C_R   0.530934 0.295617 0.463762 -0.236685
C65   C     C_R   0.179007 0.256115 0.148428 0.744306
C66   C     C_R   0.118549 0.160305 0.192651 0.064036
C67   C     C_R   0.498905 0.724303 0.566115 -0.069547
C68   C     C_R   0.044364 0.123871 0.128401 -0.231927
C69   C     C_R   0.037548 0.151976 0.073758 0.121368
C70   C     C_2   0.960233 0.088585 0.935356 -0.230968
C71   C     C_2   0.960892 0.104883 0.003318 -0.125955
C72   C     C_R   0.186185 0.227524 0.203050 -0.086869
C73   C     C_R   0.651250 0.714932 0.710294 -0.090976
C74   C     C_R   0.724177 0.762450 0.712555 0.016578
C75   C     C_R   0.340459 0.303551 0.281532 -0.163621
C76   C     C_R   0.268699 0.302150 0.346083 0.756104
F1    F     F_    0.230496 0.355926 0.498103 -0.639705
F2    F     F_    0.242846 0.322054 0.158370 -0.704609
F3    F     F_    0.206528 0.285980 0.364240 -0.645398
F4    F     F_    0.141369 0.648559 0.634473 -0.669783
F5    F     F_    0.424730 0.274749 0.573240 -0.713685
F6    F     F_    0.997029 0.395258 0.453796 -0.654093
F7    F     F_    0.734198 0.185989 0.627282 -0.673778
F8    F     F_    0.486440 0.011332 0.439844 -0.643273
F9    F     F_    0.440125 0.938699 0.543093 -0.646530
F10   F     F_    0.508216 0.629677 0.755109 -0.741967
H1    H     H_    0.763181 0.743554 0.622853 0.098126
H2    H     H_    0.913975 0.360526 0.547934 0.169914
H3    H     H_    0.679344 0.106150 0.718329 0.179977
H4    H     H_    0.645100 0.014714 0.503069 0.205265
H5    H     H_    0.529187 0.108835 0.667535 0.211174
H6    H     H_    0.398928 0.587551 0.788192 0.189099
H7    H     H_    0.387096 0.355695 0.739608 0.157411
H8    H     H_    0.289675 0.400925 0.926369 0.141375
H9    H     H_    0.372690 0.611645 0.126874 0.137198
H10   H     H_    0.341661 0.574023 0.875359 0.139307
H11   H     H_    0.430394 0.607089 0.246260 0.136844
H12   H     H_    0.478213 0.742701 0.607644 0.116485
H13   H     H_    0.394167 0.585394 0.995409 0.144584
H14   H     H_    0.427892 0.432210 0.016717 0.119497
H15   H     H_    0.696759 0.873928 0.799547 0.125574
H16   H     H_    0.658053 0.373766 0.437001 0.106699
H17   H     H_    0.907166 0.068150 0.006551 0.132706
H18   H     H_    0.978368 0.989164 0.830636 0.123944
H19   H     H_    0.100680 0.241769 0.043052 0.169209
H20   H     H_    0.879969 0.847781 0.739424 0.121919
H21   H     H_    0.016118 0.119418 0.932330 0.142669
H22   H     H_    0.795570 0.015154 0.890915 0.127255
H23   H     H_    0.356879 0.286751 0.236486 0.152166
H24   H     H_    0.992454 0.071413 0.119472 0.136860
H25   H     H_    0.370887 0.357967 0.620537 0.223024
H26   H     H_    0.783438 0.632273 0.571357 0.108819
H27   H     H_    0.562115 0.278515 0.433067 0.154741
H28   H     H_    0.626606 0.734239 0.747665 0.161674
H29   H     H_    0.455601 0.359044 0.100064 0.117461
H30   H     H_    0.544676 0.435496 0.119672 0.117738
H31   H     H_    0.357582 0.336661 0.881907 0.101879
H32   H     H_    0.260842 0.293997 0.813987 0.120385
H33   H     H_    0.164176 0.103730 0.242882 0.113460
H34   H     H_    0.624487 0.758333 0.493366 0.118161
H35   H     H_    0.070001 0.080433 0.231625 0.136584
H36   H     H_    0.628405 0.666278 0.335684 0.115101
H37   H     H_    0.555638 0.686275 0.346387 0.107143
H38   H     H_    0.445916 0.385477 0.235752 0.118954
H39   H     H_    0.362075 0.626634 0.607512 0.174958
H40   H     H_    0.044711 0.591526 0.712749 0.157230
H41   H     H_    0.065095 0.451436 0.683894 0.185713
H42   H     H_    0.981768 0.544154 0.495046 0.187510
N1    N     N_R   0.652650 0.649400 0.604520 -0.044014
N2    N     N_R   0.494060 0.532730 0.644340 -0.115526
N3    N     N_R   0.615090 0.459670 0.459940 -0.043281
N4    N     N_R   0.452360 0.449090 0.604500 -0.093940
N5    N     N_R   0.656790 0.543310 0.499790 -0.047145
N6    N     N_R   0.501350 0.345910 0.459930 -0.077324
N7    N     N_R   0.607810 0.646480 0.644360 -0.045184
N8    N     N_R   0.547640 0.550910 0.395500 -0.047670
N9    N     N_3   0.500393 0.419259 0.138265 -0.221042
N10   N     N_3   0.321953 0.321437 0.825853 -0.203031
N11   N     N_3   0.126097 0.128240 0.246361 -0.135917
N12   N     N_R   0.343210 0.456690 0.500210 -0.132692
N13   N     N_3   0.593541 0.663960 0.365047 -0.221317
N14   N     N_R   0.498650 0.654090 0.540070 -0.045500
N15   N     N_R   0.392190 0.353520 0.355640 -0.087161
N16   N     N_R   0.347350 0.350600 0.395480 -0.127797
N17   N     N_R   0.543500 0.657010 0.500230 -0.043325
N18   N     N_R   0.505940 0.467270 0.355660 -0.054303
N19   N     N_R   0.384910 0.540330 0.540060 -0.089622
N20   N     N_R   0.456500 0.342990 0.499770 -0.116404
Ni1   Ni    Ni4+2 0.599250 0.599260 0.500010 0.216065
Ni2   Ni    Ni4+2 0.400750 0.400740 0.499990 0.296990
Ni3   Ni    Ni4+2 0.496390 0.592570 0.591380 0.236467
Ni4   Ni    Ni4+2 0.503610 0.407430 0.408620 0.206080

loop_
_geom_bond_atom_site_label_1
_geom_bond_atom_site_label_2
_ccdc_geom_bond_type
C1    H1    S    
C48   C55   A    
C66   C68   A    
C63   C65   A    
C26   F7    S    
C5    N19   A    
C6    C45   A    
C15   C18   S    
N4    Ni2   S    
C73   C74   A    
N2    N4    A    
H31   N10   S    
C9    C72   S    
C3    C6    A    
C17   C20   S    
N8    Ni1   S    
C57   C62   A    
C39   C41   A    
C53   C54   D    
C53   H13   S    
C2    N17   A    
C8    C29   S    
C19   C21   S    
N20   Ni2   S    
C20   H42   S    
C1    N1    A    
C70   H21   S    
C30   C31   S    
C56   N12   A    
N7    Ni3   S    
C52   H26   S    
N15   N16   A    
C4    N20   A    
C33   C36   S    
C18   C19   S    
C41   C42   A    
C14   C24   T    
C69   C71   S    
N16   Ni2   S    
C67   H12   S    
N1    N7    A    
C43   C53   S    
C7    C14   S    
C66   C72   A    
C66   N11   S    
H29   N9    S    
C68   C69   A    
C29   C38   T    
C47   H10   S    
C76   F3    S    
C70   C71   D    
C64   H27   S    
C9    C76   A    
C63   H19   S    
C16   N2    A    
C41   N9    S    
C40   N4    A    
C28   C34   A    
C59   C60   A    
C16   F10   S    
C52   N5    A    
N14   N17   A    
H37   N13   S    
N3    Ni4   S    
C7    C56   A    
N12   N19   A    
C44   C46   A    
C40   H25   S    
C64   N6    A    
C75   H23   S    
C4    F5    S    
C12   C27   S    
C32   C35   S    
C63   C69   A    
C61   H18   S    
N5    Ni1   S    
C5    C7    A    
C2    H34   S    
C47   C51   A    
C25   C26   S    
C49   C55   A    
C11   C21   S    
C73   N7    A    
C73   H28   S    
C31   C37   S    
C60   C61   A    
C35   C36   S    
N14   Ni3   S    
N19   Ni3   S    
C43   C44   A    
N1    Ni1   S    
C42   H14   S    
C47   C48   A    
C60   C70   S    
C10   C19   S    
N6    Ni4   S    
C11   H40   S    
C50   C51   A    
C58   H15   S    
C68   H24   S    
C75   N15   A    
C45   N13   S    
C39   C46   A    
N18   Ni4   S    
C76   N16   A    
C26   C36   S    
N15   Ni4   S    
C46   H11   S    
C16   C23   A    
C31   C35   S    
C4    C12   A    
C42   C43   A    
C1    C74   A    
C10   H41   S    
N12   Ni2   S    
C3    H38   S    
H30   N9    S    
C36   H4    S    
C25   C30   S    
C15   C17   S    
C71   H17   S    
C11   C17   S    
C45   N8    A    
C65   F2    S    
C34   C52   A    
C2    C8    A    
C17   C22   S    
C30   H5    S    
N3    N5    A    
C35   F8    S    
C50   N10   S    
C23   C55   S    
C62   H20   S    
C65   C72   A    
N6    N20   A    
C25   H3    S    
C59   H22   S    
C10   C15   S    
C51   C54   S    
H33   N11   S    
C32   C33   S    
C28   N3    A    
C19   C24   S    
C58   C59   A    
C8    C67   A    
C13   C34   S    
C44   H9    S    
C30   C32   S    
H35   N11   S    
C57   C58   A    
C27   C37   T    
C12   C64   A    
C32   F9    S    
C21   F4    S    
C18   F6    S    
C13   C22   T    
C18   C20   S    
C61   C62   A    
N8    N18   A    
C54   H8    S    
C10   C11   S    
C56   F1    S    
C28   H16   S    
C26   C31   S    
C20   C21   S    
C3    N18   A    
C49   C50   A    
C48   H6    S    
C5    H39   S    
N2    Ni3   S    
C6    C39   S    
C33   C38   S    
C9    C75   A    
H36   N13   S    
C49   H7    S    
H32   N10   S    
C67   N14   A    
N17   Ni1   S    
C23   C40   A    
C25   C33   S    
C15   H2    S    
C57   C74   S    
