data_mof_unit_66707.cif
_audit_creation_date              2013-03-05T15:41:25-0500
_audit_creation_method            fapswitch 2.2
_symmetry_space_group_name_H-M    P1
_symmetry_Int_Tables_number       1
_space_group_crystal_system       triclinic
_cell_length_a                    11.883719
_cell_length_b                    18.45874
_cell_length_c                    10.366752
_cell_angle_alpha                 89.48021
_cell_angle_beta                  110.511589
_cell_angle_gamma                 90.874545
_cell_volume                      2129.59923417

loop_
_atom_site_label
_atom_site_type_symbol
_atom_site_description
_atom_site_fract_x
_atom_site_fract_y
_atom_site_fract_z
_atom_type_partial_charge
O1    O     O_R   0.267710 0.668200 0.902110 -0.482059
O2    O     O_R   0.732290 0.331800 0.097890 -0.493778
O3    O     O_R   0.732290 0.168200 0.097890 -0.482135
O4    O     O_R   0.267710 0.831800 0.902110 -0.499605
O5    O     O_R   0.099480 0.674460 0.038850 -0.476167
O6    O     O_R   0.900520 0.325540 0.961150 -0.475737
O7    O     O_R   0.900520 0.174460 0.961150 -0.488088
O8    O     O_R   0.099480 0.825540 0.038850 -0.474713
C1    C     C_R   0.080000 0.644032 0.143115 0.614680
C2    C     C_R   0.865815 0.359267 0.840852 0.559056
C3    C     C_R   0.920871 0.144901 0.858103 0.582910
C4    C     C_R   0.135886 0.859538 0.159043 0.551194
O9    O     O_R   0.116720 0.669210 0.267660 -0.488258
O10   O     O_R   0.883280 0.330790 0.732340 -0.493088
O11   O     O_R   0.883280 0.169210 0.732340 -0.498632
O12   O     O_R   0.116720 0.830790 0.267660 -0.482180
O13   O     O_R   0.366710 0.675440 0.427590 -0.470088
O14   O     O_R   0.633290 0.324560 0.572410 -0.501719
O15   O     O_R   0.633290 0.175440 0.572410 -0.472311
O16   O     O_R   0.366710 0.824560 0.427590 -0.514743
C5    C     C_R   0.467074 0.645810 0.437767 0.625894
C6    C     C_R   0.530348 0.352667 0.559612 0.528667
C7    C     C_R   0.532230 0.145634 0.561969 0.611139
C8    C     C_R   0.472338 0.851839 0.441265 0.563787
O17   O     O_R   0.534870 0.669390 0.371760 -0.488850
O18   O     O_R   0.465130 0.330610 0.628240 -0.522475
O19   O     O_R   0.465130 0.169390 0.628240 -0.498160
O20   O     O_R   0.534870 0.830610 0.371760 -0.514370
O21   O     O_R   0.453080 0.674480 0.075160 -0.463419
O22   O     O_R   0.546920 0.325520 0.924840 -0.447321
O23   O     O_R   0.546920 0.174480 0.924840 -0.447736
O24   O     O_R   0.453080 0.825520 0.075160 -0.459069
C9    C     C_R   0.375154 0.645069 0.968557 0.614695
C10   C     C_R   0.642714 0.362890 0.994743 0.553525
C11   C     C_R   0.643115 0.139084 0.996682 0.592600
C12   C     C_R   0.359428 0.862789 0.002501 0.550985
Cr1   Cr    Cr6+3 0.187610 0.750000 0.979860 1.080428
Cr2   Cr    Cr6+3 0.812390 0.250000 0.020140 1.070431
Cr3   Cr    Cr6+3 0.245810 0.750000 0.341640 1.068896
Cr4   Cr    Cr6+3 0.754190 0.250000 0.658360 1.053405
Cr5   Cr    Cr6+3 0.485760 0.750000 0.219910 1.077648
Cr6   Cr    Cr6+3 0.514240 0.250000 0.780090 1.075695
O25   O     O_3   0.306390 0.750000 0.180470 -0.346137
O26   O     O_3   0.693610 0.250000 0.819530 -0.358645
C13   C     C_R   0.492913 0.420179 0.477776 -0.000671
C14   C     C_R   0.487884 0.570997 0.491658 0.051193
C15   C     C_R   0.516188 0.918720 0.522655 0.052544
C16   C     C_R   0.512473 0.070469 0.506981 0.051929
C17   C     C_R   0.283528 0.407863 0.443458 0.155015
C18   C     C_R   0.704281 0.569295 0.480688 0.142320
C19   C     C_R   0.721148 0.914753 0.530721 0.148435
C20   C     C_R   0.302457 0.057279 0.529593 0.162946
C21   C     C_R   0.195289 0.427785 0.493663 0.178997
C22   C     C_R   0.791245 0.527120 0.451986 0.145384
C23   C     C_R   0.805710 0.940453 0.476560 0.151823
C24   C     C_R   0.219397 0.010567 0.560757 0.147573
C25   C     C_R   0.201893 0.496046 0.554091 0.158341
C26   C     C_R   0.767637 0.454490 0.414771 0.153089
C27   C     C_R   0.794369 0.010812 0.422170 0.099004
C28   C     C_R   0.249217 0.938303 0.602321 0.131539
C29   C     C_R   0.286492 0.549101 0.542782 0.124216
C30   C     C_R   0.654468 0.425469 0.394575 0.102871
C31   C     C_R   0.709916 0.059563 0.442506 0.101639
C32   C     C_R   0.364798 0.915701 0.622391 0.124512
C33   C     C_R   0.386675 0.527006 0.501750 -0.028326
C34   C     C_R   0.579266 0.460897 0.449236 -0.055516
C35   C     C_R   0.613067 0.031241 0.487424 -0.045464
C36   C     C_R   0.433785 0.955421 0.561010 -0.062366
C37   C     C_R   0.387010 0.452208 0.471631 0.006345
C38   C     C_R   0.591649 0.535489 0.477808 0.025765
C39   C     C_R   0.616899 0.955227 0.513542 0.014830
C40   C     C_R   0.415375 0.029498 0.529794 0.006466
C41   C     C_2   0.392579 0.939517 0.992496 0.068657
C42   C     C_2   0.615151 0.065110 0.008893 0.064404
C43   C     C_2   0.611446 0.440184 0.999883 0.077731
C44   C     C_2   0.396450 0.569371 0.964582 0.095100
C45   C     C_2   0.506483 0.965132 0.060324 0.102468
C46   C     C_2   0.536154 0.042489 0.066297 0.108192
C47   C     C_2   0.499958 0.465895 0.924422 0.102371
C48   C     C_2   0.474342 0.543767 0.911160 0.074560
C49   C     C_2   0.128898 0.938335 0.146291 0.098476
C50   C     C_2   0.967803 0.070992 0.882472 0.110913
C51   C     C_2   0.875337 0.437627 0.853771 0.089731
C52   C     C_2   0.030501 0.569813 0.120581 0.118319
C53   C     C_2   0.034015 0.969862 0.050614 0.172826
C54   C     C_2   0.030924 0.048482 0.011433 0.166865
C55   C     C_2   0.970472 0.469227 0.950378 0.127570
C56   C     C_2   0.972819 0.546933 0.990108 0.145345
N1    N     N_3   0.102690 0.376640 0.491060 -0.596919
H1    H     H_    0.060455 0.359053 0.389661 0.268074
H2    H     H_    0.142450 0.331788 0.551154 0.247881
N2    N     N_3   0.900982 0.559301 0.449903 -0.572786
H3    H     H_    0.946343 0.582844 0.545280 0.264799
H4    H     H_    0.880567 0.600451 0.375708 0.246332
N3    N     N_3   0.898052 0.892216 0.470094 -0.598673
H5    H     H_    0.856773 0.846728 0.412745 0.246921
H6    H     H_    0.949235 0.915041 0.416105 0.310449
N4    N     N_3   0.105071 0.038673 0.550747 -0.641396
H7    H     H_    0.118913 0.080659 0.621759 0.246422
H8    H     H_    0.053566 0.999595 0.577522 0.284353
N5    N     N_3   0.124385 0.511817 0.630243 -0.581574
H9    H     H_    0.177393 0.524353 0.731591 0.260730
H10   H     H_    0.071224 0.467407 0.636937 0.302390
N6    N     N_3   0.861054 0.410277 0.403773 -0.561533
H11   H     H_    0.867688 0.364745 0.466701 0.265013
H12   H     H_    0.838096 0.392433 0.303137 0.282456
N7    N     N_3   0.864504 0.029986 0.338022 -0.600607
H13   H     H_    0.920630 0.074265 0.378182 0.279637
H14   H     H_    0.806813 0.043478 0.239488 0.277530
N8    N     N_3   0.159067 0.887478 0.610689 -0.592503
H15   H     H_    0.187721 0.834064 0.614963 0.276554
H16   H     H_    0.138574 0.897589 0.698602 0.287700
N9    N     N_3   0.268814 0.340727 0.368426 -0.575593
H17   H     H_    0.280192 0.297004 0.436304 0.259237
H18   H     H_    0.330844 0.336553 0.318323 0.284506
N10   N     N_3   0.734549 0.644420 0.514840 -0.546187
H19   H     H_    0.820845 0.650547 0.584299 0.238990
H20   H     H_    0.740814 0.670075 0.427084 0.236812
N11   N     N_3   0.738042 0.845687 0.600294 -0.539779
H21   H     H_    0.739501 0.804933 0.531700 0.255826
H22   H     H_    0.822472 0.846216 0.677973 0.280885
N12   N     N_3   0.263442 0.129450 0.484043 -0.547773
H23   H     H_    0.175202 0.126962 0.416168 0.269470
H24   H     H_    0.256178 0.157271 0.568209 0.243965
I1    I     I_    0.242876 0.653361 0.605086 -0.238294
I2    I     I_    0.581316 0.331651 0.271543 -0.179907
I3    I     I_    0.752655 0.168651 0.391750 -0.225739
I4    I     I_    0.442558 0.820315 0.739723 -0.143810
I5    I     I_    0.455937 0.115719 0.165722 -0.199640
I6    I     I_    0.667280 0.901195 0.146498 -0.254827
I7    I     I_    0.561889 0.615781 0.815300 -0.227385
I8    I     I_    0.335933 0.401822 0.840870 -0.268281
I9    I     I_    0.634840 0.012307 0.844047 -0.351881
I10   I     I_    0.252738 0.011610 0.894196 -0.383643
I11   I     I_    0.376514 0.519089 0.138579 -0.280634
I12   I     I_    0.747813 0.513687 0.107977 -0.380939
I13   I     I_    0.138552 0.130333 0.145860 -0.221897
I14   I     I_    0.878032 0.902293 0.957779 -0.207890
I15   I     I_    0.873623 0.627128 0.848486 -0.238732
I16   I     I_    0.127276 0.404893 0.045213 -0.213685
N13   N     N_3   0.929868 0.021053 0.770361 -0.606775
H25   H     H_    0.952228 0.044662 0.691121 0.244515
H26   H     H_    0.836279 0.018653 0.735003 0.253883
N14   N     N_3   0.232509 0.978699 0.226151 -0.591930
H27   H     H_    0.246434 0.964071 0.327241 0.234162
H28   H     H_    0.306340 0.959874 0.204510 0.214106
N15   N     N_3   0.064869 0.520717 0.235976 -0.594815
H29   H     H_    0.008323 0.475138 0.214599 0.265386
H30   H     H_    0.046242 0.546224 0.315305 0.283017
N16   N     N_3   0.772007 0.477378 0.775837 -0.592032
H31   H     H_    0.761531 0.466886 0.674509 0.229437
H32   H     H_    0.697021 0.454931 0.792262 0.212508

loop_
_geom_bond_atom_site_label_1
_geom_bond_atom_site_label_2
_geom_bond_distance
_ccdc_geom_bond_type
C26   C30   1.386427 A    
C51   C55   1.348472 D    
C55   C56   1.493053 S    
O4    C12   1.339833 A    
C11   C42   1.415428 S    
N5    H9    1.044215 S    
O23   Cr6   1.978891 S    
O5    Cr1   1.950361 S    
N7    H14   1.041774 S    
O20   Cr5   2.098776 S    
C17   N9    1.444618 S    
N3    H5    1.044602 S    
C24   N4    1.430921 S    
C55   I16   2.147468 S    
N6    H12   1.036998 S    
C22   N2    1.431717 S    
N15   H29   1.044161 S    
O1    C9    1.296937 A    
C45   C46   1.462194 S    
O7    C3    1.301166 A    
C18   C22   1.416648 A    
Cr6   O26   2.024858 S    
C32   C36   1.397624 A    
N15   H30   1.041518 S    
C46   I5    2.133411 S    
C5    C14   1.476446 S    
C23   C27   1.400583 A    
N13   H26   1.042294 S    
C33   C37   1.418660 A    
C42   I9    2.059739 S    
O21   C9    1.285278 A    
C2    C51   1.452854 S    
N10   H19   1.031221 S    
O13   Cr3   1.973140 S    
O14   Cr4   1.973139 S    
N8    H15   1.043502 S    
C1    O9    1.297418 A    
C54   I13   2.142601 S    
C3    O11   1.299238 A    
C49   N14   1.423170 S    
C4    O12   1.329115 A    
O3    Cr2   2.075414 S    
C32   I4    2.157921 S    
C19   N11   1.440654 S    
N7    H13   1.039793 S    
O6    Cr2   1.950360 S    
C7    O19   1.303907 A    
N1    H2    1.045510 S    
C8    O20   1.270516 A    
C35   C39   1.424975 A    
O1    Cr1   2.106953 S    
C10   C43   1.485931 S    
C51   N16   1.421439 S    
O2    C10   1.347484 A    
N5    H10   1.043921 S    
C48   I7    2.120219 S    
C17   C37   1.410515 A    
Cr5   O25   2.024858 S    
C19   C39   1.412749 A    
C16   C40   1.456246 A    
C50   N13   1.429450 S    
N6    H11   1.046041 S    
C44   I11   2.105612 S    
Cr2   O26   2.064047 S    
O15   Cr4   1.953729 S    
N11   H22   1.043498 S    
C3    C50   1.467764 S    
C31   C35   1.472260 A    
O9    Cr3   2.071689 S    
O22   C10   1.305323 A    
C13   C37   1.379606 A    
C52   C56   1.352591 D    
C30   C34   1.388126 A    
C14   C33   1.474375 A    
N14   H28   1.043821 S    
C2    O10   1.327597 A    
O17   Cr5   2.091145 S    
C30   I2    2.144419 S    
O16   Cr3   1.953728 S    
C21   C25   1.401096 A    
C43   I12   2.100139 S    
Cr3   O25   2.037848 S    
C1    C52   1.470503 S    
C53   C54   1.500954 S    
C27   N7    1.440778 S    
C24   C28   1.409802 A    
C36   C40   1.404912 A    
Cr1   O25   2.064047 S    
O15   C7    1.283180 A    
C56   I15   2.130116 S    
O5    C1    1.302972 A    
C20   C40   1.443139 A    
O2    Cr2   2.106953 S    
C9    C44   1.427350 S    
O3    C11   1.313909 A    
O8    C4    1.327279 A    
C18   N10   1.442955 S    
N2    H4    1.044828 S    
C41   I10   2.104072 S    
C15   C39   1.396033 A    
C6    O18   1.282239 A    
C23   N3    1.443599 S    
N4    H8    1.036317 S    
C21   N1    1.432080 S    
N16   H32   1.043324 S    
C26   N6    1.424607 S    
O8    Cr1   1.980910 S    
O24   Cr5   1.978889 S    
N12   H24   1.046299 S    
O24   C12   1.306036 A    
C15   C36   1.368931 A    
O18   Cr6   2.091144 S    
N9    H17   1.044582 S    
C22   C26   1.395345 A    
C52   N15   1.438187 S    
C5    O17   1.295003 A    
C7    C16   1.488531 S    
O21   Cr5   1.989689 S    
O14   C6    1.299122 A    
C8    C15   1.482795 S    
C44   C48   1.328264 D    
N14   H27   1.035968 S    
O6    C2    1.321454 A    
C20   N12   1.437603 S    
N11   H21   1.044319 S    
N3    H6    1.042682 S    
C25   C29   1.426197 A    
C25   N5    1.441629 S    
C27   C31   1.428552 A    
C28   C32   1.385489 A    
C18   C38   1.459004 A    
C50   C54   1.348815 D    
N13   H25   1.038386 S    
O19   Cr6   2.098778 S    
C34   C38   1.405639 A    
C17   C21   1.379635 A    
C47   I8    2.171067 S    
O23   C11   1.306020 A    
N2    H3    1.041238 S    
O7    Cr2   1.980911 S    
N10   H20   1.046908 S    
C4    C49   1.460287 S    
C19   C23   1.387861 A    
C45   I6    2.166965 S    
C16   C35   1.481025 A    
N8    H16   1.041519 S    
O11   Cr4   2.095248 S    
C14   C38   1.456444 A    
C28   N8    1.438176 S    
C12   C41   1.476762 S    
O12   Cr3   2.095247 S    
O10   Cr4   2.071688 S    
C47   C48   1.469063 S    
C29   C33   1.462029 A    
Cr4   O26   2.037849 S    
C6    C13   1.484538 S    
O4    Cr1   2.075412 S    
C49   C53   1.348947 D    
N4    H7    1.044614 S    
C42   C46   1.335971 D    
C13   C34   1.375033 A    
N12   H23   1.038680 S    
C41   C45   1.367373 D    
N16   H31   1.033320 S    
O22   Cr6   1.989689 S    
C29   I1    2.162666 S    
N1    H1    1.045826 S    
C43   C47   1.370647 D    
C53   I14   2.149156 S    
O16   C8    1.306363 A    
C31   I3    2.174018 S    
C20   C24   1.419353 A    
N9    H18   1.043979 S    
O13   C5    1.289758 A    
