data_mof_unit_60287.cif
_audit_creation_date              2012-12-10T20:02:48-0500
_audit_creation_method            fapswitch 2.2
_symmetry_space_group_name_H-M    P1
_symmetry_Int_Tables_number       1
_space_group_crystal_system       triclinic
_cell_length_a                    38.702819
_cell_length_b                    32.0131
_cell_length_c                    21.60547
_cell_angle_alpha                 90.927012
_cell_angle_beta                  55.885172
_cell_angle_gamma                 90.478832
_cell_volume                      22159.6503581

loop_
_atom_site_label
_atom_site_type_symbol
_atom_type_description
_atom_site_fract_x
_atom_site_fract_y
_atom_site_fract_z
_atom_type_partial_charge
C1    C     C_R   0.919275 0.500015 0.579851 0.940897
C2    C     C_3   0.006344 0.500582 0.683043 -0.207728
C3    C     C_R   0.477056 0.227736 0.977081 -0.189633
C4    C     C_R   0.000102 0.706692 0.998741 0.174347
C5    C     C_R   0.500050 0.206685 0.998829 0.175261
C6    C     C_1   0.500052 0.337921 0.998213 -0.072001
C7    C     C_1   0.000120 0.837926 0.998087 -0.068329
C8    C     C_1   0.000000 0.662252 0.999255 -0.081520
C9    C     C_1   0.499975 0.162247 0.999279 -0.082592
C10   C     C_1   0.999965 0.624913 0.999676 -0.203268
C11   C     C_1   0.499953 0.124909 0.999654 -0.202895
C12   C     C_1   0.499933 0.624713 0.002073 -0.161766
C13   C     C_3   0.495029 0.998780 0.315145 -0.186341
C14   C     C_1   0.999954 0.124717 0.002058 -0.162767
C15   C     C_1   0.500005 0.375286 0.998619 -0.173083
C16   C     C_1   0.000050 0.875289 0.998550 -0.168966
C17   C     C_R   0.529273 0.728136 0.012611 0.423802
C18   C     C_R   0.468513 0.728318 0.005367 0.426405
C19   C     C_R   0.029845 0.228096 0.011312 0.422771
C20   C     C_R   0.968173 0.228375 0.006810 0.425767
C21   C     C_R   0.499142 0.706589 0.007583 -0.079200
C22   C     C_R   0.999240 0.206597 0.007615 -0.078932
C23   C     C_R   0.998765 0.293492 0.011868 0.045354
C24   C     C_3   0.506350 0.000575 0.683038 -0.207815
C25   C     C_R   0.498620 0.793480 0.011639 0.046931
C26   C     C_R   0.968607 0.272032 0.007508 -0.300500
C27   C     C_R   0.028966 0.271800 0.014799 -0.294340
C28   C     C_R   0.468931 0.771972 0.005986 -0.299229
C29   C     C_R   0.528358 0.771840 0.015999 -0.295917
C30   C     C_3   0.957866 0.528191 0.326966 0.457920
C31   C     C_3   0.038531 0.535037 0.679648 0.458391
C32   C     C_3   0.459571 0.030613 0.324954 0.453897
C33   C     C_3   0.538671 0.034901 0.679502 0.458462
C34   C     C_3   0.959861 0.523801 0.252717 -0.544337
C35   C     C_3   0.999841 0.500215 0.189767 -0.203896
C36   C     C_3   0.028439 0.537300 0.761022 -0.636436
C37   C     C_3   0.461809 0.026258 0.250459 -0.546173
C38   C     C_3   0.528568 0.037219 0.760879 -0.636808
C39   C     C_3   0.039022 0.517205 0.249211 0.204526
C40   C     C_3   0.960204 0.511828 0.750634 0.231529
C41   C     C_3   0.539701 0.013809 0.248751 0.198305
C42   C     C_3   0.460255 0.012017 0.750599 0.231703
C43   C     C_3   0.961587 0.576505 0.342400 -0.340582
C44   C     C_3   0.936929 0.590785 0.425479 -0.278305
C45   C     C_3   0.958730 0.626397 0.438653 -0.883131
C46   C     C_3   0.000908 0.499774 0.809613 -0.248273
C47   C     C_3   0.034119 0.580696 0.656992 -0.399416
C48   C     C_3   0.063694 0.591013 0.573012 -0.229510
C49   C     C_3   0.045607 0.624695 0.549634 -0.880775
C50   C     C_3   0.466287 0.078584 0.337482 -0.337807
C51   C     C_3   0.442053 0.094608 0.419648 -0.273014
C52   C     C_3   0.465866 0.128796 0.431009 -0.888869
C53   C     C_3   0.534449 0.080566 0.656621 -0.399471
C54   C     C_3   0.564047 0.090720 0.572579 -0.229931
C55   C     C_3   0.546095 0.124454 0.549030 -0.880670
C56   C     C_3   0.063758 0.428342 0.115188 0.133022
C57   C     C_3   0.499481 0.998965 0.190232 -0.185036
C58   C     C_3   0.084269 0.389511 0.066288 -0.880979
C59   C     C_3   0.980577 0.407764 0.856617 0.112951
C60   C     C_3   0.982840 0.361726 0.870812 -0.856547
C61   C     C_3   0.556083 0.922315 0.121084 0.119883
C62   C     C_3   0.573532 0.881330 0.077441 -0.880821
C63   C     C_3   0.480227 0.907823 0.856902 0.113179
C64   C     C_3   0.482317 0.861751 0.871111 -0.855959
C65   C     C_3   0.106013 0.511102 0.225860 0.097507
C66   C     C_3   0.141475 0.480403 0.200305 -0.809041
C67   C     C_3   0.892243 0.508113 0.778298 0.125454
C68   C     C_3   0.500903 0.999790 0.809621 -0.247543
C69   C     C_3   0.858258 0.476421 0.797422 -0.827369
C70   C     C_3   0.608500 0.004722 0.215338 0.100315
C71   C     C_3   0.641097 0.971661 0.196530 -0.820831
C72   C     C_3   0.392298 0.008642 0.778186 0.125566
C73   C     C_3   0.358143 0.977116 0.797584 -0.827616
C74   C     C_3   0.707826 0.450131 0.920615 0.093957
C75   C     C_3   0.680755 0.419088 0.982045 -0.800427
C76   C     C_3   0.294555 0.402395 0.168594 0.102447
C77   C     C_3   0.321844 0.371890 0.104706 -0.811368
C78   C     C_3   0.208040 0.951774 0.921561 0.093444
C79   C     C_3   0.038482 0.523829 0.179161 0.266560
C80   C     C_3   0.180977 0.921229 0.983958 -0.798837
C81   C     C_3   0.792102 0.953437 0.074049 0.093299
C82   C     C_3   0.819447 0.923590 0.009027 -0.802056
C83   C     C_3   0.706903 0.599434 0.755779 0.092630
C84   C     C_3   0.678453 0.629580 0.750659 -0.810086
C85   C     C_3   0.292028 0.598440 0.253743 0.101138
C86   C     C_3   0.320616 0.628556 0.259883 -0.816178
C87   C     C_3   0.206989 0.098909 0.752463 0.092968
C88   C     C_3   0.178493 0.128612 0.746627 -0.811717
C89   C     C_3   0.793095 0.097806 0.254868 0.092541
C90   C     C_3   0.956340 0.503947 0.824505 0.249851
C91   C     C_3   0.821305 0.127020 0.263694 -0.810405
C92   C     C_3   0.882285 0.528889 0.398855 0.105110
C93   C     C_3   0.847323 0.529072 0.481725 -0.844439
C94   C     C_3   0.112941 0.539941 0.626070 0.096333
C95   C     C_3   0.152483 0.537189 0.547350 -0.853948
C96   C     C_3   0.384169 0.036165 0.395923 0.108349
C97   C     C_3   0.349079 0.038457 0.478662 -0.851238
C98   C     C_3   0.613093 0.039520 0.625941 0.094425
C99   C     C_3   0.652636 0.036594 0.547248 -0.850160
C100  C     C_3   0.597213 0.707948 0.950217 0.105506
C101  C     C_3   0.540061 0.018807 0.177526 0.239757
C102  C     C_3   0.627315 0.679393 0.953605 -0.824450
C103  C     C_3   0.401066 0.706840 0.065973 0.101843
C104  C     C_3   0.371314 0.678772 0.059446 -0.815906
C105  C     C_3   0.097819 0.207780 0.946695 0.105998
C106  C     C_3   0.128379 0.179209 0.948694 -0.825567
C107  C     C_3   0.900628 0.206964 0.069449 0.106379
C108  C     C_3   0.870397 0.178901 0.064290 -0.826823
C109  C     C_3   0.064683 0.583186 0.100407 0.108937
C110  C     C_3   0.104745 0.595313 0.093873 -0.926342
C111  C     C_3   0.935966 0.571790 0.884881 0.131217
C112  C     C_R   0.080721 0.499974 0.420415 0.896658
C113  C     C_3   0.456351 0.004127 0.824504 0.249672
C114  C     C_3   0.896458 0.595757 0.941288 -0.830509
C115  C     C_3   0.578799 0.074644 0.098162 0.095819
C116  C     C_3   0.575393 0.120101 0.082852 -0.823079
C117  C     C_3   0.436227 0.072017 0.884729 0.132689
C118  C     C_3   0.396827 0.096111 0.941196 -0.833507
C119  C     C_3   0.026584 0.383938 0.273318 0.188446
C120  C     C_3   0.030355 0.362697 0.332039 -0.878975
C121  C     C_3   0.988036 0.384311 0.704151 0.167628
C122  C     C_3   0.978410 0.369982 0.647540 -0.826100
C123  C     C_3   0.518267 0.882029 0.282769 0.191280
C124  C     C_3   0.995356 0.453620 0.215911 0.174046
C125  C     C_3   0.521340 0.861346 0.342704 -0.876006
C126  C     C_3   0.487536 0.884398 0.704562 0.166881
C127  C     C_3   0.477865 0.870172 0.647963 -0.823651
C128  C     C_3   0.949106 0.430086 0.361155 -0.401442
C129  C     C_3   0.915330 0.415442 0.348879 -0.413146
C130  C     C_3   0.878158 0.396131 0.419518 -0.846786
C131  C     C_3   0.059777 0.436987 0.617986 -0.392288
C132  C     C_3   0.094238 0.416827 0.622997 -0.376459
C133  C     C_3   0.126508 0.394391 0.549964 -0.899278
C134  C     C_3   0.444179 0.933333 0.368177 -0.403018
C135  C     C_3   0.023509 0.458850 0.761302 0.190458
C136  C     C_3   0.409199 0.920362 0.358055 -0.409494
C137  C     C_3   0.371361 0.903308 0.430450 -0.845676
C138  C     C_3   0.559528 0.936747 0.618273 -0.392132
C139  C     C_3   0.593865 0.916400 0.623435 -0.382865
C140  C     C_3   0.626029 0.893788 0.550536 -0.883996
C141  C     C_3   0.490655 0.953124 0.221129 0.161890
C142  C     C_3   0.523345 0.958782 0.761467 0.190688
C143  C     C_R   0.728383 0.470873 0.804725 0.427398
C144  C     C_R   0.271679 0.469453 0.196799 0.427220
C145  C     C_R   0.228418 0.971295 0.805170 0.427711
C146  C     C_R   0.771739 0.971621 0.191950 0.428689
C147  C     C_R   0.706508 0.500856 0.792762 -0.080350
C148  C     C_R   0.419277 0.000015 0.579749 0.938376
C149  C     C_R   0.293489 0.500053 0.209097 -0.081609
C150  C     C_R   0.206514 0.000839 0.792453 -0.080197
C151  C     C_R   0.793481 0.000608 0.207378 -0.081108
C152  C     C_R   0.727931 0.531672 0.738355 0.429370
C153  C     C_R   0.271997 0.530422 0.265911 0.428335
C154  C     C_R   0.227912 0.031193 0.737109 0.429548
C155  C     C_R   0.771918 0.030342 0.265351 0.429044
C156  C     C_R   0.771592 0.531146 0.693487 -0.304151
C157  C     C_R   0.228335 0.529583 0.311276 -0.300283
C158  C     C_R   0.271574 0.030631 0.692130 -0.305905
C159  C     C_R   0.580728 0.999982 0.419827 0.905433
C160  C     C_R   0.728260 0.029715 0.310083 -0.300278
C161  C     C_R   0.793340 0.500772 0.704327 0.044916
C162  C     C_R   0.206651 0.499723 0.297904 0.040543
C163  C     C_R   0.293347 0.000698 0.703779 0.044078
C164  C     C_R   0.706648 0.000392 0.295561 0.042296
C165  C     C_R   0.996938 0.499658 0.381555 0.963343
C166  C     C_R   0.005168 0.500347 0.615825 0.966975
C167  C     C_R   0.496497 0.999677 0.382098 0.964896
C168  C     C_R   0.505172 0.000344 0.615821 0.967036
C169  C     C_R   0.771984 0.470613 0.759301 -0.302988
C170  C     C_3   0.991514 0.450744 0.292870 0.490636
C171  C     C_R   0.228080 0.469935 0.240708 -0.307146
C172  C     C_R   0.272016 0.970989 0.759629 -0.302712
C173  C     C_R   0.728133 0.971255 0.237249 -0.305196
C174  C     C_1   0.661965 0.500485 0.837445 0.079501
C175  C     C_1   0.338033 0.500191 0.163355 0.075634
C176  C     C_1   0.161969 0.000492 0.837298 0.079415
C177  C     C_1   0.838028 0.000351 0.162646 0.079367
C178  C     C_1   0.837753 0.500557 0.659345 -0.018347
C179  C     C_1   0.162233 0.499948 0.342098 -0.015606
C180  C     C_1   0.337760 0.000522 0.658846 -0.017778
C181  C     C_3   0.018364 0.453955 0.694248 0.485423
C182  C     C_1   0.662239 0.000247 0.340227 -0.012328
C183  C     C_1   0.875064 0.500245 0.622587 -0.208440
C184  C     C_1   0.124929 0.499997 0.378209 -0.206696
C185  C     C_1   0.375069 0.000236 0.622249 -0.206621
C186  C     C_1   0.624935 0.000076 0.376895 -0.207247
C187  C     C_1   0.624645 0.500223 0.875019 -0.161121
C188  C     C_1   0.375352 0.500151 0.125195 -0.161542
C189  C     C_1   0.124648 0.000235 0.874976 -0.161299
C190  C     C_1   0.875350 0.000168 0.125021 -0.161437
C191  C     C_1   0.499681 0.662044 0.004392 0.078906
C192  C     C_3   0.487525 0.950939 0.297509 0.491746
C193  C     C_1   0.999733 0.162049 0.004382 0.078453
C194  C     C_R   0.999986 0.580658 0.000038 0.893746
C195  C     C_R   0.499984 0.080657 0.000019 0.909949
C196  C     C_R   0.000043 0.500963 0.121551 0.971257
C197  C     C_R   0.000064 0.500021 0.878369 0.964970
C198  C     C_R   0.499985 0.999850 0.121630 0.992179
C199  C     C_R   0.500063 0.000027 0.878371 0.963553
C200  C     C_1   0.999517 0.337929 0.010319 -0.012533
C201  C     C_1   0.499379 0.837911 0.010021 -0.014197
C202  C     C_R   0.000008 0.419319 0.002335 0.950929
C203  C     C_3   0.518177 0.953901 0.694440 0.485888
C204  C     C_R   0.499994 0.919311 0.002188 0.947274
C205  C     C_1   0.999915 0.375207 0.007103 -0.184787
C206  C     C_1   0.499830 0.875190 0.006807 -0.183766
C207  C     C_R   0.499986 0.419589 0.999570 0.899349
C208  C     C_R   1.000000 0.919590 0.999553 0.903331
C209  C     C_R   0.580396 0.499993 0.919526 0.887128
C210  C     C_R   0.419603 0.500031 0.080495 0.883966
C211  C     C_R   0.080397 1.000000 0.919521 0.887324
C212  C     C_R   0.919602 0.999999 0.080480 0.887455
C213  C     C_R   0.500051 0.580453 0.000454 0.884870
C214  C     C_3   0.995557 0.498856 0.314486 -0.191934
C215  C     C_R   0.000049 0.080455 0.000455 0.884596
C216  C     C_R   0.477095 0.271243 0.976758 -0.185516
C217  C     C_R   0.523158 0.272385 0.019843 -0.181021
C218  C     C_R   0.980443 0.771197 0.970015 -0.180880
C219  C     C_R   0.019981 0.772446 0.026281 -0.179430
C220  C     C_R   0.500145 0.293454 0.998147 0.169940
C221  C     C_R   0.000230 0.793461 0.997997 0.168888
C222  C     C_R   0.019918 0.728952 0.026653 -0.186438
C223  C     C_R   0.980382 0.727689 0.970380 -0.187901
C224  C     C_R   0.523111 0.228887 0.020190 -0.187779
H1    H     H_    0.068277 0.511348 0.130442 0.104668
H2    H     H_    0.211474 0.552236 0.356445 0.160058
H3    H     H_    0.620575 0.024426 0.165390 0.109187
H4    H     H_    0.646664 0.951738 0.149180 0.241941
H5    H     H_    0.670844 0.986958 0.180398 0.195272
H6    H     H_    0.630213 0.951728 0.245840 0.269145
H7    H     H_    0.395256 0.030635 0.736157 0.135206
H8    H     H_    0.382704 0.026417 0.830168 0.169360
H9    H     H_    0.353448 0.956212 0.842228 0.253873
H10   H     H_    0.328447 0.993698 0.817797 0.196899
H11   H     H_    0.366955 0.957859 0.747575 0.265352
H12   H     H_    0.695173 0.482091 0.942650 0.130296
H13   H     H_    0.288339 0.053313 0.648152 0.164105
H14   H     H_    0.740185 0.448062 0.906638 0.136569
H15   H     H_    0.692823 0.386877 0.962317 0.256288
H16   H     H_    0.681162 0.426523 0.032015 0.200373
H17   H     H_    0.648088 0.420780 0.997862 0.258764
H18   H     H_    0.262760 0.388666 0.204515 0.137232
H19   H     H_    0.308354 0.406429 0.201850 0.135189
H20   H     H_    0.353976 0.384555 0.068355 0.257548
H21   H     H_    0.323219 0.341545 0.127432 0.201357
H22   H     H_    0.308709 0.366679 0.070836 0.257486
H23   H     H_    0.195474 0.983863 0.942701 0.130055
H24   H     H_    0.711361 0.051872 0.356099 0.160569
H25   H     H_    0.240434 0.949863 0.907458 0.136678
H26   H     H_    0.192961 0.888913 0.965131 0.256750
H27   H     H_    0.181507 0.929283 0.033606 0.200185
H28   H     H_    0.148278 0.922782 0.999912 0.258766
H29   H     H_    0.804316 0.985728 0.055656 0.129098
H30   H     H_    0.759712 0.951461 0.088076 0.133910
H31   H     H_    0.807814 0.891099 0.025087 0.256539
H32   H     H_    0.818773 0.932262 0.960155 0.198487
H33   H     H_    0.852147 0.925225 0.993113 0.259346
H34   H     H_    0.739070 0.612559 0.723642 0.134978
H35   H     H_    0.965016 0.710468 0.948731 0.133800
H36   H     H_    0.695490 0.596952 0.815833 0.127764
H37   H     H_    0.645747 0.618139 0.784752 0.256917
H38   H     H_    0.679861 0.660919 0.771884 0.195298
H39   H     H_    0.688544 0.632348 0.691580 0.261203
H40   H     H_    0.259706 0.611183 0.288078 0.135072
H41   H     H_    0.302702 0.596612 0.193896 0.134356
H42   H     H_    0.353437 0.617520 0.223743 0.257374
H43   H     H_    0.318450 0.660102 0.241711 0.195674
H44   H     H_    0.311264 0.630693 0.318729 0.261554
H45   H     H_    0.239174 0.111979 0.719714 0.134841
H46   H     H_    0.035209 0.712716 0.048641 0.136581
H47   H     H_    0.195702 0.097126 0.812539 0.127809
H48   H     H_    0.145776 0.117241 0.781263 0.257160
H49   H     H_    0.179999 0.160247 0.766793 0.195382
H50   H     H_    0.188464 0.130685 0.687522 0.260645
H51   H     H_    0.760942 0.111027 0.287723 0.134825
H52   H     H_    0.804902 0.096437 0.194434 0.127353
H53   H     H_    0.853989 0.115456 0.229165 0.257263
H54   H     H_    0.820192 0.158842 0.245219 0.194967
H55   H     H_    0.810769 0.128731 0.323230 0.260773
H56   H     H_    0.871962 0.508179 0.370540 0.144870
H57   H     H_    0.459172 0.210557 0.960522 0.133903
H58   H     H_    0.886022 0.560864 0.376799 0.133780
H59   H     H_    0.855749 0.548912 0.513891 0.238419
H60   H     H_    0.818246 0.541438 0.490088 0.218656
H61   H     H_    0.841459 0.496794 0.503546 0.264721
H62   H     H_    0.119326 0.522800 0.662949 0.145483
H63   H     H_    0.106464 0.573199 0.644482 0.140075
H64   H     H_    0.147885 0.552595 0.506854 0.242298
H65   H     H_    0.178666 0.552717 0.545959 0.217773
H66   H     H_    0.160778 0.503921 0.530157 0.263950
H67   H     H_    0.372701 0.016222 0.368595 0.143534
H68   H     H_    0.540933 0.212603 0.037069 0.140137
H69   H     H_    0.390035 0.067860 0.371885 0.133180
H70   H     H_    0.358574 0.057543 0.510023 0.238548
H71   H     H_    0.320960 0.052760 0.485938 0.217525
H72   H     H_    0.341056 0.006564 0.502307 0.265465
H73   H     H_    0.619398 0.022377 0.662925 0.145515
H74   H     H_    0.606745 0.072809 0.644181 0.140023
H75   H     H_    0.648109 0.051988 0.506655 0.241641
H76   H     H_    0.678869 0.052040 0.545799 0.217720
H77   H     H_    0.660807 0.003290 0.530234 0.265150
H78   H     H_    0.609943 0.740288 0.939494 0.136623
H79   H     H_    0.459218 0.287518 0.959999 0.139762
H80   H     H_    0.595356 0.697098 0.902827 0.134845
H81   H     H_    0.616293 0.646546 0.961237 0.256189
H82   H     H_    0.658819 0.681442 0.900861 0.195993
H83   H     H_    0.629470 0.688911 0.001000 0.261310
H84   H     H_    0.387687 0.738948 0.081211 0.136893
H85   H     H_    0.403480 0.694569 0.111455 0.135239
H86   H     H_    0.383069 0.646111 0.047074 0.257712
H87   H     H_    0.339947 0.679506 0.112753 0.196053
H88   H     H_    0.368559 0.689766 0.013891 0.261452
H89   H     H_    0.110611 0.240103 0.935432 0.136606
H90   H     H_    0.541009 0.289549 0.036486 0.141769
H91   H     H_    0.095223 0.196891 0.900140 0.134683
H92   H     H_    0.117278 0.146374 0.956816 0.256077
H93   H     H_    0.159567 0.181201 0.895251 0.196153
H94   H     H_    0.131268 0.188760 0.995253 0.260955
H95   H     H_    0.887280 0.239077 0.085028 0.136311
H96   H     H_    0.903670 0.194702 0.114228 0.134829
H97   H     H_    0.882127 0.146231 0.051639 0.256115
H98   H     H_    0.839319 0.179670 0.118200 0.195984
H99   H     H_    0.867017 0.189875 0.019438 0.260816
H100  H     H_    0.051464 0.611781 0.092821 0.169364
H101  H     H_    0.965104 0.787432 0.948124 0.141033
H102  H     H_    0.071890 0.561509 0.054080 0.165228
H103  H     H_    0.123378 0.566990 0.084864 0.234602
H104  H     H_    0.123780 0.615901 0.045030 0.228356
H105  H     H_    0.097443 0.612219 0.145189 0.268648
H106  H     H_    0.949115 0.586402 0.829865 0.100179
H107  H     H_    0.957689 0.575446 0.902783 0.158824
H108  H     H_    0.882381 0.582883 0.998057 0.265500
H109  H     H_    0.903998 0.629232 0.942099 0.201177
H110  H     H_    0.873560 0.593221 0.925816 0.240448
H111  H     H_    0.586255 0.055695 0.048484 0.164794
H112  H     H_    0.942327 0.472789 0.841661 0.168675
H113  H     H_    0.035305 0.789649 0.048022 0.142049
H114  H     H_    0.604518 0.071867 0.106437 0.116854
H115  H     H_    0.568495 0.140092 0.131024 0.249120
H116  H     H_    0.605248 0.130422 0.031989 0.202962
H117  H     H_    0.549984 0.123733 0.073903 0.257868
H118  H     H_    0.449376 0.086624 0.829707 0.100368
H119  H     H_    0.458006 0.075551 0.902527 0.157665
H120  H     H_    0.382753 0.083238 0.997964 0.265198
H121  H     H_    0.404499 0.129548 0.941943 0.200303
H122  H     H_    0.373874 0.093705 0.925835 0.240666
H123  H     H_    0.055024 0.374877 0.219018 0.164716
H124  H     H_    0.051987 0.288689 0.018984 0.163947
H125  H     H_    0.999704 0.371391 0.273353 0.141234
H126  H     H_    0.004307 0.371419 0.389595 0.244910
H127  H     H_    0.030345 0.328253 0.325131 0.207703
H128  H     H_    0.060096 0.372073 0.324850 0.263873
H129  H     H_    0.964048 0.368884 0.756731 0.146520
H130  H     H_    0.018500 0.372312 0.689669 0.143432
H131  H     H_    0.000957 0.382510 0.591128 0.241339
H132  H     H_    0.979539 0.335341 0.643329 0.191515
H133  H     H_    0.946611 0.380468 0.666322 0.271452
H134  H     H_    0.545792 0.870818 0.229034 0.166395
H135  H     H_    0.945650 0.289067 0.004124 0.161404
H136  H     H_    0.490311 0.871026 0.284881 0.141935
H137  H     H_    0.496325 0.872168 0.399682 0.244417
H138  H     H_    0.518941 0.826915 0.339162 0.207475
H139  H     H_    0.551910 0.868946 0.333647 0.265064
H140  H     H_    0.463460 0.869063 0.757178 0.146777
H141  H     H_    0.517935 0.872242 0.690148 0.143765
H142  H     H_    0.500514 0.882571 0.591492 0.241299
H143  H     H_    0.478775 0.835526 0.643927 0.192193
H144  H     H_    0.446141 0.880866 0.666639 0.271420
H145  H     H_    0.888203 0.368320 0.435683 0.256273
H146  H     H_    0.550995 0.788768 0.021222 0.163592
H147  H     H_    0.863798 0.419291 0.466338 0.269573
H148  H     H_    0.854305 0.386208 0.408999 0.250046
H149  H     H_    0.903494 0.442143 0.333945 0.234745
H150  H     H_    0.928532 0.391461 0.303386 0.225371
H151  H     H_    0.955984 0.402757 0.382817 0.205199
H152  H     H_    0.934180 0.449632 0.412368 0.241995
H153  H     H_    0.111649 0.368407 0.538295 0.260048
H154  H     H_    0.140924 0.416595 0.502768 0.270902
H155  H     H_    0.151441 0.381213 0.554500 0.256055
H156  H     H_    0.111078 0.441263 0.633190 0.239734
H157  H     H_    0.446324 0.788963 0.001550 0.161713
H158  H     H_    0.080844 0.393884 0.668798 0.256178
H159  H     H_    0.051521 0.414408 0.589300 0.210806
H160  H     H_    0.074841 0.460995 0.574307 0.219462
H161  H     H_    0.380105 0.875053 0.447893 0.256644
H162  H     H_    0.358691 0.927344 0.475751 0.269705
H163  H     H_    0.346609 0.894657 0.421517 0.250356
H164  H     H_    0.398581 0.947583 0.341900 0.236177
H165  H     H_    0.420743 0.895570 0.314158 0.226383
H166  H     H_    0.449593 0.906009 0.391975 0.205417
H167  H     H_    0.430793 0.954276 0.417514 0.236592
H168  H     H_    0.932264 0.506627 0.262690 0.172554
H169  H     H_    0.611041 0.867882 0.538991 0.259902
H170  H     H_    0.640576 0.915912 0.503217 0.272687
H171  H     H_    0.650879 0.880477 0.555177 0.257141
H172  H     H_    0.610825 0.940744 0.633522 0.240193
H173  H     H_    0.580337 0.893526 0.669356 0.256867
H174  H     H_    0.551187 0.914220 0.589647 0.210960
H175  H     H_    0.574725 0.960693 0.574501 0.219727
H176  H     H_    0.057145 0.538561 0.760394 0.201759
H177  H     H_    0.432827 0.011948 0.261176 0.171350
H178  H     H_    0.557271 0.038401 0.760264 0.201762
H179  H     H_    0.957838 0.554524 0.231644 0.201989
H180  H     H_    0.568113 0.002436 0.131039 0.076617
H181  H     H_    0.013714 0.567214 0.788647 0.144334
H182  H     H_    0.463036 0.057073 0.226275 0.207070
H183  H     H_    0.513937 0.067188 0.788363 0.144183
H184  H     H_    0.044069 0.548082 0.267121 0.105536
H185  H     H_    0.954630 0.545107 0.746456 0.045785
H186  H     H_    0.546588 0.044626 0.263758 0.095446
H187  H     H_    0.454829 0.045327 0.746317 0.045707
H188  H     H_    0.964674 0.445517 0.227547 0.121109
H189  H     H_    0.056723 0.466693 0.735577 0.163911
H190  H     H_    0.459127 0.947964 0.234429 0.123245
H191  H     H_    0.442225 0.973020 0.841746 0.168846
H192  H     H_    0.556588 0.966506 0.735702 0.164226
H193  H     H_    0.989778 0.616233 0.424384 0.271341
H194  H     H_    0.962760 0.653632 0.403966 0.250385
H195  H     H_    0.939519 0.636138 0.498466 0.239461
H196  H     H_    0.905714 0.602426 0.442881 0.193520
H197  H     H_    0.931512 0.564712 0.462786 0.274242
H198  H     H_    0.994021 0.587177 0.313955 0.211575
H199  H     H_    0.949442 0.596402 0.316998 0.158848
H200  H     H_    0.016016 0.613949 0.557682 0.273273
H201  H     H_    0.039584 0.653726 0.583105 0.242940
H202  H     H_    0.789062 0.446860 0.766848 0.167770
H203  H     H_    0.068201 0.631786 0.489584 0.238783
H204  H     H_    0.093711 0.603112 0.561370 0.192879
H205  H     H_    0.070969 0.562816 0.537445 0.256727
H206  H     H_    0.001586 0.587649 0.676512 0.181722
H207  H     H_    0.041198 0.604468 0.686488 0.154170
H208  H     H_    0.496010 0.116643 0.418300 0.272428
H209  H     H_    0.471994 0.155596 0.394132 0.250092
H210  H     H_    0.446981 0.139935 0.490070 0.238296
H211  H     H_    0.411832 0.108297 0.435376 0.191910
H212  H     H_    0.434492 0.069105 0.459256 0.274008
H213  H     H_    0.211067 0.447097 0.230149 0.166806
H214  H     H_    0.499352 0.087071 0.308811 0.205370
H215  H     H_    0.455789 0.099210 0.310214 0.157256
H216  H     H_    0.516448 0.113830 0.557176 0.273373
H217  H     H_    0.540213 0.153531 0.582320 0.243031
H218  H     H_    0.568705 0.131417 0.488929 0.238570
H219  H     H_    0.594125 0.102696 0.560834 0.192846
H220  H     H_    0.571184 0.062470 0.537196 0.256298
H221  H     H_    0.501944 0.087662 0.676138 0.181753
H222  H     H_    0.541649 0.104319 0.685972 0.154381
H223  H     H_    0.077246 0.434335 0.147909 0.216153
H224  H     H_    0.289112 0.947561 0.767792 0.167866
H225  H     H_    0.072665 0.453695 0.075519 0.163896
H226  H     H_    0.074479 0.385626 0.027039 0.269015
H227  H     H_    0.118754 0.392799 0.033301 0.210287
H228  H     H_    0.075200 0.360999 0.100533 0.247604
H229  H     H_    0.956348 0.410851 0.845351 0.154912
H230  H     H_    0.970728 0.425061 0.908507 0.164486
H231  H     H_    0.009581 0.356254 0.875305 0.273860
H232  H     H_    0.953456 0.352069 0.923259 0.211655
H233  H     H_    0.987673 0.341949 0.824001 0.233787
H234  H     H_    0.570802 0.929063 0.151638 0.211196
H235  H     H_    0.711154 0.948204 0.227017 0.167220
H236  H     H_    0.565782 0.945913 0.078050 0.162596
H237  H     H_    0.564211 0.877381 0.037581 0.263916
H238  H     H_    0.608143 0.881695 0.045256 0.208797
H239  H     H_    0.561685 0.854129 0.115096 0.251078
H240  H     H_    0.456018 0.911046 0.845619 0.154930
H241  H     H_    0.470429 0.925095 0.908791 0.165031
H242  H     H_    0.509069 0.856116 0.875499 0.274099
H243  H     H_    0.452914 0.852190 0.923608 0.211528
H244  H     H_    0.487027 0.842010 0.824358 0.233892
H245  H     H_    0.096322 0.524505 0.281129 0.152418
H246  H     H_    0.788371 0.554195 0.650196 0.162251
H247  H     H_    0.117600 0.536559 0.184566 0.133336
H248  H     H_    0.151357 0.466341 0.145380 0.244608
H249  H     H_    0.168480 0.496909 0.194454 0.213318
H250  H     H_    0.131144 0.455178 0.241878 0.264690
H251  H     H_    0.895081 0.530179 0.736459 0.134933
H252  H     H_    0.882554 0.525777 0.830426 0.169629
H253  H     H_    0.853681 0.455432 0.841877 0.253645
H254  H     H_    0.828470 0.492852 0.817782 0.197220
H255  H     H_    0.867171 0.457273 0.747250 0.265370
H256  H     H_    0.603629 0.024245 0.262715 0.146112
O1    O     O_R   0.939010 0.534400 0.560970 -0.637917
O2    O     O_R   0.439030 0.499940 0.008670 -0.610618
O3    O     O_R   0.060970 0.999940 0.991330 -0.618653
O4    O     O_R   0.939030 0.999940 0.008670 -0.618690
O5    O     O_R   0.500000 0.561000 0.947810 -0.609483
O6    O     O_R   0.500000 0.561000 0.052190 -0.611108
O7    O     O_R   1.000000 0.061000 0.947810 -0.610814
O8    O     O_R   1.000000 0.061000 0.052190 -0.611369
O9    O     O_R   0.938970 0.465540 0.561010 -0.612860
O10   O     O_R   0.061030 0.465540 0.438990 -0.618845
O11   O     O_R   0.438970 0.965540 0.561010 -0.615146
O12   O     O_R   0.060990 0.534400 0.439030 -0.638864
O13   O     O_R   0.561030 0.965540 0.438990 -0.618638
O14   O     O_R   0.999990 0.534400 0.407410 -0.655776
O15   O     O_R   0.000010 0.534400 0.592590 -0.645588
O16   O     O_R   0.499990 0.034400 0.407410 -0.652552
O17   O     O_R   0.500010 0.034400 0.592590 -0.645888
O18   O     O_R   0.999950 0.465540 0.407450 -0.579058
O19   O     O_R   0.000050 0.465540 0.592550 -0.577032
O20   O     O_R   0.499950 0.965540 0.407450 -0.573416
O21   O     O_R   0.500050 0.965540 0.592550 -0.577592
O22   O     O_R   0.965540 0.560940 0.034450 -0.615790
O23   O     O_R   0.439010 0.034400 0.560970 -0.637802
O24   O     O_R   0.034460 0.560940 0.965550 -0.637646
O25   O     O_R   0.465540 0.060940 0.034450 -0.619107
O26   O     O_R   0.534460 0.060940 0.965550 -0.625355
O27   O     O_R   0.965550 0.499950 0.127040 -0.636358
O28   O     O_R   0.034450 0.499950 0.872960 -0.626489
O29   O     O_R   0.465550 0.999950 0.127040 -0.640735
O30   O     O_R   0.534450 0.999950 0.872960 -0.628237
O31   O     O_R   0.034410 0.500000 0.058200 -0.669450
O32   O     O_R   0.965590 0.500000 0.941800 -0.604190
O33   O     O_R   0.534410 0.000000 0.058200 -0.661316
O34   O     O_R   0.560990 0.034400 0.439030 -0.637412
O35   O     O_R   0.465590 0.000000 0.941800 -0.604944
O36   O     O_R   0.965550 0.438960 0.034430 -0.634559
O37   O     O_R   0.034450 0.438960 0.965570 -0.609545
O38   O     O_R   0.465550 0.938960 0.034430 -0.633157
O39   O     O_R   0.534450 0.938960 0.965570 -0.615747
O40   O     O_R   0.499940 0.439020 0.947690 -0.613909
O41   O     O_R   0.500060 0.439020 0.052310 -0.615526
O42   O     O_R   0.999940 0.939020 0.947690 -0.615069
O43   O     O_R   0.000060 0.939020 0.052310 -0.614078
O44   O     O_3   0.020057 0.422075 0.160701 -0.625609
O45   O     O_R   0.560960 0.500010 0.886780 -0.606400
O46   O     O_3   0.020650 0.420637 0.797279 -0.632644
O47   O     O_3   0.512118 0.919251 0.169173 -0.625808
O48   O     O_3   0.520352 0.920586 0.797594 -0.632598
O49   O     O_3   0.072315 0.489850 0.231343 -0.595426
O50   O     O_3   0.930469 0.486795 0.747800 -0.551572
O51   O     O_3   0.570957 0.984784 0.235351 -0.581186
O52   O     O_3   0.430410 0.987129 0.747857 -0.551541
O53   O     O_3   0.707002 0.440243 0.857545 -0.591551
O54   O     O_3   0.293045 0.440734 0.138829 -0.594975
O55   O     O_3   0.207061 0.941102 0.858911 -0.591329
O56   O     O_R   0.439040 0.500010 0.113220 -0.610839
O57   O     O_3   0.793269 0.941983 0.135675 -0.590502
O58   O     O_3   0.706017 0.560273 0.725712 -0.590223
O59   O     O_3   0.293901 0.558979 0.279973 -0.593877
O60   O     O_3   0.205962 0.059338 0.723741 -0.590234
O61   O     O_3   0.793682 0.057954 0.281298 -0.589504
O62   O     O_3   0.919136 0.512568 0.389131 -0.645221
O63   O     O_3   0.079951 0.519953 0.626573 -0.647703
O64   O     O_3   0.419773 0.017452 0.387639 -0.644778
O65   O     O_3   0.580033 0.019646 0.626518 -0.647636
O66   O     O_3   0.557813 0.706244 0.018890 -0.594425
O67   O     O_R   0.060960 0.000010 0.886780 -0.606583
O68   O     O_3   0.440292 0.706753 0.996818 -0.594135
O69   O     O_3   0.058855 0.206161 0.016205 -0.594659
O70   O     O_3   0.939454 0.206857 0.999563 -0.594917
O71   O     O_3   0.034559 0.567532 0.172256 -0.657629
O72   O     O_3   0.925651 0.529256 0.886067 -0.606139
O73   O     O_3   0.540589 0.062180 0.162996 -0.637089
O74   O     O_3   0.425748 0.029532 0.885996 -0.606086
O75   O     O_3   0.026491 0.428090 0.282128 -0.541733
O76   O     O_3   0.982572 0.428241 0.716201 -0.567366
O77   O     O_3   0.521290 0.926145 0.287124 -0.538835
O78   O     O_R   0.939040 0.000010 0.113220 -0.606439
O79   O     O_3   0.482272 0.928347 0.716504 -0.567738
O80   O     O_R   0.560970 0.499940 0.991330 -0.618640
Zn1   Zn    Zn3+2 0.000000 0.545950 0.500000 0.893452
Zn2   Zn    Zn3+2 0.500030 0.500020 0.069780 0.972525
Zn3   Zn    Zn3+2 0.999970 0.000020 0.930220 0.974634
Zn4   Zn    Zn3+2 0.000030 0.000020 0.069780 0.975648
Zn5   Zn    Zn3+2 0.500000 0.045950 0.500000 0.894782
Zn6   Zn    Zn3+2 1.000000 0.454000 0.500000 0.953627
Zn7   Zn    Zn3+2 0.500000 0.954000 0.500000 0.955896
Zn8   Zn    Zn3+2 0.954000 0.499940 0.045990 0.955270
Zn9   Zn    Zn3+2 0.046000 0.499940 0.954010 0.925272
Zn10  Zn    Zn3+2 0.454000 0.999940 0.045990 0.955774
Zn11  Zn    Zn3+2 0.546000 0.999940 0.954010 0.926082
Zn12  Zn    Zn3+2 0.499970 0.500020 0.930220 0.983151

loop_
_geom_bond_atom_site_label_1
_geom_bond_atom_site_label_2
_ccdc_geom_bond_type
C45   H194  S    
C101  O73   S    
C126  C127  S    
C72   H7    S    
C26   H135  S    
C77   H20   S    
C34   H179  S    
O38   Zn10  S    
C86   H44   S    
C63   O48   S    
C112  C184  S    
O45   Zn12  S    
C113  H191  S    
C119  H123  S    
C102  H83   S    
O27   Zn8   S    
C216  H79   S    
C111  H106  S    
C35   C124  S    
C207  O41   A    
C11   C195  S    
C154  C158  A    
C159  O34   A    
C129  H150  S    
C20   C22   A    
C90   H112  S    
C40   H185  S    
C95   H64   S    
C18   C21   A    
C38   H183  S    
C104  H87   S    
C24   C42   S    
C34   C35   S    
C217  H90   S    
C95   H66   S    
C1    O1    A    
C149  C153  A    
C118  H120  S    
O43   Zn4   S    
C175  C188  T    
C131  H160  S    
C188  C210  S    
C31   O63   S    
C162  C171  A    
C152  C156  A    
C80   H27   S    
C201  C206  T    
C134  H167  S    
C151  C155  A    
C99   H77   S    
C42   H187  S    
C59   C60   S    
C83   O58   S    
O36   Zn8   S    
C84   H38   S    
C75   H16   S    
C160  H24   S    
C112  O10   A    
O42   Zn3   S    
C120  H127  S    
C25   C29   A    
C56   O44   S    
C52   H210  S    
C51   C52   S    
C60   H233  S    
C132  H156  S    
C85   O59   S    
C125  H138  S    
C44   H196  S    
C108  H98   S    
C61   O47   S    
C47   H207  S    
C213  O6    A    
O29   Zn10  S    
C149  C175  S    
C118  H122  S    
C91   H54   S    
C43   C44   S    
C89   O61   S    
C75   H17   S    
C20   O70   S    
C154  O60   S    
C50   H215  S    
O41   Zn2   S    
C83   H36   S    
C116  H116  S    
C207  O40   A    
C109  H102  S    
C157  H2    S    
C215  O7    A    
C123  O77   S    
O22   Zn8   S    
O67   Zn3   S    
O28   Zn9   S    
C30   C43   S    
C86   H42   S    
C195  O26   A    
C143  O53   S    
C159  C186  S    
C117  H119  S    
C69   H254  S    
C55   H218  S    
C102  H81   S    
C140  H169  S    
C60   H231  S    
C133  H154  S    
C72   C73   S    
C144  O54   S    
C139  C140  S    
C94   H63   S    
C115  H111  S    
C33   C38   S    
O37   Zn9   S    
C122  H132  S    
C124  H188  S    
C51   H211  S    
C54   H220  S    
C223  H35   S    
C176  C189  T    
C130  H148  S    
C63   H241  S    
C114  H108  S    
C99   H75   S    
C106  H94   S    
C2    C40   S    
C98   O65   S    
C8    C10   T    
C98   C99   S    
C89   H51   S    
C122  H133  S    
C31   C36   S    
C116  H117  S    
C197  O28   A    
C81   H29   S    
C192  O77   S    
C112  O12   A    
O4    Zn3   S    
C157  C162  A    
C37   C57   S    
C128  H152  S    
C136  H164  S    
O7    Zn3   S    
C92   H56   S    
C97   H72   S    
C13   C32   S    
C168  O17   A    
C114  H109  S    
C132  H158  S    
C29   H146  S    
C128  C129  S    
C1    C183  S    
C147  C174  S    
C127  H144  S    
C50   H214  S    
C85   C86   S    
C144  C171  A    
C198  O29   A    
C41   H186  S    
C25   C201  S    
C156  H246  S    
C117  H118  S    
C7    C221  S    
C78   C80   S    
C43   H198  S    
C51   H212  S    
O78   Zn4   S    
C62   H239  S    
C83   H34   S    
C111  H107  S    
C96   H69   S    
C190  C212  S    
C111  O72   S    
C19   O69   S    
C181  O76   S    
C72   O52   S    
C126  H141  S    
C187  C209  S    
C119  O75   S    
C104  H86   S    
C107  C108  S    
C199  O30   A    
C68   C142  S    
O9    Zn6   S    
C116  H115  S    
C145  C150  A    
C161  C169  A    
C67   O50   S    
C145  C172  A    
C66   H250  S    
C80   H26   S    
C96   C97   S    
C49   H201  S    
C141  C192  S    
C59   H229  S    
C110  H105  S    
C10   C194  S    
O56   Zn2   S    
O17   Zn5   S    
C121  C122  S    
C30   C34   S    
C212  O4    A    
C76   H19   S    
C18   C28   A    
C120  H126  S    
O14   Zn1   S    
C136  H165  S    
C103  H85   S    
C23   C200  S    
C224  H68   S    
C2    C181  S    
C74   H14   S    
C88   H49   S    
C101  H180  S    
C5    C9    S    
C137  H161  S    
C174  C187  T    
C169  H202  S    
O1    Zn1   S    
C83   C84   S    
C219  H113  S    
C71   H5    S    
C107  O70   S    
C218  H101  S    
C32   C37   S    
C91   H55   S    
C94   O63   S    
C158  C163  A    
C6    C220  S    
C74   H12   S    
C67   H252  S    
C78   O55   S    
C138  H175  S    
C17   O66   S    
C135  C181  S    
C58   H227  S    
C121  O76   S    
C218  C221  A    
C129  C130  S    
O23   Zn5   S    
C45   H193  S    
C54   C55   S    
O2    Zn12  S    
C177  C190  T    
C72   H8    S    
C108  H97   S    
C48   H204  S    
C121  H130  S    
C216  C220  A    
C1    O9    A    
C136  C137  S    
C156  C161  A    
C64   H243  S    
C4    C223  A    
C57   C101  S    
C130  H147  S    
C62   H237  S    
C41   O51   S    
C40   O50   S    
C129  H149  S    
C117  C118  S    
C219  C222  A    
C93   H61   S    
C166  O19   A    
O26   Zn11  S    
C145  O55   S    
C212  O78   A    
C35   C79   S    
C104  H88   S    
C152  O58   S    
C95   H65   S    
C36   H176  S    
C61   C62   S    
C210  O56   A    
C203  O79   S    
C146  C151  A    
C119  H125  S    
C5    C224  A    
C92   O62   S    
C103  H84   S    
C80   H28   S    
C49   H203  S    
C21   C191  S    
C90   O72   S    
C110  H103  S    
C98   H73   S    
C18   O68   S    
C39   H184  S    
C135  O46   S    
C15   C207  S    
O33   Zn11  S    
C107  H96   S    
C87   C88   S    
C24   C203  S    
C200  C205  T    
C17   C29   A    
C71   H4    S    
C75   H15   S    
C34   H168  S    
C170  O75   S    
C13   C41   S    
C159  O13   A    
C120  H128  S    
C25   C28   A    
C128  C170  S    
C13   C192  S    
C127  H142  S    
C68   C199  S    
C160  C164  A    
C167  O16   A    
C170  C214  S    
C179  C184  T    
C137  H163  S    
C57   C198  S    
C123  C125  S    
C125  H137  S    
C213  O5    A    
C28   H157  S    
C48   H205  S    
C182  C186  T    
C23   C26   A    
C91   H53   S    
O10   Zn6   S    
C46   C135  S    
C87   O60   S    
C38   H178  S    
C142  H192  S    
C32   O64   S    
C202  C205  S    
C33   O65   S    
C139  H172  S    
C22   C193  S    
C70   C71   S    
C208  O43   A    
C2    C166  S    
C73   H9    S    
C178  C183  T    
C68   C113  S    
C173  H235  S    
O80   Zn2   S    
C45   H195  S    
O3    Zn4   S    
C31   C47   S    
C108  H99   S    
C66   H248  S    
C82   H32   S    
C103  O68   S    
C12   C213  S    
C195  O25   A    
C196  O27   A    
O39   Zn11  S    
O31   Zn9   S    
O12   Zn1   S    
C69   H253  S    
C141  O47   S    
C102  H82   S    
C130  H145  S    
C140  H170  S    
C60   H232  S    
C56   H225  S    
C133  H153  S    
C27   H124  S    
C70   H3    S    
C109  H100  S    
C167  O20   A    
C105  H89   S    
O15   Zn1   S    
C46   C197  S    
C115  H114  S    
C37   H177  S    
C148  C185  S    
C53   C54   S    
C128  H151  S    
C198  O33   A    
C97   H70   S    
C39   C79   S    
C86   H43   S    
C74   O53   S    
C113  O74   S    
C153  O59   S    
C138  C203  S    
C141  H190  S    
O32   Zn8   S    
C50   C51   S    
C134  H166  S    
C172  H224  S    
C30   C214  S    
C165  O14   A    
C7    C16   T    
C14   C193  T    
C38   C68   S    
C84   H37   S    
C85   H40   S    
C131  C132  S    
C44   C45   S    
C53   H222  S    
C12   C191  T    
C211  O67   A    
C52   H209  S    
C79   O71   S    
C97   H71   S    
C36   H181  S    
C114  H110  S    
C3    C5    A    
O34   Zn5   S    
C119  C120  S    
O21   Zn7   S    
C127  H143  S    
O16   Zn5   S    
C165  O18   A    
C105  C106  S    
C24   C33   S    
C57   C141  S    
C54   H219  S    
C39   O49   S    
C118  H121  S    
C209  O45   A    
C3    C216  A    
C56   H223  S    
C194  O24   A    
C109  C110  S    
O40   Zn12  S    
C131  C181  S    
C64   H242  S    
O8    Zn4   S    
C142  O48   S    
C4    C222  A    
C92   C93   S    
C204  O39   A    
C41   C101  S    
C125  H139  S    
C147  C152  A    
C111  C114  S    
C153  C157  A    
C94   C95   S    
C17   C21   A    
C73   H11   S    
C164  C182  S    
C138  C139  S    
C158  H13   S    
C215  O8    A    
O35   Zn10  S    
C81   O57   S    
C103  C104  S    
C78   H25   S    
C211  O3    A    
C109  O71   S    
C40   C90   S    
C161  C178  S    
C124  O44   S    
C148  O23   A    
C123  H136  S    
C115  C116  S    
O11   Zn7   S    
C69   H255  S    
C150  C176  S    
C202  O37   A    
C100  H80   S    
C202  O36   A    
C61   H234  S    
C133  H155  S    
C76   H18   S    
C96   H67   S    
C4    C8    S    
C105  H91   S    
C81   C82   S    
C106  H92   S    
C94   H62   S    
C77   H22   S    
C143  C147  A    
C146  O57   S    
C122  H131  S    
O30   Zn11  S    
C24   C168  S    
C63   H240  S    
O6    Zn2   S    
C13   C167  S    
C218  C223  A    
C217  C220  A    
C146  C173  A    
O19   Zn6   S    
C151  C177  S    
C134  C192  S    
C88   H50   S    
C99   H76   S    
C106  H93   S    
C87   H47   S    
O25   Zn10  S    
C171  H213  S    
C56   C58   S    
C132  C133  S    
C46   C90   S    
C89   H52   S    
C92   H58   S    
C84   H39   S    
C70   O51   S    
C43   H199  S    
C81   H30   S    
O5    Zn12  S    
C19   C27   A    
C76   O54   S    
C115  O73   S    
C148  O11   A    
O13   Zn7   S    
C217  C224  A    
C67   H251  S    
C6    C15   T    
C82   H33   S    
C100  O66   S    
C139  H173  S    
C208  O42   A    
C58   H228  S    
C96   O64   S    
C88   H48   S    
C44   H197  S    
C33   C53   S    
C47   H206  S    
C74   C75   S    
C199  O35   A    
C85   H41   S    
C164  C173  A    
C19   C22   A    
C121  H129  S    
C76   C77   S    
C143  C169  A    
C194  O22   A    
C30   O62   S    
C64   H244  S    
C134  C136  S    
O18   Zn6   S    
C53   H221  S    
C62   H238  S    
C131  H159  S    
C63   C64   S    
C2    C31   S    
C67   C69   S    
C144  C149  A    
C135  H189  S    
C219  C221  A    
C126  H140  S    
C42   C113  S    
C47   C48   S    
C37   H182  S    
O24   Zn9   S    
C100  C102  S    
C78   H23   S    
C73   H10   S    
C36   C46   S    
C9    C11   T    
C196  O31   A    
C32   C50   S    
C162  C179  S    
C123  H134  S    
C189  C211  S    
C35   C196  S    
C204  C206  S    
C65   H247  S    
C66   H249  S    
C23   C27   A    
C61   H236  S    
C138  H174  S    
C89   C91   S    
C59   H230  S    
C110  H104  S    
C98   H74   S    
O20   Zn7   S    
C93   H59   S    
C107  H95   S    
C48   C49   S    
C39   C214  S    
C155  C160  A    
C163  C172  A    
C126  O79   S    
C197  O32   A    
C105  O69   S    
C16   C208  S    
C55   H217  S    
C70   H256  S    
C55   H216  S    
C65   H245  S    
C155  O61   S    
C52   H208  S    
C42   O52   S    
C142  C203  S    
C168  O21   A    
C137  H162  S    
C87   H45   S    
C210  O2    A    
C20   C26   A    
C117  O74   S    
C71   H6    S    
C58   H226  S    
C14   C215  S    
C77   H21   S    
C93   H60   S    
C100  H78   S    
C82   H31   S    
C140  H171  S    
C180  C185  T    
C65   O49   S    
C222  H46   S    
C209  O80   A    
C165  C214  S    
C3    H57   S    
C124  C170  S    
C49   H200  S    
C65   C66   S    
C150  C154  A    
C163  C180  S    
C204  O38   A    
C166  O15   A    
C79   H1    S    
C59   O46   S    
