data_mof_unit_7397.cif
_audit_creation_date              2012-12-11T18:13:29-0500
_audit_creation_method            fapswitch 2.2
_symmetry_space_group_name_H-M    P1
_symmetry_Int_Tables_number       1
_space_group_crystal_system       triclinic
_cell_length_a                    8.170306
_cell_length_b                    12.699324
_cell_length_c                    18.692993
_cell_angle_alpha                 99.534232
_cell_angle_beta                  90.976949
_cell_angle_gamma                 98.677041
_cell_volume                      1889.09324167

loop_
_atom_site_label
_atom_site_type_symbol
_atom_type_description
_atom_site_fract_x
_atom_site_fract_y
_atom_site_fract_z
_atom_type_partial_charge
Ba1   Ba    Ba6+2 0.852780 0.548340 0.465070 1.637903
Ba2   Ba    Ba6+2 0.337060 0.451750 0.534940 1.636931
C1    C     C_3   0.580942 0.899320 0.253114 -0.413454
C2    C     C_R   0.892048 0.394765 0.095469 0.033015
C3    C     C_R   0.728917 0.348009 0.072484 -0.080937
C4    C     C_3   0.131157 0.760664 0.265263 0.363104
C5    C     C_R   0.667046 0.354044 0.003321 -0.060022
C6    C     C_R   0.767983 0.405343 0.955215 0.040602
C7    C     C_R   0.931628 0.453197 0.977612 0.008162
C8    C     C_R   0.708211 0.407497 0.884804 -0.058969
C9    C     C_R   0.811282 0.453432 0.834534 -0.045501
C10   C     C_R   0.974514 0.504868 0.857453 -0.014500
C11   C     C_R   0.033520 0.504928 0.929407 -0.009171
C12   C     C_3   0.633272 0.819877 0.298223 0.340912
C13   C     C_R   0.757876 0.446937 0.761409 0.000430
C14   C     C_R   0.867381 0.487120 0.712170 -0.308901
C15   C     C_R   0.024562 0.544368 0.734279 0.044790
C16   C     C_3   0.112197 0.784679 0.188750 -0.362536
C17   C     C_R   0.079364 0.555084 0.808483 -0.039060
C18   C     C_R   0.156111 0.497322 0.071373 -0.006262
C19   C     C_R   0.215907 0.496146 0.143037 -0.005340
C20   C     C_R   0.111417 0.445271 0.191827 -0.043858
C21   C     C_R   0.953638 0.389662 0.165282 -0.037863
C22   C     C_R   0.236374 0.611833 0.835206 -0.020160
C23   C     C_3   0.460433 0.273832 0.314122 0.310524
C24   C     C_R   0.296986 0.608322 0.905498 0.031908
C25   C     C_R   0.196033 0.553974 0.952629 0.008540
C26   C     C_R   0.257644 0.549610 0.023313 0.014915
C27   C     C_R   0.458942 0.656957 0.929079 -0.080197
C28   C     C_3   0.226745 0.792037 0.621139 0.275902
C29   C     C_R   0.521037 0.650681 0.998137 -0.091264
C30   C     C_R   0.421043 0.597863 0.045817 0.029632
C31   C     C_R   0.379625 0.546793 0.165794 -0.044754
C32   C     C_R   0.481612 0.594460 0.115888 -0.112548
C33   C     C_R   0.434833 0.550450 0.238367 -0.001273
C34   C     C_3   0.435618 0.236201 0.232590 -0.398610
C35   C     C_R   0.326889 0.507584 0.287290 -0.297597
C36   C     C_R   0.167373 0.453910 0.265680 0.041962
C37   C     C_R   0.763832 0.183211 0.530200 -0.280407
C38   C     C_R   0.426340 0.808589 0.471602 -0.286932
C39   C     C_R   0.399803 0.985221 0.446469 -0.103819
C40   C     C_3   0.157505 0.897196 0.630180 -0.318800
C41   C     C_R   0.335251 0.876886 0.442542 -0.012991
C42   C     C_R   0.576541 0.849155 0.510388 0.064171
C43   C     C_R   0.640858 0.961327 0.518136 -0.062487
C44   C     C_R   0.552195 0.029230 0.484139 -0.063319
C45   C     C_3   0.059743 0.244479 0.737319 0.346646
C46   C     C_R   0.616864 0.139965 0.489924 0.038620
C47   C     C_R   0.855039 0.117452 0.561529 -0.007846
C48   C     C_R   0.791653 0.007761 0.557362 -0.067202
C49   C     C_3   0.961428 0.213309 0.381604 0.279416
C50   C     C_3   0.943816 0.090942 0.365256 -0.354139
C51   C     C_3   0.720287 0.701007 0.681730 0.320958
C52   C     C_3   0.722851 0.730329 0.764498 -0.264185
C53   C     C_1   0.884877 0.788572 0.794237 0.296627
C54   C     C_2   0.684650 0.070422 0.765957 0.856854
C55   C     C_3   0.108086 0.236271 0.815114 -0.306504
C56   C     C_3   0.538960 0.178491 0.692282 0.345998
C57   C     C_3   0.533822 0.071328 0.719719 -0.182850
C58   C     C_R   0.993262 0.448776 0.048269 0.009034
H1    H     H_    0.724615 0.863993 0.341667 0.078396
H2    H     H_    0.838892 0.676252 0.663539 -0.023537
H3    H     H_    0.619357 0.631875 0.665434 0.066007
H4    H     H_    0.525607 0.962905 0.288284 0.104057
H5    H     H_    0.696156 0.655622 0.788307 0.008501
H6    H     H_    0.625469 0.780634 0.781192 0.112554
H7    H     H_    0.521846 0.785332 0.324696 -0.050344
H8    H     H_    0.488038 0.856081 0.210119 0.115299
H9    H     H_    0.342608 0.296508 0.335612 0.017911
H10   H     H_    0.559429 0.345489 0.324138 0.059049
H11   H     H_    0.332244 0.167325 0.220843 0.130718
H12   H     H_    0.225516 0.956624 0.674437 0.122696
H13   H     H_    0.405529 0.303106 0.205870 0.056016
H14   H     H_    0.550708 0.210001 0.210082 0.119870
H15   H     H_    0.689584 0.937611 0.226718 0.132486
H16   H     H_    0.150690 0.719095 0.148872 0.072121
H17   H     H_    0.119583 0.324776 0.727155 0.069530
H18   H     H_    0.923360 0.239481 0.732297 -0.024669
H19   H     H_    0.242168 0.265562 0.826789 0.139545
H20   H     H_    0.037851 0.286598 0.853626 0.086136
H21   H     H_    0.080797 0.151724 0.824545 0.133438
H22   H     H_    0.665752 0.204261 0.674643 -0.107075
H23   H     H_    0.166323 0.930290 0.578986 0.097151
H24   H     H_    0.451219 0.165587 0.644563 0.087228
H25   H     H_    0.526782 0.005079 0.672253 0.009355
H26   H     H_    0.047342 0.684624 0.269002 0.096051
H27   H     H_    0.422555 0.056087 0.752020 0.086623
H28   H     H_    0.648464 0.307390 0.108237 0.061796
H29   H     H_    0.540512 0.317384 0.987137 0.077189
H30   H     H_    0.826404 0.477979 0.655835 0.071749
H31   H     H_    0.581794 0.370676 0.869504 0.109757
H32   H     H_    0.874700 0.344263 0.198938 0.096319
H33   H     H_    0.315542 0.656635 0.801311 0.098468
H34   H     H_    0.026855 0.882368 0.645491 0.155868
H35   H     H_    0.538294 0.699494 0.893993 0.064523
H36   H     H_    0.647025 0.688321 0.014566 0.074870
H37   H     H_    0.608153 0.631061 0.131086 0.108825
H38   H     H_    0.261088 0.749356 0.274848 -0.073126
H39   H     H_    0.369681 0.513374 0.343103 0.072656
H40   H     H_    0.326764 0.034026 0.421161 0.103059
H41   H     H_    0.862621 0.960008 0.583747 0.114640
H42   H     H_    0.812695 0.268061 0.533555 0.065072
H43   H     H_    0.375657 0.723880 0.467206 0.069899
H44   H     H_    0.980989 0.790582 0.176084 0.150802
H45   H     H_    0.843155 0.237501 0.399684 0.003277
H46   H     H_    0.190790 0.862257 0.183810 0.113603
H47   H     H_    0.362560 0.809475 0.617245 -0.007155
H48   H     H_    0.171073 0.741680 0.569852 0.060712
H49   H     H_    0.892732 0.006390 0.776704 0.314160
H50   H     H_    0.058420 0.243135 0.425369 0.084378
H51   H     H_    0.845517 0.058931 0.322353 0.114472
H52   H     H_    0.910114 0.056340 0.414501 0.086070
H53   H     H_    0.062781 0.066283 0.346446 0.143809
N1    N     N_1   0.012697 0.834079 0.818027 -0.288401
O1    O     O_2   0.873090 0.425890 0.325140 -0.466435
O2    O     O_2   0.195990 0.122830 0.554074 -0.496230
O3    O     O_3   0.111865 0.160022 0.688846 -0.591653
O4    O     O_3   0.122420 0.434370 0.414380 -0.495986
O5    O     O_3   0.578370 0.633800 0.536380 -0.492895
O6    O     O_2   0.341510 0.231850 0.465510 -0.470117
O7    O     O_3   0.505714 0.189388 0.346015 -0.648872
O8    O     O_2   0.414420 0.449922 0.757594 -0.504392
O9    O     O_3   0.489610 0.255542 0.747128 -0.598649
O10   O     O_3   0.659500 0.627100 0.368810 -0.472050
O11   O     O_2   0.777293 0.547316 0.243685 -0.497294
O12   O     O_3   0.692038 0.790239 0.650881 -0.612550
O13   O     O_3   0.002015 0.253465 0.317984 -0.639346
O14   O     O_3   0.708485 0.742529 0.252974 -0.598246
O15   O     O_2   0.848200 0.768190 0.534530 -0.476749
O16   O     O_3   0.081160 0.685950 0.404810 -0.486271
O17   O     O_2   0.995286 0.878143 0.448308 -0.490791
O18   O     O_2   0.707920 0.128550 0.825423 -0.614902
O19   O     O_R   0.797525 0.002149 0.740571 -0.753866
O20   O     O_3   0.089561 0.847081 0.315130 -0.598633
O21   O     O_2   0.316610 0.574140 0.674900 -0.473521
O22   O     O_3   0.067290 0.565720 0.585630 -0.497321
O23   O     O_3   0.530210 0.372990 0.631200 -0.474500
O24   O     O_3   0.192739 0.746423 0.683521 -0.621238
O25   O     O_3   0.611340 0.366290 0.463630 -0.476561
O26   O     O_3   0.108550 0.314140 0.595200 -0.484860
P1    P     P_3+3 0.041040 0.394770 0.336330 0.971397
P2    P     P_3+3 0.672880 0.754030 0.556100 0.981832
P3    P     P_3+3 0.125883 0.823691 0.403315 0.946885
P4    P     P_3+3 0.148670 0.605320 0.663680 0.981537
P5    P     P_3+3 0.065616 0.176508 0.599772 0.946410
P6    P     P_3+3 0.644469 0.614338 0.274811 0.949569
P7    P     P_3+3 0.522798 0.230195 0.440288 0.932392
P8    P     P_3+3 0.547837 0.384130 0.725133 0.948203

loop_
_geom_bond_atom_site_label_1
_geom_bond_atom_site_label_2
_ccdc_geom_bond_type
O1    P1    D    
C14   H30   S    
C28   O24   S    
C28   H47   S    
Ba2   P4    S    
C55   H19   S    
O23   P8    S    
C41   P3    S    
C1    H8    S    
O4    P1    S    
C57   H25   S    
C54   O19   S    
Ba2   O4    S    
C5    C6    A    
C52   H5    S    
C51   C52   S    
C10   C11   A    
O25   P7    S    
C56   O9    S    
C15   P4    S    
Ba2   O25   S    
C4    H38   S    
C33   C35   A    
C22   C24   A    
Ba1   O15   S    
O11   P6    D    
C56   H22   S    
Ba1   O5    S    
O2    P5    D    
O22   P4    S    
C19   C31   A    
C50   H52   S    
C13   C14   A    
C20   C36   A    
C46   P7    S    
C32   H37   S    
C12   O14   S    
O3    P5    S    
Ba1   Ba2   S    
O13   P1    S    
C7    C11   A    
Ba1   P2    S    
C31   C33   A    
O20   P3    S    
C3    H28   S    
C9    C13   A    
C38   C41   A    
C6    C7    A    
C39   C44   A    
O7    P7    S    
O8    P8    D    
C18   C58   A    
Ba1   O22   S    
C1    H15   S    
Ba1   O25   S    
C34   H11   S    
C49   H45   S    
C19   C20   A    
C39   C41   A    
C55   H20   S    
C4    C16   S    
C44   C46   A    
H49   O19   S    
C49   C50   S    
C26   C30   A    
Ba1   O16   S    
C51   O12   S    
C3    C5    A    
C2    C21   A    
Ba2   O6    S    
C14   C15   A    
O15   P2    D    
C18   C26   A    
C50   H51   S    
C56   C57   S    
C50   H53   S    
C12   H1    S    
O10   P6    S    
O12   P2    S    
Ba2   O22   S    
C33   P6    S    
C30   C32   A    
C16   H46   S    
C35   C36   A    
C56   H24   S    
C45   C55   S    
C51   H2    S    
C4    O20   S    
C29   C30   A    
C45   O3    S    
C12   H7    S    
C2    C58   A    
C40   H12   S    
C31   C32   A    
C24   C25   A    
C39   H40   S    
C47   P5    S    
C16   H44   S    
C18   C19   A    
O16   P3    S    
C54   O18   D    
C1    C12   S    
C34   H14   S    
C48   H41   S    
C6    C8    A    
O21   P4    D    
C37   C47   A    
C8    H31   S    
C49   H50   S    
C36   P1    S    
C55   H21   S    
C23   H9    S    
C45   H17   S    
C35   H39   S    
O17   P3    D    
C42   C43   A    
C37   H42   S    
C27   H35   S    
C21   H32   S    
C52   C53   S    
C16   H16   S    
C28   H48   S    
C40   H34   S    
Ba2   O23   S    
C28   C40   S    
C40   H23   S    
C2    C3    A    
O26   P5    S    
Ba2   O5    S    
C52   H6    S    
C53   N1    T    
Ba2   O21   S    
C4    H26   S    
C54   C57   S    
C7    C58   A    
C49   O13   S    
C17   C22   A    
Ba1   O10   S    
Ba2   O26   S    
C27   C29   A    
O24   P4    S    
C22   H33   S    
C38   H43   S    
C51   H3    S    
O14   P6    S    
C13   P8    S    
C43   C48   A    
C10   C17   A    
C15   C17   A    
Ba1   O4    S    
C1    H4    S    
C57   H27   S    
Ba1   P1    S    
C8    C9    A    
C23   C34   S    
C43   C44   A    
C38   C42   A    
O9    P8    S    
C24   C27   A    
C42   P2    S    
C47   C48   A    
C25   C26   A    
O5    P2    S    
C20   C21   A    
C11   C25   A    
C23   H10   S    
Ba1   O1    S    
C45   H18   S    
C23   O7    S    
C34   H13   S    
O6    P7    D    
C29   H36   S    
C9    C10   A    
C37   C46   A    
C5    H29   S    
