data_mof_unit_57990.cif
_audit_creation_date              2012-12-10T18:57:11-0500
_audit_creation_method            fapswitch 2.2
_symmetry_space_group_name_H-M    P1
_symmetry_Int_Tables_number       1
_space_group_crystal_system       triclinic
_cell_length_a                    8.765254
_cell_length_b                    10.820533
_cell_length_c                    9.552158
_cell_angle_alpha                 90.208837
_cell_angle_beta                  97.758904
_cell_angle_gamma                 90.24526
_cell_volume                      897.66114012

loop_
_atom_site_label
_atom_site_type_symbol
_atom_type_description
_atom_site_fract_x
_atom_site_fract_y
_atom_site_fract_z
_atom_type_partial_charge
C1    C     C_R   0.496416 0.262386 0.499248 0.774231
C2    C     C_R   0.466281 0.935073 0.368170 -0.220206
C3    C     C_R   0.481011 0.870875 0.497130 -0.093090
C4    C     C_R   0.472399 0.937162 0.621421 0.120952
C5    C     C_3   0.572960 0.932934 0.760594 -0.492810
C6    C     C_3   0.571137 0.073090 0.760235 -0.445644
C7    C     C_R   0.632227 0.522882 0.090331 0.226438
C8    C     C_R   0.372924 0.465295 0.058379 -0.076836
C9    C     C_R   0.372819 0.465567 0.909787 -0.073684
C10   C     C_R   0.632977 0.520886 0.943156 0.218271
C11   C     C_3   0.732292 0.633249 0.950167 0.393370
C12   C     C_R   0.204521 0.497430 0.464355 0.796989
C13   C     C_3   0.727851 0.637404 0.108285 -0.523529
C14   C     C_R   0.497048 0.737727 0.499716 0.775689
C15   C     C_R   0.795596 0.503139 0.535487 0.811553
C16   C     C_2   0.039851 0.483087 0.446693 0.113333
C17   C     C_2   0.960173 0.518531 0.552060 0.141561
C18   C     C_R   0.471497 0.064364 0.620899 0.121536
C19   C     C_R   0.479660 0.129369 0.496296 -0.097883
C20   C     C_R   0.465667 0.063923 0.367751 -0.232143
Cu1   Cu    Cu3+1 0.499990 0.499980 0.640670 0.958641
Cu2   Cu    Cu3+1 0.500010 0.500020 0.359330 0.949687
H1    H     H_    0.269093 0.438823 0.842101 0.198638
H2    H     H_    0.677565 0.712793 0.891110 0.075577
H3    H     H_    0.841856 0.621974 0.171766 0.259161
H4    H     H_    0.663255 0.717910 0.142266 0.151028
H5    H     H_    0.462411 0.111543 0.267850 0.165426
H6    H     H_    0.463182 0.886570 0.268423 0.165000
H7    H     H_    0.512279 0.892475 0.844700 0.190127
H8    H     H_    0.688668 0.894138 0.752133 0.194048
H9    H     H_    0.508919 0.113196 0.843568 0.196866
H10   H     H_    0.685636 0.115214 0.752362 0.198785
H11   H     H_    0.269275 0.438312 0.100262 0.177020
N1    N     N_R   0.500980 0.500930 0.148050 -0.196822
N2    N     N_R   0.500990 0.500890 0.852140 -0.237529
O1    O     O_R   0.500000 0.319640 0.618810 -0.582038
O2    O     O_R   0.500020 0.319680 0.381230 -0.591900
O3    O     O_R   0.274830 0.499980 0.591380 -0.565553
O4    O     O_R   0.274850 0.500020 0.353800 -0.574076
O5    O     O_R   0.499980 0.680320 0.618770 -0.595643
O6    O     O_R   0.500000 0.680360 0.381190 -0.585584
O7    O     O_R   0.725150 0.499980 0.646200 -0.533412
O8    O     O_R   0.725170 0.500020 0.408620 -0.552890
O9    O     O_3   0.967200 0.435046 0.319882 -0.572001
C21   C     C_3   0.986744 0.305612 0.319698 0.085973
H12   H     H_    0.949767 0.262860 0.415841 0.115371
H13   H     H_    0.109157 0.281714 0.313767 0.136664
C22   C     C_3   0.887873 0.251053 0.190977 -0.753126
H14   H     H_    0.921211 0.291901 0.092900 0.253463
H15   H     H_    0.904073 0.149396 0.188027 0.187572
H16   H     H_    0.764445 0.270711 0.196115 0.251431
F1    F     F_    0.877401 0.605094 0.918575 -0.633523
O10   O     O_3   0.032042 0.572555 0.675839 -0.533915
C23   C     C_3   0.029784 0.702416 0.659207 0.157253
H17   H     H_    0.912380 0.738328 0.666948 0.140600
H18   H     H_    0.064791 0.731117 0.555962 0.080167
C24   C     C_3   0.143080 0.761385 0.775482 -0.723251
H19   H     H_    0.110789 0.739088 0.880911 0.283690
H20   H     H_    0.261049 0.726656 0.769717 0.250560
H21   H     H_    0.142890 0.863327 0.762460 0.170417

loop_
_geom_bond_atom_site_label_1
_geom_bond_atom_site_label_2
_ccdc_geom_bond_type
C19   C20   A    
C7    C10   A    
C6    H10   S    
O10   C23   S    
C10   N2    A    
Cu1   N2    S    
C20   H5    S    
C16   O9    S    
Cu2   O8    S    
C1    O2    A    
C4    C18   A    
C12   O4    A    
C22   H15   S    
C2    C3    A    
C8    C9    A    
C15   O8    A    
Cu1   O1    S    
C8    N1    A    
C21   H12   S    
C11   C13   S    
C13   H3    S    
C24   H19   S    
C3    C14   S    
C14   O6    A    
C6    C18   S    
Cu2   O4    S    
C22   H14   S    
C6    H9    S    
C5    H7    S    
C8    H11   S    
C21   H13   S    
C12   O3    A    
C5    C6    S    
Cu2   N1    S    
C7    N1    A    
C23   H18   S    
C13   H4    S    
C1    C19   S    
Cu2   O6    S    
C24   H20   S    
C10   C11   S    
C2    C20   A    
Cu1   O7    S    
C17   O10   S    
C11   H2    S    
C7    C13   S    
O9    C21   S    
C15   O7    A    
C15   C17   S    
C18   C19   A    
C5    H8    S    
C21   C22   S    
C9    N2    A    
C23   H17   S    
C4    C5    S    
C24   H21   S    
C2    H6    S    
C11   F1    S    
C12   C16   S    
Cu1   Cu2   S    
Cu2   O2    S    
C14   O5    A    
C22   H16   S    
C9    H1    S    
Cu1   O3    S    
C3    C4    A    
C1    O1    A    
C16   C17   D    
C23   C24   S    
Cu1   O5    S    
