data_mof_unit_36168.cif
_audit_creation_date              2013-03-05T15:44:23-0500
_audit_creation_method            fapswitch 2.2
_symmetry_space_group_name_H-M    P1
_symmetry_Int_Tables_number       1
_space_group_crystal_system       triclinic
_cell_length_a                    19.005143
_cell_length_b                    10.97844
_cell_length_c                    18.798337
_cell_angle_alpha                 89.849253
_cell_angle_beta                  89.892291
_cell_angle_gamma                 90.765713
_cell_volume                      3921.84225644

loop_
_atom_site_label
_atom_site_type_symbol
_atom_site_description
_atom_site_fract_x
_atom_site_fract_y
_atom_site_fract_z
_atom_type_partial_charge
O1    O     O_R   0.784320 0.290430 0.830510 -0.532902
O2    O     O_R   0.215680 0.290430 0.169490 -0.515547
O3    O     O_R   0.284320 0.790430 0.830510 -0.530246
O4    O     O_R   0.715680 0.790430 0.169490 -0.517246
O5    O     O_R   0.762640 0.040960 0.825200 -0.520335
O6    O     O_R   0.237360 0.040960 0.174800 -0.516496
O7    O     O_R   0.262640 0.540960 0.825200 -0.522095
O8    O     O_R   0.737360 0.540960 0.174800 -0.517771
C1    C     C_R   0.707116 0.002592 0.861348 0.554874
C2    C     C_R   0.273012 0.956875 0.146238 0.561998
C3    C     C_R   0.208481 0.499932 0.861768 0.552828
C4    C     C_R   0.772981 0.456042 0.146464 0.552397
O9    O     O_R   0.667400 0.923970 0.829950 -0.410381
O10   O     O_R   0.332600 0.923970 0.170050 -0.431545
O11   O     O_R   0.167400 0.423970 0.829950 -0.411327
O12   O     O_R   0.832600 0.423970 0.170050 -0.436389
O13   O     O_R   0.553960 0.081340 0.821780 -0.531272
O14   O     O_R   0.446040 0.081340 0.178220 -0.519181
O15   O     O_R   0.053960 0.581340 0.821780 -0.525695
O16   O     O_R   0.946040 0.581340 0.178220 -0.523728
C5    C     C_R   0.526304 0.177670 0.848045 0.545909
C6    C     C_R   0.466871 0.177867 0.147011 0.521478
C7    C     C_R   0.026800 0.678019 0.848413 0.540559
C8    C     C_R   0.969372 0.677141 0.148471 0.540899
O17   O     O_R   0.543180 0.283240 0.826740 -0.445518
O18   O     O_R   0.456820 0.283240 0.173260 -0.456101
O19   O     O_R   0.043180 0.783240 0.826740 -0.454085
O20   O     O_R   0.956820 0.783240 0.173260 -0.442862
O21   O     O_R   0.678360 0.375140 0.822710 -0.437161
O22   O     O_R   0.321640 0.375140 0.177290 -0.437395
O23   O     O_R   0.178360 0.875140 0.822710 -0.436524
O24   O     O_R   0.821640 0.875140 0.177290 -0.437366
C9    C     C_R   0.738286 0.362946 0.853210 0.568100
C10   C     C_R   0.262611 0.366066 0.147643 0.558333
C11   C     C_R   0.238264 0.862904 0.853172 0.568921
C12   C     C_R   0.761803 0.865986 0.147560 0.571336
O25   O     O_R   0.785050 0.289380 0.670560 -0.452328
O26   O     O_R   0.214950 0.289380 0.329440 -0.457941
O27   O     O_R   0.285050 0.789380 0.670560 -0.452044
O28   O     O_R   0.714950 0.789380 0.329440 -0.445868
O29   O     O_R   0.763320 0.039990 0.676930 -0.487179
O30   O     O_R   0.236680 0.039990 0.323070 -0.497610
O31   O     O_R   0.263320 0.539990 0.676930 -0.487365
O32   O     O_R   0.736680 0.539990 0.323070 -0.498281
C13   C     C_R   0.710195 0.000975 0.639652 0.548591
C14   C     C_R   0.289664 0.999760 0.360043 0.548199
C15   C     C_R   0.210214 0.500936 0.639654 0.548018
C16   C     C_R   0.773535 0.458545 0.354169 0.542325
O33   O     O_R   0.668130 0.922920 0.670000 -0.486295
O34   O     O_R   0.331870 0.922920 0.330000 -0.490889
O35   O     O_R   0.168130 0.422920 0.670000 -0.487863
O36   O     O_R   0.831870 0.422920 0.330000 -0.512690
O37   O     O_R   0.554640 0.080370 0.673500 -0.505306
O38   O     O_R   0.445360 0.080370 0.326500 -0.505668
O39   O     O_R   0.054640 0.580370 0.673500 -0.508256
O40   O     O_R   0.945360 0.580370 0.326500 -0.490882
C17   C     C_R   0.533681 0.176965 0.642413 0.550483
C18   C     C_R   0.472314 0.176375 0.353453 0.546139
C19   C     C_R   0.035184 0.677127 0.641788 0.551943
C20   C     C_R   0.971999 0.676098 0.353561 0.553067
O41   O     O_R   0.543920 0.282180 0.666790 -0.526972
O42   O     O_R   0.456080 0.282180 0.333210 -0.526041
O43   O     O_R   0.043920 0.782180 0.666790 -0.523423
O44   O     O_R   0.956080 0.782180 0.333210 -0.528391
O45   O     O_R   0.679040 0.374160 0.674430 -0.516090
O46   O     O_R   0.320960 0.374160 0.325570 -0.510236
O47   O     O_R   0.179040 0.874160 0.674430 -0.516036
O48   O     O_R   0.820960 0.874160 0.325570 -0.515227
C21   C     C_R   0.740313 0.364483 0.647244 0.563293
C22   C     C_R   0.259325 0.365957 0.352475 0.559026
C23   C     C_R   0.241002 0.865761 0.647673 0.555411
C24   C     C_R   0.759274 0.865986 0.352449 0.562140
Cr1   Cr    Cr6+3 0.769270 0.163730 0.750710 1.072608
Cr2   Cr    Cr6+3 0.230730 0.163730 0.249290 1.083379
Cr3   Cr    Cr6+3 0.269270 0.663730 0.750710 1.077692
Cr4   Cr    Cr6+3 0.730730 0.663730 0.249290 1.093032
Cr5   Cr    Cr6+3 0.612620 0.009790 0.748780 1.112042
Cr6   Cr    Cr6+3 0.387380 0.009790 0.251220 1.110598
Cr7   Cr    Cr6+3 0.112620 0.509790 0.748780 1.109879
Cr8   Cr    Cr6+3 0.887380 0.509790 0.251220 1.114367
Cr9   Cr    Cr6+3 0.614160 0.322500 0.747710 1.101670
Cr10  Cr    Cr6+3 0.385840 0.322500 0.252290 1.111163
Cr11  Cr    Cr6+3 0.114160 0.822500 0.747710 1.098892
Cr12  Cr    Cr6+3 0.885840 0.822500 0.252290 1.111586
O49   O     O_3   0.665350 0.165340 0.749070 -0.331913
O50   O     O_3   0.334650 0.165340 0.250930 -0.312628
O51   O     O_3   0.165350 0.665340 0.749070 -0.328943
O52   O     O_3   0.834650 0.665340 0.250930 -0.289752
C25   C     C_2   0.478237 0.173594 0.909347 0.282367
C26   C     C_2   0.492830 0.165113 0.073094 0.324607
C27   C     C_2   0.981383 0.676582 0.911618 0.270825
C28   C     C_2   0.997119 0.662230 0.075291 0.357243
C29   C     C_2   0.456413 0.090528 0.028501 -0.034399
C30   C     C_2   0.475224 0.077615 0.952594 -0.088915
C31   C     C_2   0.959257 0.591061 0.029960 0.003006
C32   C     C_2   0.977004 0.579300 0.953801 -0.086781
H1    H     H_    0.413943 0.032901 0.048667 0.116473
H2    H     H_    0.487923 0.989524 0.931453 0.177623
H3    H     H_    0.914692 0.537523 0.049279 0.118432
H4    H     H_    0.986457 0.490519 0.931432 0.174250
C33   C     C_R   0.699324 0.474935 0.962974 0.183262
C34   C     C_R   0.305535 0.474339 0.035276 0.195884
C35   C     C_R   0.200370 0.978048 0.962170 0.183837
C36   C     C_R   0.799920 0.976681 0.035254 0.212614
C37   C     C_R   0.703475 0.482750 0.036952 -0.149078
C38   C     C_R   0.286735 0.505219 0.965909 -0.175283
C39   C     C_R   0.204523 0.987569 0.036080 -0.147686
C40   C     C_R   0.781131 0.016168 0.967814 -0.178730
H5    H     H_    0.668579 0.544094 0.064497 0.196551
H6    H     H_    0.326737 0.546184 0.932225 0.178427
H7    H     H_    0.170918 0.051790 0.063013 0.195294
H8    H     H_    0.821709 0.057445 0.934996 0.164959
C41   C     C_R   0.754962 0.418178 0.074663 -0.062788
C42   C     C_R   0.220042 0.475265 0.937922 -0.052553
C43   C     C_R   0.254352 0.920242 0.074395 -0.062593
C44   C     C_R   0.715801 0.982413 0.938527 -0.054033
C45   C     C_R   0.800832 0.340984 0.038132 0.150835
C46   C     C_R   0.166599 0.430126 0.985033 0.184183
C47   C     C_R   0.297939 0.838766 0.038809 0.146810
C48   C     C_R   0.662726 0.931632 0.984889 0.184968
C49   C     C_R   0.800361 0.340941 0.965187 -0.172487
C50   C     C_R   0.181891 0.426378 0.057022 -0.149041
C51   C     C_R   0.298048 0.836957 0.965928 -0.170214
C52   C     C_R   0.677988 0.924636 0.057088 -0.153001
H9    H     H_    0.838621 0.283659 0.939311 0.190135
H10   H     H_    0.140530 0.400017 0.093891 0.199484
H11   H     H_    0.334338 0.775044 0.940856 0.190502
H12   H     H_    0.637280 0.893979 0.093570 0.200429
C53   C     C_R   0.748313 0.402527 0.926640 -0.034877
C54   C     C_R   0.250935 0.431822 0.081329 -0.027400
C55   C     C_R   0.248077 0.902084 0.926605 -0.034510
C56   C     C_R   0.747109 0.930915 0.081067 -0.026259
C57   C     C_R   0.528087 0.280069 0.527838 -0.131279
C58   C     C_R   0.524875 0.276811 0.455230 -0.135809
C59   C     C_R   0.037296 0.776311 0.525789 -0.129654
C60   C     C_R   0.031274 0.772053 0.453238 -0.131198
H13   H     H_    0.539319 0.367246 0.552368 0.151783
H14   H     H_    0.530773 0.361781 0.426181 0.148868
H15   H     H_    0.054536 0.861373 0.549458 0.150111
H16   H     H_    0.040867 0.854717 0.422865 0.150424
C61   C     C_R   0.505978 0.168099 0.421604 0.037853
C62   C     C_R   0.518002 0.172742 0.567644 0.025539
C63   C     C_R   0.005574 0.665850 0.421464 0.043817
C64   C     C_R   0.021480 0.672329 0.566805 0.020125
C65   C     C_R   0.501325 0.059306 0.460195 -0.110431
C66   C     C_R   0.507432 0.061690 0.533362 -0.136532
C67   C     C_R   0.995687 0.559061 0.461360 -0.089209
C68   C     C_R   0.004750 0.562261 0.534046 -0.131417
H17   H     H_    0.489286 0.974067 0.434246 0.201236
H18   H     H_    0.504430 0.977547 0.562951 0.209065
H19   H     H_    0.977047 0.475408 0.437206 0.196572
H20   H     H_    0.999005 0.479547 0.564507 0.215251
C69   C     C_R   0.817166 0.389513 0.542152 0.193027
C70   C     C_R   0.174978 0.413183 0.450688 0.205125
C71   C     C_R   0.324879 0.908553 0.548109 0.203224
C72   C     C_R   0.675187 0.909529 0.451328 0.207235
C73   C     C_R   0.818869 0.390656 0.468827 -0.120950
C74   C     C_R   0.166715 0.435070 0.522928 -0.117573
C75   C     C_R   0.332295 0.929434 0.475776 -0.118771
C76   C     C_R   0.667210 0.931391 0.523528 -0.115471
H21   H     H_    0.867595 0.365436 0.443283 0.175767
H22   H     H_    0.116421 0.415530 0.547580 0.163789
H23   H     H_    0.380969 0.905199 0.450271 0.161441
H24   H     H_    0.617616 0.908541 0.548659 0.164459
C77   C     C_R   0.761351 0.432075 0.429089 -0.017332
C78   C     C_R   0.222307 0.480908 0.563704 -0.029053
C79   C     C_R   0.277897 0.979664 0.436065 -0.025206
C80   C     C_R   0.722170 0.981018 0.563656 -0.028674
C81   C     C_R   0.700677 0.470839 0.463996 -0.142948
C82   C     C_R   0.286763 0.509814 0.530886 -0.132393
C83   C     C_R   0.215473 0.013677 0.470141 -0.142844
C84   C     C_R   0.785736 0.013554 0.530138 -0.134886
H25   H     H_    0.656774 0.507370 0.434528 0.165222
H26   H     H_    0.330079 0.548483 0.561030 0.186849
H27   H     H_    0.173300 0.056147 0.440869 0.177649
H28   H     H_    0.828470 0.055249 0.559771 0.188458
C85   C     C_R   0.696416 0.461462 0.537650 -0.163476
C86   C     C_R   0.297147 0.481716 0.459405 -0.160770
C87   C     C_R   0.205556 0.986349 0.541942 -0.168770
C88   C     C_R   0.796071 0.985290 0.458621 -0.164811
H29   H     H_    0.647508 0.484764 0.563521 0.154901
H30   H     H_    0.349047 0.495557 0.436634 0.164366
H31   H     H_    0.155060 0.004938 0.566043 0.153485
H32   H     H_    0.847444 0.002039 0.435252 0.163434
C89   C     C_R   0.753416 0.415928 0.576869 0.018504
C90   C     C_R   0.242507 0.428114 0.419485 0.010300
C91   C     C_R   0.258719 0.928127 0.580651 0.014625
C92   C     C_R   0.742130 0.928060 0.419411 0.008517
O53   O     O_3   0.549060 0.234094 0.047173 -0.516356
C93   C     C_3   0.606507 0.227516 0.094421 -0.085939
H33   H     H_    0.655544 0.237839 0.063016 0.144500
H34   H     H_    0.610246 0.138100 0.122425 0.095287
H35   H     H_    0.604068 0.302754 0.133718 0.154778
O54   O     O_3   0.443746 0.278763 0.927750 -0.483646
C94   C     C_3   0.384823 0.291790 0.882569 -0.052912
H36   H     H_    0.336628 0.260266 0.911022 0.134663
H37   H     H_    0.388267 0.242917 0.830660 0.096124
H38   H     H_    0.379345 0.389416 0.869218 0.178506
O55   O     O_3   0.055588 0.726683 0.050430 -0.523002
C95   C     C_3   0.110245 0.723405 0.101048 -0.088989
H39   H     H_    0.160915 0.732840 0.072407 0.153252
H40   H     H_    0.112612 0.635323 0.130618 0.097126
H41   H     H_    0.105348 0.800541 0.138797 0.155211
O56   O     O_3   0.954301 0.786226 0.934212 -0.461678
C96   C     C_3   0.897074 0.816897 0.889967 -0.023703
H42   H     H_    0.847256 0.782167 0.914011 0.137675
H43   H     H_    0.900925 0.783119 0.834189 0.094354
H44   H     H_    0.894911 0.917310 0.886213 0.178522
N1    N     N_R   0.647178 0.543679 0.925915 0.113120
O57   O     O_R   0.663898 0.603045 0.868162 -0.284465
O58   O     O_R   0.585125 0.557932 0.953822 -0.194102
N2    N     N_R   0.379680 0.480798 0.053950 0.124022
O59   O     O_R   0.400784 0.514271 0.116705 -0.201774
O60   O     O_R   0.426874 0.479654 0.003802 -0.221411
N3    N     N_R   0.149080 0.047540 0.924463 0.111332
O61   O     O_R   0.166574 0.105903 0.866590 -0.292656
O62   O     O_R   0.086456 0.061191 0.951151 -0.200109
N4    N     N_R   0.872854 0.958176 0.049100 0.126290
O63   O     O_R   0.892649 0.846786 0.057646 -0.315694
O64   O     O_R   0.919480 0.037700 0.027417 -0.203979
N5    N     N_R   0.850372 0.265315 0.074123 0.102576
O65   O     O_R   0.829914 0.194904 0.126234 -0.326481
O66   O     O_R   0.917097 0.276474 0.059764 -0.233101
N6    N     N_R   0.098864 0.379859 0.964180 0.070622
O67   O     O_R   0.092834 0.309708 0.909085 -0.209334
O68   O     O_R   0.050009 0.367861 0.012431 -0.324896
N7    N     N_R   0.342238 0.756476 0.076356 0.095581
O69   O     O_R   0.317919 0.698523 0.131914 -0.313474
O70   O     O_R   0.408050 0.746438 0.058376 -0.224751
N8    N     N_R   0.596167 0.877509 0.963259 0.068928
O71   O     O_R   0.591614 0.809207 0.907256 -0.208415
O72   O     O_R   0.547281 0.861039 0.011157 -0.325022
N9    N     N_R   0.880007 0.359063 0.580479 0.066590
O73   O     O_R   0.922842 0.277989 0.555543 -0.355680
O74   O     O_R   0.896931 0.418115 0.638107 -0.336838
N10   N     N_R   0.114904 0.372589 0.410529 0.076986
O75   O     O_R   0.071010 0.292972 0.437522 -0.347810
O76   O     O_R   0.099907 0.424573 0.350216 -0.333480
N11   N     N_R   0.384217 0.863694 0.586962 0.069747
O77   O     O_R   0.424022 0.780449 0.559452 -0.350432
O78   O     O_R   0.402603 0.914436 0.646760 -0.332923
N12   N     N_R   0.615537 0.864653 0.412021 0.075088
O79   O     O_R   0.573849 0.782183 0.439666 -0.344754
O80   O     O_R   0.598685 0.915022 0.351740 -0.338901

loop_
_geom_bond_atom_site_label_1
_geom_bond_atom_site_label_2
_geom_bond_distance
_ccdc_geom_bond_type
C18   O42   1.263697 A    
Cr11  O51   1.992177 S    
O4    C12   1.266414 A    
C57   H13   1.082313 S    
C29   C30   1.478017 S    
C94   H37   1.117067 S    
O39   C19   1.276099 A    
O20   Cr12  2.055240 S    
C33   C53   1.409069 A    
O29   C13   1.298690 A    
C62   C66   1.392887 A    
C45   N5    1.433406 S    
C67   C68   1.377985 A    
C64   C68   1.390990 A    
N6    O67   1.296625 A    
N8    O72   1.303132 A    
O26   C22   1.260896 A    
C65   C66   1.380820 A    
O1    C9    1.265030 A    
C59   C60   1.369715 A    
C5    C25   1.469422 S    
C96   H42   1.110811 S    
C76   C80   1.395290 A    
O7    C3    1.310807 A    
C70   C90   1.417415 A    
C57   C62   1.404929 A    
C93   H33   1.106647 S    
C69   C89   1.409016 A    
C17   C62   1.438042 S    
C38   C42   1.408480 A    
C76   H24   1.079758 S    
C37   C41   1.407522 A    
N11   O77   1.301705 A    
C70   C74   1.388686 A    
C60   C63   1.394379 A    
O25   C21   1.270066 A    
C12   C56   1.466430 S    
C20   C63   1.432966 S    
O30   C14   1.305774 A    
C31   H3    1.085864 S    
C87   C91   1.405875 A    
C30   H2    1.076743 S    
C85   C89   1.408004 A    
O21   C9    1.284480 A    
O8    Cr4   1.951185 S    
O23   Cr11  1.949961 S    
N10   O75   1.301542 A    
C52   C56   1.390532 A    
C46   C50   1.385295 A    
C73   H21   1.081971 S    
C81   C85   1.390255 A    
C25   C30   1.329722 D    
O32   Cr4   1.943353 S    
C3    C42   1.473673 S    
C1    O9    1.284548 A    
C24   C92   1.471044 S    
C65   H17   1.078472 S    
C45   C49   1.371290 A    
C88   C92   1.406092 A    
C93   H35   1.110959 S    
C27   C32   1.330139 D    
C66   H18   1.077838 S    
C3    O11   1.284428 A    
O41   Cr9   2.070574 S    
C81   H25   1.083258 S    
C16   C77   1.454771 S    
C31   C32   1.476618 S    
C75   C79   1.395045 A    
C95   H39   1.105933 S    
N12   O80   1.302030 A    
O27   Cr3   2.058936 S    
O7    Cr3   1.943753 S    
C28   O55   1.388947 S    
O3    Cr3   2.066129 S    
N9    O73   1.301852 A    
Cr4   O52   1.975157 S    
O47   C23   1.284186 A    
C27   O56   1.382996 S    
O2    Cr2   2.065963 S    
C60   H16   1.084096 S    
C52   H12   1.082585 S    
C94   H38   1.106436 S    
C84   C88   1.394666 A    
C72   C92   1.417593 A    
O54   C94   1.415293 S    
O42   Cr10  2.076481 S    
Cr5   O49   1.968470 S    
O55   C95   1.410779 S    
O18   Cr10  2.055240 S    
Cr8   O52   1.991546 S    
C33   C37   1.395852 A    
C83   C87   1.393821 A    
N8    O71   1.296461 A    
O22   Cr10  1.957414 S    
C8    C28   1.482599 S    
Cr7   O51   1.968470 S    
C37   H5    1.083519 S    
O6    Cr2   1.951185 S    
C87   H31   1.082572 S    
C96   H43   1.115691 S    
C77   C81   1.397542 A    
O24   Cr12  1.957414 S    
O9    Cr5   2.079532 S    
O30   Cr2   1.943353 S    
C14   C79   1.461782 S    
O22   C10   1.256481 A    
C47   N7    1.429120 S    
O48   Cr12  1.938069 S    
C4    O12   1.271273 A    
C72   C76   1.387299 A    
O36   Cr8   2.043397 S    
N1    O57   1.301486 A    
C2    O10   1.274904 A    
C73   C77   1.405099 A    
C15   C78   1.463337 S    
O16   Cr8   1.925673 S    
O15   C7    1.288448 A    
C15   O35   1.294643 A    
O26   Cr2   2.069590 S    
C33   N1    1.434180 S    
Cr10  O50   1.969647 S    
C71   C75   1.384958 A    
O11   Cr7   2.079532 S    
C28   C31   1.358387 D    
O13   C5    1.286497 A    
C40   H8    1.080786 S    
C43   C47   1.398108 A    
O43   Cr11  2.070574 S    
O48   C24   1.277694 A    
O12   Cr8   2.070544 S    
Cr12  O52   1.969647 S    
C50   H10   1.082968 S    
C67   H19   1.081286 S    
N3    O61   1.301523 A    
C49   H9    1.083199 S    
N5    O65   1.301871 A    
O34   Cr6   2.043397 S    
O46   Cr10  1.938069 S    
O39   Cr7   1.959630 S    
C29   H1    1.085997 S    
C51   H11   1.082957 S    
N7    O69   1.302307 A    
O3    C11   1.264783 A    
O8    C4    1.276433 A    
C39   C43   1.407256 A    
O13   Cr5   1.940714 S    
N12   O79   1.301656 A    
C6    C26   1.481246 S    
C69   N9    1.438695 S    
N11   O78   1.302162 A    
C86   H30   1.083197 S    
O47   Cr11  1.926267 S    
Cr2   O50   1.975157 S    
O15   Cr7   1.940714 S    
N9    O74   1.302593 A    
C36   N4    1.427931 S    
C42   C46   1.429112 A    
C72   N12   1.436660 S    
C41   C45   1.403685 A    
Cr3   O51   1.975628 S    
O14   Cr6   1.925673 S    
N7    O70   1.301178 A    
N2    O60   1.300194 A    
C19   C64   1.434888 S    
C78   C82   1.402732 A    
C7    O19   1.258865 A    
C46   N6    1.448939 S    
C36   C56   1.408019 A    
C57   C58   1.366934 A    
O38   C18   1.272549 A    
C8    O20   1.280888 A    
C75   H23   1.077938 S    
C19   O43   1.255639 A    
C48   N8    1.449702 S    
C21   C89   1.456781 S    
C63   C67   1.400435 A    
C36   C40   1.387664 A    
C88   H32   1.083147 S    
N6    O68   1.301961 A    
C74   C78   1.395686 A    
O31   Cr3   1.946340 S    
C4    C41   1.453524 S    
Cr1   O49   1.975628 S    
C96   H44   1.105774 S    
C9    C53   1.460292 S    
O45   C21   1.276668 A    
C5    O17   1.262409 A    
C23   C91   1.468748 S    
C59   C64   1.404755 A    
C93   H34   1.115835 S    
C35   N3    1.433280 S    
O28   C24   1.260300 A    
C51   C55   1.406266 A    
O2    C10   1.277008 A    
O14   C6    1.268291 A    
C1    C44   1.476982 S    
C39   H7    1.083529 S    
O21   Cr9   1.949961 S    
O5    Cr1   1.943753 S    
C68   H20   1.076467 S    
C49   C53   1.406658 A    
O31   C15   1.298535 A    
O17   Cr9   2.046021 S    
O37   C17   1.278151 A    
O6    C2    1.271799 A    
C79   C83   1.402675 A    
O24   C12   1.270947 A    
C17   O41   1.256671 A    
C82   H26   1.082902 S    
C47   C51   1.370238 A    
C58   H14   1.084084 S    
C50   C54   1.390866 A    
C14   O34   1.301105 A    
O25   Cr1   2.058936 S    
O40   Cr8   1.950910 S    
O44   Cr12  2.076481 S    
N4    O64   1.299876 A    
C20   O44   1.265589 A    
C59   H15   1.082579 S    
O1    Cr1   2.066129 S    
C40   C44   1.404744 A    
N3    O62   1.301377 A    
C26   C29   1.357518 D    
C11   C55   1.458527 S    
O29   Cr1   1.946340 S    
N5    O66   1.300149 A    
O32   C16   1.283506 A    
C71   C91   1.416494 A    
O33   Cr5   2.060126 S    
C58   C61   1.395116 A    
C80   C84   1.403019 A    
C18   C61   1.436275 S    
C34   N2    1.453703 S    
N4    O63   1.293929 A    
O46   C22   1.277018 A    
C83   H27   1.082998 S    
C95   H41   1.111015 S    
C85   H29   1.082250 S    
C25   O54   1.379828 S    
C32   H4    1.079656 S    
O23   C11   1.283836 A    
O19   Cr11  2.046021 S    
C61   C65   1.397496 A    
N1    O58   1.301356 A    
N10   O76   1.301755 A    
C13   O33   1.294723 A    
C34   C38   1.394848 A    
C7    C27   1.467202 S    
O10   Cr6   2.070544 S    
C69   C73   1.378741 A    
O53   C93   1.411206 S    
C13   C80   1.463714 S    
O35   Cr7   2.060126 S    
O4    Cr4   2.065963 S    
C48   C52   1.390544 A    
C74   H22   1.080157 S    
C71   N11   1.436589 S    
C94   H36   1.110643 S    
C86   C90   1.405963 A    
C44   C48   1.437684 A    
C16   O36   1.264584 A    
O40   C20   1.268525 A    
O56   C96   1.414134 S    
C10   C54   1.457721 S    
C38   H6    1.081075 S    
Cr6   O50   1.991546 S    
C6    O18   1.275450 A    
O28   Cr4   2.069590 S    
C70   N10   1.436466 S    
O27   C23   1.267784 A    
O45   Cr9   1.926267 S    
C35   C39   1.395891 A    
O5    C1    1.317810 A    
O38   Cr6   1.950910 S    
O37   Cr5   1.959630 S    
C22   C90   1.470851 S    
C35   C55   1.409054 A    
O16   C8    1.264536 A    
C95   H40   1.115589 S    
Cr9   O49   1.992177 S    
C2    C43   1.453367 S    
C84   H28   1.082833 S    
N2    O59   1.299104 A    
C82   C86   1.393740 A    
C26   O53   1.388310 S    
C34   C54   1.423259 A    
