data_mof_unit_14447.cif
_audit_creation_date              2012-12-10T20:27:14-0500
_audit_creation_method            fapswitch 2.2
_symmetry_space_group_name_H-M    P1
_symmetry_Int_Tables_number       1
_space_group_crystal_system       triclinic
_cell_length_a                    10.890402
_cell_length_b                    10.635482
_cell_length_c                    9.910265
_cell_angle_alpha                 89.065691
_cell_angle_beta                  104.532624
_cell_angle_gamma                 91.926758
_cell_volume                      1110.46261693

loop_
_atom_site_label
_atom_site_type_symbol
_atom_type_description
_atom_site_fract_x
_atom_site_fract_y
_atom_site_fract_z
_atom_type_partial_charge
C1    C     C_R   0.517888 0.261794 0.505408 0.910342
C2    C     C_R   0.594049 0.561257 0.094407 0.218262
C3    C     C_R   0.595474 0.557097 0.951896 -0.112380
C4    C     C_R   0.259466 0.506065 0.441271 0.911531
C5    C     C_R   0.393728 0.462552 0.899915 0.104891
C6    C     C_3   0.323209 0.340680 0.868286 -0.462039
C7    C     C_3   0.334682 0.328103 0.023903 0.756109
C8    C     C_R   0.500752 0.741241 0.498574 0.963076
C9    C     C_R   0.740747 0.499991 0.559229 0.912504
C10   C     C_2   0.122520 0.510298 0.406639 -0.077892
C11   C     C_2   0.064928 0.545513 0.504779 0.163740
C12   C     C_R   0.559991 0.133479 0.514165 -0.292130
C13   C     C_2   0.877233 0.513580 0.594928 -0.309537
C14   C     C_2   0.934588 0.504409 0.492181 -0.160996
C15   C     C_R   0.581033 0.062332 0.636308 -0.006502
C16   C     C_R   0.566743 0.071008 0.391798 0.444964
C17   C     C_R   0.528578 0.944752 0.378391 0.181227
C18   C     C_R   0.525792 0.874734 0.500894 -0.223901
C19   C     C_R   0.569235 0.933846 0.629898 0.024670
C20   C     C_3   0.525659 0.925429 0.761597 0.246923
C21   C     C_3   0.537919 0.068305 0.766842 -0.055755
C22   C     C_R   0.395486 0.457870 0.042686 0.076088
H1    H     H_    0.881198 0.465420 0.394132 0.210682
H2    H     H_    0.661879 0.201916 0.321974 0.344934
H3    H     H_    0.378836 0.882295 0.829301 0.371437
H4    H     H_    0.672578 0.602349 0.916904 0.170363
H5    H     H_    0.224654 0.353643 0.804538 0.222439
H6    H     H_    0.377341 0.272550 0.826517 0.180121
H7    H     H_    0.927082 0.541121 0.699742 0.197836
H8    H     H_    0.592121 0.874335 0.847066 0.142198
H9    H     H_    0.445013 0.112494 0.749495 0.174177
H10   H     H_    0.234231 0.299601 0.156247 0.378191
H11   H     H_    0.497596 0.246232 0.065215 0.351454
I1    I     I_    0.688893 0.137200 0.934260 -0.253825
I2    I     I_    0.736738 0.681626 0.216289 -0.250253
I3    I     I_    0.152301 0.672377 0.671544 -0.234547
I4    I     I_    0.021762 0.443907 0.204906 -0.251982
I5    I     I_    0.449043 0.883875 0.168820 -0.181562
N1    N     N_R   0.499160 0.499140 0.142600 -0.147041
N2    N     N_R   0.499160 0.499180 0.856960 -0.110228
O1    O     O_R   0.500020 0.316790 0.614700 -0.615517
O2    O     O_3   0.414311 0.231142 0.087100 -0.688695
O3    O     O_3   0.603116 0.130738 0.283184 -0.680281
O4    O     O_3   0.399065 0.882587 0.737193 -0.706315
O5    O     O_R   0.500000 0.316760 0.385350 -0.583631
O6    O     O_R   0.317820 0.500020 0.571850 -0.595885
O7    O     O_R   0.317800 0.499980 0.342510 -0.591698
O8    O     O_R   0.500000 0.683240 0.614650 -0.577279
O9    O     O_R   0.499980 0.683210 0.385300 -0.593426
O10   O     O_R   0.682200 0.500020 0.657490 -0.615162
O11   O     O_R   0.682180 0.499980 0.428150 -0.609245
O12   O     O_3   0.216606 0.320081 0.055306 -0.690858
Zn1   Zn    Zn3+2 0.500010 0.500020 0.653140 0.998802
Zn2   Zn    Zn3+2 0.499990 0.499980 0.346860 1.021600

loop_
_geom_bond_atom_site_label_1
_geom_bond_atom_site_label_2
_ccdc_geom_bond_type
C2    I2    S    
C7    O12   S    
C8    O8    A    
C6    C7    S    
C5    C22   A    
C7    C22   S    
C6    H5    S    
C9    O11   A    
C12   C15   A    
O11   Zn2   S    
O1    Zn1   S    
C2    C3    A    
C20   H8    S    
C13   C14   D    
C15   C19   A    
C21   H9    S    
C16   O3    S    
C1    O5    A    
C5    C6    S    
C1    C12   S    
O7    Zn2   S    
C12   C16   A    
H11   O2    S    
C2    N1    A    
O6    Zn1   S    
C13   H7    S    
C11   I3    S    
C20   O4    S    
C14   H1    S    
O5    Zn2   S    
C17   C18   A    
C17   I5    S    
C10   I4    S    
O8    Zn1   S    
C11   C14   S    
C8    C18   S    
C7    O2    S    
N1    Zn2   S    
C10   C11   D    
C22   N1    A    
C4    C10   S    
O9    Zn2   S    
O10   Zn1   S    
H10   O12   S    
C15   C21   S    
C20   C21   S    
H3    O4    S    
N2    Zn1   S    
C5    N2    A    
C1    O1    A    
H2    O3    S    
C9    C13   S    
C18   C19   A    
C4    O6    A    
C21   I1    S    
C3    N2    A    
C8    O9    A    
C3    H4    S    
C6    H6    S    
C9    O10   A    
C19   C20   S    
C16   C17   A    
C4    O7    A    
