data_mof_unit_43809.cif
_audit_creation_date              2013-03-05T16:02:25-0500
_audit_creation_method            fapswitch 2.2
_symmetry_space_group_name_H-M    P1
_symmetry_Int_Tables_number       1
_space_group_crystal_system       triclinic
_cell_length_a                    15.287036
_cell_length_b                    14.180928
_cell_length_c                    11.102673
_cell_angle_alpha                 90.134065
_cell_angle_beta                  88.963897
_cell_angle_gamma                 85.120807
_cell_volume                      2397.75360555

loop_
_atom_site_label
_atom_site_type_symbol
_atom_site_description
_atom_site_fract_x
_atom_site_fract_y
_atom_site_fract_z
_atom_type_partial_charge
O1    O     O_R   0.367860 0.580280 0.500020 -0.546717
O2    O     O_R   0.367860 0.419720 0.500020 -0.600074
C1    C     C_R   0.325498 0.504084 0.502998 1.106140
O3    O     O_R   0.500000 0.580270 0.314790 -0.608104
O4    O     O_R   0.500000 0.419730 0.314790 -0.544821
C2    C     C_R   0.499292 0.500414 0.257270 1.041857
Zn1   Zn    Zn3+2 0.500020 0.607200 0.499990 1.079498
Zn2   Zn    Zn3+2 0.500020 0.392800 0.499990 1.098611
O5    O     O_R   0.632160 0.580270 0.499960 -0.605524
O6    O     O_R   0.632160 0.419730 0.499960 -0.550870
O7    O     O_R   0.500030 0.580270 0.685200 -0.595687
O8    O     O_R   0.500030 0.419730 0.685200 -0.600192
C3    C     C_R   0.673975 0.495848 0.495940 0.929247
C4    C     C_R   0.497987 0.500496 0.742633 1.071813
C5    C     C_3   0.450810 0.605143 0.076269 0.476452
C6    C     C_3   0.439610 0.416115 0.074608 0.464208
C7    C     C_3   0.458851 0.608925 0.930821 0.525679
C8    C     C_3   0.434339 0.420233 0.929578 0.500512
H1    H     H_    0.627369 0.534503 0.884938 0.315495
H2    H     H_    0.614031 0.418377 0.888134 0.186577
C9    C     C_3   0.592424 0.488696 0.064604 0.846165
C10   C     C_3   0.493821 0.503008 0.120070 -0.405284
C11   C     C_3   0.491177 0.502865 0.879861 -0.459440
C12   C     C_3   0.585006 0.483712 0.925580 -0.466519
C13   C     C_R   0.823006 0.458458 0.396585 0.383137
C14   C     C_R   0.771337 0.486502 0.498212 -0.173877
C15   C     C_R   0.813509 0.498993 0.607160 0.308725
C16   C     C_R   0.906166 0.487836 0.613259 -0.120622
C17   C     C_R   0.955164 0.482896 0.504489 -0.032117
C18   C     C_R   0.912299 0.475713 0.394449 -0.158208
C19   C     C_R   0.951642 0.479471 0.723037 0.224887
C20   C     C_R   0.043403 0.477348 0.723472 0.199287
C21   C     C_R   0.090291 0.489428 0.614822 -0.128109
C22   C     C_R   0.046895 0.484915 0.505331 -0.103175
C23   C     C_R   0.094169 0.488707 0.396245 -0.198801
C24   C     C_R   0.051991 0.474338 0.287502 0.411799
C25   C     C_R   0.960858 0.475431 0.285992 0.193451
C26   C     C_R   0.178369 0.512130 0.614043 0.479457
C27   C     C_R   0.227335 0.511766 0.504903 -0.266891
C28   C     C_R   0.180835 0.514720 0.396826 0.468072
C29   C     C_R   0.575699 0.794522 0.473993 0.325895
C30   C     C_R   0.570962 0.195837 0.452688 0.346927
N1    N     N_R   0.500070 0.750030 0.500050 -0.241131
N2    N     N_R   0.500070 0.249970 0.500050 -0.229812
C31   C     C_R   0.421744 0.805808 0.512096 0.345617
C32   C     C_R   0.426143 0.205956 0.533601 0.322973
C33   C     C_R   0.417262 0.907193 0.501930 -0.228934
C34   C     C_R   0.419604 0.108480 0.506454 -0.233469
C35   C     C_R   0.494559 0.950482 0.472921 -0.075388
C36   C     C_R   0.495419 0.051258 0.473321 -0.058363
C37   C     C_R   0.571856 0.893216 0.446692 -0.174463
C38   C     C_R   0.572101 0.094911 0.442430 -0.194996
C39   C     C_R   0.337419 0.966926 0.514512 0.459620
C40   C     C_R   0.338900 0.066406 0.513272 0.472779
C41   C     C_R   0.645327 0.036401 0.396626 0.251247
C42   C     C_R   0.644645 0.936892 0.397368 0.243901
O9    O     O_3   0.505086 0.674371 0.122866 -0.543216
C43   C     C_3   0.465788 0.767945 0.137512 -0.061699
H3    H     H_    0.451324 0.781983 0.234490 0.162921
H4    H     H_    0.405119 0.783929 0.086304 0.170298
H5    H     H_    0.513869 0.817974 0.108370 0.172344
O10   O     O_3   0.491572 0.332392 0.111650 -0.571104
C44   C     C_3   0.447542 0.250352 0.135404 -0.077211
H6    H     H_    0.407799 0.230461 0.058179 0.204618
H7    H     H_    0.407701 0.258451 0.220011 0.160871
H8    H     H_    0.497810 0.190525 0.149907 0.157954
N3    N     N_R   0.089013 0.458344 0.833728 0.265595
O11   O     O_R   0.146222 0.385363 0.840591 -0.257355
O12   O     O_R   0.069705 0.509918 0.929114 -0.245934
O13   O     O_3   0.209013 0.555942 0.713688 -0.519118
C45   C     C_3   0.165570 0.648378 0.723500 0.041154
H9    H     H_    0.094922 0.647234 0.747570 0.108873
H10   H     H_    0.172232 0.689344 0.638950 0.154972
H11   H     H_    0.194477 0.687048 0.797602 0.265522
O14   O     O_3   0.211076 0.566358 0.301561 -0.477644
C46   C     C_3   0.158962 0.654181 0.294228 0.055840
H12   H     H_    0.197056 0.707532 0.249521 0.214932
H13   H     H_    0.137837 0.684228 0.384136 0.079641
H14   H     H_    0.100520 0.646816 0.238240 0.169583
O15   O     O_3   0.099748 0.456302 0.182083 -0.490379
C47   C     C_3   0.115086 0.356951 0.170199 0.060607
H15   H     H_    0.167473 0.329485 0.232266 0.123490
H16   H     H_    0.136272 0.339740 0.076265 0.256405
H17   H     H_    0.055407 0.318757 0.187284 0.077910
N4    N     N_R   0.918019 0.487014 0.173628 0.238376
O16   O     O_R   0.901472 0.572574 0.133498 -0.301460
O17   O     O_R   0.922102 0.416494 0.098408 -0.351348
N5    N     N_R   0.659371 0.750940 0.508500 0.242083
O18   O     O_R   0.683954 0.760130 0.619062 -0.339178
O19   O     O_R   0.716297 0.715460 0.428596 -0.360808
N6    N     N_R   0.646101 0.241763 0.420158 0.229637
O20   O     O_R   0.647155 0.288504 0.319762 -0.307254
O21   O     O_R   0.709538 0.244272 0.496288 -0.377568
N7    N     N_R   0.344441 0.762302 0.543627 0.260645
O22   O     O_R   0.291271 0.743090 0.458713 -0.411581
O23   O     O_R   0.314202 0.772027 0.653378 -0.335942
N8    N     N_R   0.366169 0.248729 0.622670 0.287398
O24   O     O_R   0.372028 0.215314 0.731402 -0.304839
O25   O     O_R   0.290649 0.289231 0.590825 -0.310495
O26   O     O_3   0.257966 0.929493 0.537650 -0.525891
C48   C     C_3   0.206517 0.932574 0.432927 -0.112010
H18   H     H_    0.246179 0.923958 0.347653 0.104894
H19   H     H_    0.162178 0.998523 0.431423 0.185667
H20   H     H_    0.163224 0.873696 0.436875 0.193971
O27   O     O_3   0.259558 0.121202 0.515765 -0.523278
C49   C     C_3   0.244242 0.159961 0.399716 -0.260317
H21   H     H_    0.251610 0.105144 0.327467 0.103762
H22   H     H_    0.288533 0.216104 0.378767 0.175247
H23   H     H_    0.175847 0.192975 0.397639 0.197458
N9    N     N_R   0.717514 0.076362 0.337643 0.234926
O28   O     O_R   0.792722 0.075878 0.390770 -0.321964
O29   O     O_R   0.712127 0.098918 0.224356 -0.365821
N10   N     N_R   0.711192 0.882217 0.328533 0.257599
O30   O     O_R   0.689556 0.836028 0.233678 -0.349195
O31   O     O_R   0.793687 0.883726 0.354688 -0.257216
N11   N     N_R   0.361057 0.622421 0.132239 0.189254
O32   O     O_R   0.289073 0.632833 0.072081 -0.289059
O33   O     O_R   0.354218 0.644139 0.245882 -0.333886
N12   N     N_R   0.350590 0.416662 0.131140 0.223446
O34   O     O_R   0.337782 0.441303 0.242877 -0.377796
O35   O     O_R   0.295451 0.361148 0.087278 -0.388573
N13   N     N_R   0.376446 0.649631 0.875189 0.208471
O36   O     O_R   0.341074 0.733107 0.906497 -0.393335
O37   O     O_R   0.349997 0.614517 0.776098 -0.334835
N14   N     N_R   0.344344 0.443507 0.884758 0.261294
O38   O     O_R   0.324882 0.412134 0.779321 -0.224987
O39   O     O_R   0.284154 0.497150 0.941175 -0.227428
O40   O     O_3   0.530410 0.666492 0.902712 -0.570953
C50   C     C_3   0.512792 0.752140 0.838797 0.033296
H24   H     H_    0.576454 0.778716 0.812537 0.196563
H25   H     H_    0.478171 0.807695 0.896346 0.132317
H26   H     H_    0.476919 0.742954 0.754532 0.180900
O41   O     O_3   0.454905 0.326527 0.879022 -0.532873
C51   C     C_3   0.539735 0.277659 0.875788 -0.133505
H27   H     H_    0.579958 0.286090 0.955246 0.199177
H28   H     H_    0.576276 0.292723 0.792012 0.188321
H29   H     H_    0.530970 0.200910 0.871564 0.181994
O42   O     O_3   0.641451 0.568534 0.087064 -0.574155
C52   C     C_3   0.675675 0.573708 0.203795 0.021846
H30   H     H_    0.666510 0.511662 0.260752 0.127392
H31   H     H_    0.645299 0.638163 0.249345 0.224335
H32   H     H_    0.746611 0.581742 0.196248 0.216346
O43   O     O_3   0.637626 0.403169 0.108478 -0.604142
C53   C     C_3   0.722181 0.382160 0.054753 0.005889
H33   H     H_    0.719135 0.338047 0.972832 0.151505
H34   H     H_    0.762626 0.336725 0.115566 0.224660
H35   H     H_    0.756981 0.445875 0.034148 0.241739
O44   O     O_3   0.791918 0.396139 0.314912 -0.615746
C54   C     C_3   0.841886 0.306951 0.324107 -0.036194
H36   H     H_    0.805881 0.251014 0.283147 0.248716
H37   H     H_    0.855718 0.286189 0.419066 0.187541
H38   H     H_    0.904843 0.305905 0.273272 0.118985
N15   N     N_R   0.760930 0.509053 0.712970 0.204624
O45   O     O_R   0.728437 0.434191 0.755476 -0.456028
O46   O     O_R   0.734781 0.592865 0.754012 -0.300349
N16   N     N_R   0.906707 0.463432 0.833477 0.261204
O47   O     O_R   0.877888 0.534828 0.900875 -0.241304
O48   O     O_R   0.891588 0.377710 0.863820 -0.328474

loop_
_geom_bond_atom_site_label_1
_geom_bond_atom_site_label_2
_geom_bond_distance
_ccdc_geom_bond_type
C15   N15   1.411406 S    
C41   C42   1.412096 A    
C26   O13   1.376391 S    
C48   H18   1.115807 S    
C5    O9    1.439288 S    
C23   C24   1.401526 A    
C46   H14   1.109564 S    
O40   C50   1.416542 S    
C51   H29   1.108828 S    
C44   H7    1.110601 S    
N8    O24   1.299729 A    
C33   C35   1.409762 A    
C39   C40   1.412914 A    
C34   C40   1.416287 A    
C16   C17   1.407952 A    
C14   C15   1.398846 A    
C17   C18   1.404329 A    
C30   N2    1.369767 A    
C25   N4    1.422823 S    
N16   O47   1.299142 A    
C46   H13   1.115902 S    
C37   C42   1.420725 A    
C53   H35   1.109084 S    
C8    N14   1.482411 S    
O4    C2    1.310976 A    
C52   H32   1.101679 S    
C49   H21   1.113255 S    
C43   H4    1.103959 S    
O43   C53   1.421664 S    
C2    C10   1.527443 S    
N11   O32   1.295473 A    
C8    O41   1.448707 S    
C5    C7    1.618670 S    
C22   C23   1.402603 A    
C31   C33   1.438336 A    
O5    C3    1.308580 A    
N9    O28   1.301148 A    
C45   H11   1.106854 S    
N8    O25   1.300239 A    
C5    C10   1.618473 S    
N15   O45   1.296163 A    
H2    C12   1.072266 S    
C35   C37   1.401349 A    
C36   C38   1.408863 A    
C42   N10   1.433567 S    
O13   C45   1.421199 S    
Zn1   N1    2.025526 S    
N15   O46   1.300028 A    
C38   C41   1.421123 A    
Zn2   O8    2.090614 S    
C33   C39   1.429757 A    
C50   H26   1.105950 S    
C43   H5    1.108793 S    
N4    O17   1.298099 A    
N14   O38   1.299815 A    
C44   H8    1.109252 S    
C1    C27   1.495061 S    
C48   H19   1.107698 S    
C9    C10   1.614418 S    
C29   N1    1.389718 A    
C6    O10   1.436454 S    
C9    O42   1.433701 S    
O3    Zn1   2.090511 S    
C31   N7    1.417669 S    
C47   H16   1.106928 S    
N2    C32   1.382523 A    
C19   N16   1.422857 S    
N12   O35   1.301275 A    
C39   O26   1.386384 S    
C52   H30   1.101843 S    
C32   C34   1.426268 A    
C8    C11   1.609863 S    
C46   H12   1.106412 S    
C9    O43   1.434635 S    
C53   H34   1.096670 S    
C24   O15   1.379946 S    
C6    N12   1.487697 S    
C27   C28   1.404614 A    
C45   H10   1.112762 S    
O15   C47   1.413918 S    
C51   H28   1.106911 S    
C43   H3    1.109386 S    
N4    O16   1.299631 A    
C17   C22   1.405214 A    
C47   H15   1.111790 S    
N3    O11   1.300218 A    
C18   C25   1.402931 A    
O1    C1    1.306303 A    
C4    C11   1.525365 S    
Zn1   O7    2.092366 S    
O14   C46   1.423520 S    
O10   C44   1.415737 S    
N6    O21   1.300589 A    
C19   C20   1.400606 A    
C11   C12   1.532813 S    
C21   C22   1.399285 A    
C13   C14   1.402651 A    
C7    C11   1.638881 S    
O44   C54   1.425698 S    
N7    O23   1.298275 A    
C34   C36   1.400082 A    
N1    C31   1.381965 A    
C20   N3    1.434474 S    
O3    C2    1.299735 A    
C32   N8    1.433958 S    
N5    O19   1.301150 A    
C48   H20   1.109134 S    
C41   N9    1.431683 S    
O41   C51   1.417240 S    
C3    C14   1.483674 S    
C54   H38   1.105865 S    
N13   O37   1.292133 A    
N6    O20   1.298726 A    
C47   H17   1.113525 S    
N10   O30   1.301448 A    
C13   C18   1.406904 A    
Zn1   O5    2.023635 S    
C29   N5    1.431498 S    
C24   C25   1.392321 A    
C6    C10   1.626613 S    
C40   O27   1.383507 S    
O1    Zn1   2.087742 S    
H1    C12   1.100944 S    
C16   C19   1.414287 A    
O2    Zn2   2.023924 S    
Zn2   N2    2.025400 S    
O8    C4    1.307352 A    
C53   H33   1.106609 S    
O6    C3    1.300897 A    
C6    C8    1.614628 S    
O4    Zn2   2.092258 S    
N12   O34   1.294999 A    
C7    O40   1.449576 S    
C51   H27   1.096485 S    
O27   C49   1.417521 S    
C21   C26   1.410676 A    
C28   O14   1.382815 S    
C20   C21   1.410278 A    
C54   H37   1.114382 S    
C23   C28   1.405287 A    
C50   H24   1.107611 S    
C45   H9    1.109346 S    
C54   H36   1.104822 S    
C50   H25   1.106118 S    
C52   H31   1.106342 S    
O9    C43   1.417043 S    
C26   C27   1.412517 A    
C49   H22   1.110525 S    
N16   O48   1.300589 A    
O26   C48   1.414162 S    
O7    C4    1.302311 A    
N11   O33   1.298350 A    
O2    C1    1.311101 A    
C13   O44   1.382890 S    
N7    O22   1.299179 A    
N9    O29   1.300882 A    
O42   C52   1.410464 S    
C44   H6    1.109371 S    
C7    N13   1.485844 S    
N5    O18   1.299732 A    
Zn2   O6    2.087476 S    
C35   C36   1.430267 A    
C9    C12   1.551624 S    
C15   C16   1.414693 A    
N14   O39   1.294420 A    
C5    N11   1.496663 S    
N3    O12   1.300742 A    
N13   O36   1.302654 A    
C29   C37   1.429252 A    
C30   N6    1.409733 S    
C30   C38   1.434079 A    
N10   O31   1.301137 A    
C49   H23   1.109317 S    
