data_mof_unit_32431.cif
_audit_creation_date              2012-12-10T18:58:48-0500
_audit_creation_method            fapswitch 2.2
_symmetry_space_group_name_H-M    P1
_symmetry_Int_Tables_number       1
_space_group_crystal_system       triclinic
_cell_length_a                    12.980788
_cell_length_b                    10.871118
_cell_length_c                    9.58084
_cell_angle_alpha                 90.328548
_cell_angle_beta                  95.47243
_cell_angle_gamma                 91.135044
_cell_volume                      1345.5410094

loop_
_atom_site_label
_atom_site_type_symbol
_atom_type_description
_atom_site_fract_x
_atom_site_fract_y
_atom_site_fract_z
_atom_type_partial_charge
C1    C     C_R   0.504510 0.262736 0.500037 0.776558
C2    C     C_R   0.025973 0.549058 0.555706 0.070355
C3    C     C_R   0.973918 0.474981 0.447263 0.177154
C4    C     C_R   0.867005 0.457646 0.440131 -0.207589
C5    C     C_R   0.861284 0.584616 0.647476 -0.167098
C6    C     C_R   0.967599 0.603798 0.655123 -0.205955
C7    C     C_R   0.461367 0.064319 0.602515 0.052236
C8    C     C_R   0.507854 0.129131 0.498291 -0.215285
C9    C     C_R   0.551372 0.062880 0.390292 0.001151
C10   C     C_R   0.543628 0.934045 0.388959 -0.211292
C11   C     C_R   0.502734 0.870711 0.498652 -0.132849
C12   C     C_R   0.301004 0.502877 0.474475 0.867579
C13   C     C_R   0.462624 0.936972 0.604585 0.142557
C14   C     C_3   0.494917 0.932762 0.757791 -0.484173
C15   C     C_3   0.488966 0.071519 0.758273 0.078206
C16   C     C_R   0.585959 0.537339 0.085001 0.247127
C17   C     C_R   0.419486 0.451086 0.065207 -0.115162
C18   C     C_R   0.418029 0.450954 0.916014 0.351994
C19   C     C_R   0.586032 0.537011 0.937736 0.204169
C20   C     C_3   0.637076 0.660781 0.939236 -0.487837
C21   C     C_3   0.636843 0.661628 0.097813 -0.246806
C22   C     C_R   0.501811 0.737439 0.500332 0.843713
C23   C     C_R   0.698994 0.501773 0.525580 0.768967
C24   C     C_R   0.810919 0.512552 0.539722 -0.061190
C25   C     C_R   0.188386 0.504808 0.460660 -0.065480
C26   C     C_R   0.028686 0.420332 0.345746 -0.161196
C27   C     C_R   0.135208 0.434548 0.352928 -0.242478
C28   C     C_R   0.134085 0.567661 0.559753 -0.068142
Cu1   Cu    Cu3+1 0.499990 0.499980 0.640670 0.972996
Cu2   Cu    Cu3+1 0.500010 0.500020 0.359330 0.938917
H1    H     H_    0.827122 0.401934 0.356624 0.158001
H2    H     H_    0.576163 0.903190 0.779258 0.169932
H3    H     H_    0.563919 0.120724 0.788674 0.170552
H4    H     H_    0.355756 0.411427 0.115317 0.162194
H5    H     H_    0.714922 0.658553 0.900859 0.210834
H6    H     H_    0.584624 0.729021 0.888222 0.192908
H7    H     H_    0.585782 0.732479 0.136257 0.144379
H8    H     H_    0.817924 0.629942 0.722936 0.146303
H9    H     H_    0.989261 0.364444 0.262230 0.154950
H10   H     H_    0.002245 0.662702 0.738584 0.133127
H11   H     H_    0.176679 0.387067 0.276451 0.152079
H12   H     H_    0.577353 0.882615 0.308392 0.177535
H13   H     H_    0.436933 0.884071 0.816949 0.220939
N1    N     N_R   0.500660 0.500930 0.148010 -0.231159
N2    N     N_R   0.500660 0.500890 0.852110 -0.224336
O1    O     O_R   0.500000 0.319640 0.618810 -0.583722
O2    O     O_R   0.500010 0.319680 0.381230 -0.596727
O3    O     O_R   0.348990 0.499960 0.599490 -0.547032
O4    O     O_R   0.349000 0.500000 0.361910 -0.594261
O5    O     O_R   0.499990 0.680320 0.618770 -0.560793
O6    O     O_R   0.500000 0.680360 0.381190 -0.595491
O7    O     O_R   0.651000 0.500000 0.638090 -0.581867
O8    O     O_R   0.651010 0.500040 0.400510 -0.592490
N3    N     N_2   0.404017 0.114813 0.832338 -0.433391
H14   H     H_    0.332647 0.074625 0.801586 0.270029
C29   C     C_3   0.426448 0.124570 0.982774 -0.615744
H15   H     H_    0.358714 0.161965 0.029902 0.206580
H16   H     H_    0.493590 0.188185 0.009003 0.249833
H17   H     H_    0.443262 0.032596 0.028463 0.249026
N4    N     N_2   0.331566 0.397793 0.832680 -0.386051
H18   H     H_    0.347880 0.328196 0.765716 0.302636
C30   C     C_3   0.230974 0.389631 0.886035 -0.752063
H19   H     H_    0.228147 0.312255 0.960666 0.220140
H20   H     H_    0.170727 0.372468 0.797446 0.239587
H21   H     H_    0.213298 0.477287 0.938052 0.231560
C31   C     C_2   0.742855 0.660495 0.176681 0.445276
H22   H     H_    0.760184 0.721329 0.266369 0.066109
O9    O     O_2   0.809291 0.591317 0.142551 -0.558380
C32   C     C_2   0.189425 0.654842 0.663155 0.392590
H23   H     H_    0.171912 0.656152 0.771479 0.058825
O10   O     O_2   0.254558 0.727517 0.627033 -0.552604
C33   C     C_2   0.615518 0.123467 0.288521 0.338884
H24   H     H_    0.645276 0.216652 0.305860 0.099677
O11   O     O_2   0.639373 0.067995 0.185524 -0.579518

loop_
_geom_bond_atom_site_label_1
_geom_bond_atom_site_label_2
_ccdc_geom_bond_type
C31   O9    D    
Cu2   O6    S    
C16   C21   S    
C21   C31   S    
C10   H12   S    
C1    C8    S    
C19   C20   S    
C9    C33   S    
C12   O3    A    
C12   O4    A    
C7    C8    A    
C25   C28   A    
C26   C27   A    
Cu1   Cu2   S    
C5    C6    A    
C4    C24   A    
C1    O1    A    
C29   H15   S    
N4    C30   S    
C32   O10   D    
C30   H20   S    
C20   H5    S    
C28   C32   S    
C8    C9    A    
C23   C24   S    
C9    C10   A    
C16   N1    A    
C22   O5    A    
C7    C15   S    
C31   H22   S    
C13   C14   S    
Cu2   N1    S    
C2    C6    A    
C23   O8    A    
Cu1   O5    S    
Cu2   O8    S    
N3    C29   S    
Cu1   O3    S    
C15   N3    S    
Cu2   O2    S    
C33   O11   D    
C1    O2    A    
Cu1   N2    S    
N4    H18   S    
C30   H19   S    
C27   H11   S    
C17   C18   A    
C18   N4    S    
Cu2   O4    S    
C6    H10   S    
C17   H4    S    
C3    C4    A    
C18   N2    A    
N3    H14   S    
C30   H21   S    
C3    C26   A    
C14   H2    S    
C33   H24   S    
C19   N2    A    
C25   C27   A    
C12   C25   S    
C11   C22   S    
C29   H17   S    
Cu1   O1    S    
C2    C3    A    
C17   N1    A    
C11   C13   A    
C23   O7    A    
C5    C24   A    
C16   C19   A    
C29   H16   S    
C32   H23   S    
C26   H9    S    
C4    H1    S    
C10   C11   A    
C20   H6    S    
C7    C13   A    
C21   H7    S    
C20   C21   S    
C14   C15   S    
C22   O6    A    
C2    C28   A    
C5    H8    S    
C15   H3    S    
C14   H13   S    
Cu1   O7    S    
