data_mof_unit_27228.cif
_audit_creation_date              2012-12-11T16:29:24-0500
_audit_creation_method            fapswitch 2.2
_symmetry_space_group_name_H-M    P1
_symmetry_Int_Tables_number       1
_space_group_crystal_system       triclinic
_cell_length_a                    6.948286
_cell_length_b                    17.325269
_cell_length_c                    18.775003
_cell_angle_alpha                 106.206996
_cell_angle_beta                  90.753025
_cell_angle_gamma                 91.305683
_cell_volume                      2169.32160547

loop_
_atom_site_label
_atom_site_type_symbol
_atom_type_description
_atom_site_fract_x
_atom_site_fract_y
_atom_site_fract_z
_atom_type_partial_charge
O1    O     O_R   0.494360 0.415680 0.413760 -0.510424
O2    O     O_R   0.818810 0.432910 0.557230 -0.521379
O3    O     O_R   0.994290 0.584320 0.586240 -0.533216
C1    C     C_R   0.650114 0.415972 0.580609 0.700410
O4    O     O_R   0.823740 0.406440 0.412520 -0.550878
O5    O     O_R   0.999250 0.557660 0.440500 -0.530835
C2    C     C_R   0.652091 0.386063 0.383051 0.774453
O6    O     O_R   0.489400 0.442340 0.559500 -0.515415
O7    O     O_3   0.662500 0.549650 0.509350 -0.329713
V1    V     V_3+5 0.935340 0.490790 0.498270 1.599012
O8    O     O_R   0.329270 0.567090 0.442770 -0.459310
C3    C     C_R   0.160698 0.584040 0.419353 0.817209
O9    O     O_R   0.324340 0.593560 0.587480 -0.503432
C4    C     C_R   0.158145 0.619880 0.612905 0.828764
V2    V     V_3+5 0.435970 0.509210 0.501730 1.721915
O10   O     O_3   0.158940 0.450350 0.490650 -0.368028
C5    C     C_R   0.127911 0.591412 0.762102 0.325103
C6    C     C_R   0.096228 0.579624 0.831663 -0.106227
C7    C     C_R   0.071176 0.643900 0.893347 -0.177270
C8    C     C_R   0.078065 0.721533 0.886916 -0.148945
C9    C     C_R   0.106922 0.737204 0.817630 0.023468
C10   C     C_R   0.130232 0.671273 0.752692 -0.002411
C11   C     C_R   0.109990 0.817763 0.813619 -0.113792
C12   C     C_R   0.128484 0.834135 0.743683 -0.032405
C13   C     C_R   0.174068 0.769914 0.679591 -0.108606
C14   C     C_R   0.159355 0.687794 0.682783 -0.112031
C15   C     C_R   0.104060 0.912898 0.734669 0.295423
C16   C     C_R   0.131175 0.927195 0.666392 -0.270409
C17   C     C_R   0.198428 0.868413 0.606831 0.397433
C18   C     C_R   0.232225 0.791305 0.614253 0.230796
H1    H     H_    0.093900 0.519511 0.838422 0.161074
H2    H     H_    0.047994 0.633547 0.946896 0.140676
H3    H     H_    0.058392 0.769137 0.937399 0.086836
H4    H     H_    0.107260 0.986783 0.660748 0.211069
C19   C     C_1   0.112392 0.863631 0.132388 -0.129065
C20   C     C_1   0.119705 0.820809 0.175745 0.048172
C21   C     C_1   0.128596 0.770272 0.227363 0.048078
C22   C     C_1   0.136104 0.727764 0.270991 0.090988
C23   C     C_1   0.144934 0.677547 0.322871 0.153726
C24   C     C_1   0.152274 0.635398 0.366793 -0.004331
C25   C     C_1   0.641900 0.363983 0.632590 -0.124040
C26   C     C_1   0.637573 0.321330 0.676115 0.044838
C27   C     C_1   0.633803 0.270994 0.727929 0.032930
C28   C     C_1   0.630906 0.228592 0.771690 0.035371
C29   C     C_1   0.627119 0.178292 0.823532 0.060864
C30   C     C_1   0.622799 0.135674 0.867083 -0.071858
H5    H     H_    0.431301 0.144444 0.442660 0.167941
C31   C     C_R   0.690486 0.412171 0.234320 0.374782
C32   C     C_R   0.792070 0.425120 0.175337 -0.217325
C33   C     C_R   0.854868 0.361146 0.120102 -0.199325
C34   C     C_R   0.807737 0.282492 0.119719 0.337830
C35   C     C_R   0.707600 0.265767 0.180647 -0.052506
C36   C     C_R   0.674622 0.332977 0.243461 -0.093442
C37   C     C_R   0.639399 0.187000 0.182150 -0.137939
C38   C     C_R   0.585978 0.173571 0.251374 -0.001349
C39   C     C_R   0.581233 0.240774 0.316203 0.032666
C40   C     C_R   0.630738 0.319441 0.312781 -0.121272
C41   C     C_R   0.544759 0.094995 0.260381 0.318988
C42   C     C_R   0.485782 0.086406 0.328645 -0.082357
C43   C     C_R   0.474869 0.152387 0.389934 -0.159277
C44   C     C_R   0.525330 0.228274 0.384490 -0.163784
H6    H     H_    0.814416 0.485236 0.169797 0.188720
H7    H     H_    0.934098 0.373309 0.074884 0.184570
H8    H     H_    0.453294 0.027251 0.335009 0.187973
H9    H     H_    0.518111 0.277091 0.434840 0.098185
O11   O     O_R   0.775690 0.057750 0.940570 -0.474007
O12   O     O_R   0.441200 0.093570 0.087490 -0.527691
O13   O     O_R   0.265840 0.942320 0.059480 -0.511930
C45   C     C_R   0.614955 0.120275 0.112174 0.841133
O14   O     O_R   0.446270 0.067110 0.942790 -0.529838
O15   O     O_R   0.270950 0.915660 0.913750 -0.541116
C46   C     C_R   0.614760 0.083699 0.919086 0.778500
O16   O     O_R   0.770580 0.084400 0.086300 -0.495226
O17   O     O_3   0.602640 0.950400 0.990690 -0.368814
V3    V     V_3+5 0.329740 0.009200 0.001730 1.614003
O18   O     O_R   0.940900 0.906360 0.912450 -0.532957
C47   C     C_R   0.107239 0.884416 0.883972 0.764712
O19   O     O_R   0.935830 0.932820 0.057160 -0.519369
C48   C     C_R   0.104216 0.915836 0.080550 0.712422
V4    V     V_3+5 0.829130 0.990680 0.998180 1.638427
O20   O     O_3   0.106100 0.049590 0.009310 -0.316314
S1    S     S_3+6 0.246924 0.894821 0.523991 0.085105
O21   O     O_2   0.461040 0.902186 0.516240 -0.260178
O22   O     O_2   0.166650 0.830598 0.458342 -0.313688
O23   O     O_3   0.148921 0.983109 0.525323 -0.490478
H10   H     H_    0.008184 0.971799 0.520959 0.353812
S2    S     S_3+6 0.540179 0.491312 0.279231 -0.036819
O24   O     O_2   0.637794 0.541082 0.349348 -0.326432
O25   O     O_2   0.502070 0.544917 0.230199 -0.349173
O26   O     O_3   0.328400 0.452758 0.297642 -0.529601
H11   H     H_    0.271992 0.423619 0.248496 0.325265
Cl1   Cl    Cl    0.908123 0.212809 0.044313 -0.669049
Cl2   Cl    Cl    0.583902 0.002117 0.194163 -0.670617
Cl3   Cl    Cl    0.174791 0.501137 0.693510 -0.690762
Cl4   Cl    Cl    0.026592 0.998420 0.802622 -0.661922
Cl5   Cl    Cl    0.391674 0.733519 0.549640 -0.565065

loop_
_geom_bond_atom_site_label_1
_geom_bond_atom_site_label_2
_ccdc_geom_bond_type
S2    O24   D    
C25   C26   T    
C15   Cl4   S    
C7    C8    A    
C12   C15   A    
C1    O6    A    
O23   H10   S    
C35   C36   A    
O13   V3    S    
C42   H8    S    
C21   C22   T    
C16   C17   A    
C41   Cl2   S    
O5    C3    A    
C22   C23   S    
O19   V4    S    
C1    C25   S    
V2    O10   S    
C39   C40   A    
C6    C7    A    
C18   Cl5   S    
H5    C43   S    
O8    V2    S    
O11   C46   A    
C19   C20   T    
C11   C12   A    
C45   O16   A    
O1    V2    S    
O7    V1    S    
C30   C46   S    
O13   C48   A    
C16   H4    S    
C42   C43   A    
O17   V4    S    
O9    C4    A    
C33   H7    S    
C7    H2    S    
C35   C37   A    
C5    C6    A    
O18   C47   A    
C9    C11   A    
C31   C36   A    
O17   V3    S    
C34   C35   A    
C12   C13   A    
C23   C24   T    
O4    C2    A    
C36   C40   A    
O19   C48   A    
V3    O20   S    
C13   C14   A    
C29   C30   T    
C4    C14   S    
C43   C44   A    
O12   C45   A    
C3    C24   S    
O2    C1    A    
C27   C28   T    
C17   C18   A    
C34   Cl1   S    
C38   C39   A    
C33   C34   A    
C31   S2    S    
C11   C47   S    
O3    C4    A    
C8    H3    S    
C31   C32   A    
S1    O21   D    
O6    V2    S    
S1    O22   D    
S2    O25   D    
C38   C41   A    
O12   V3    S    
C26   C27   S    
O2    V1    S    
O15   C47   A    
C28   C29   S    
C13   C18   A    
C37   C38   A    
C20   C21   S    
C32   H6    S    
O1    C2    A    
O18   V4    S    
V4    O20   S    
O5    V1    S    
O8    C3    A    
C5    Cl3   S    
S1    O23   S    
O11   V4    S    
C5    C10   A    
O9    V2    S    
C41   C42   A    
O4    V1    S    
O3    V1    S    
V1    O10   S    
O15   V3    S    
O26   H11   S    
C37   C45   S    
C19   C48   S    
O16   V4    S    
O7    V2    S    
C44   H9    S    
C17   S1    S    
C8    C9    A    
C32   C33   A    
C10   C14   A    
S2    O26   S    
O14   V3    S    
C39   C44   A    
O14   C46   A    
C6    H1    S    
C9    C10   A    
C2    C40   S    
C15   C16   A    
