data_mof_unit_46272.cif
_audit_creation_date              2013-03-05T15:49:44-0500
_audit_creation_method            fapswitch 2.2
_symmetry_space_group_name_H-M    P1
_symmetry_Int_Tables_number       1
_space_group_crystal_system       triclinic
_cell_length_a                    12.036112
_cell_length_b                    12.823538
_cell_length_c                    13.084999
_cell_angle_alpha                 86.688794
_cell_angle_beta                  113.702554
_cell_angle_gamma                 94.389055
_cell_volume                      1843.01690124

loop_
_atom_site_label
_atom_site_type_symbol
_atom_site_description
_atom_site_fract_x
_atom_site_fract_y
_atom_site_fract_z
_atom_type_partial_charge
O1    O     O_R   0.579910 0.341070 0.505280 -0.627830
O2    O     O_R   0.388440 0.353740 0.492580 -0.618021
C1    C     C_R   0.476942 0.299502 0.499442 0.893916
O3    O     O_R   0.643280 0.490550 0.663120 -0.635369
O4    O     O_R   0.451810 0.503220 0.650420 -0.549868
C2    C     C_R   0.567592 0.498764 0.708750 0.862357
Zn1   Zn    Zn3+2 0.627850 0.491540 0.508480 0.947308
Zn2   Zn    Zn3+2 0.372150 0.508460 0.491520 0.968903
O5    O     O_R   0.611560 0.646260 0.507420 -0.565328
O6    O     O_R   0.420090 0.658930 0.494720 -0.626039
O7    O     O_R   0.548190 0.496780 0.349580 -0.610206
O8    O     O_R   0.356720 0.509450 0.336880 -0.626651
C3    C     C_R   0.523496 0.700548 0.501912 0.889179
C4    C     C_R   0.433138 0.504647 0.291387 0.869434
C5    C     C_R   0.308944 0.641153 0.014222 -0.193890
H1    H     H_    0.259539 0.633322 0.154817 0.152849
H2    H     H_    0.329355 0.715325 0.828651 0.153811
H3    H     H_    0.246204 0.701057 0.971088 0.142184
C6    C     C_R   0.394620 0.523671 0.172592 -0.079967
C7    C     C_R   0.714270 0.440439 0.892313 -0.282536
C8    C     C_R   0.744109 0.419551 0.004771 -0.242393
C9    C     C_R   0.666331 0.444744 0.055050 0.472698
C10   C     C_R   0.563110 0.504895 0.991559 -0.025039
C11   C     C_R   0.547614 0.541056 0.882758 0.038435
C12   C     C_R   0.474457 0.531816 0.030200 0.099136
C13   C     C_R   0.390737 0.609224 0.971835 0.164120
C14   C     C_R   0.390587 0.654707 0.872895 -0.223794
C15   C     C_R   0.467006 0.620307 0.828134 -0.143215
C16   C     C_R   0.463762 0.482648 0.123544 -0.209262
C17   C     C_R   0.313631 0.600719 0.116728 -0.195295
C18   C     C_R   0.612996 0.496997 0.829998 -0.116184
H4    H     H_    0.511478 0.414423 0.163180 0.188129
H5    H     H_    0.769385 0.410577 0.853630 0.173801
H6    H     H_    0.827027 0.380844 0.052090 0.153594
H7    H     H_    0.464015 0.657847 0.750885 0.151666
C19   C     C_R   0.540294 0.812082 0.509603 -0.185229
C20   C     C_R   0.461396 0.187921 0.499759 -0.115673
C21   C     C_R   0.334504 0.030410 0.435677 0.328459
C22   C     C_R   0.346631 0.138474 0.444806 -0.293197
C23   C     C_R   0.564510 0.131163 0.550777 -0.243309
C24   C     C_R   0.555618 0.024475 0.540180 0.075442
C25   C     C_R   0.440732 0.973620 0.479474 0.048042
C26   C     C_R   0.436070 0.868269 0.460847 -0.280228
C27   C     C_R   0.653362 0.861280 0.574572 0.476878
C28   C     C_R   0.660959 0.968707 0.586858 -0.287034
H8    H     H_    0.351173 0.828570 0.408293 0.215525
H9    H     H_    0.748537 0.007952 0.633841 0.156442
H10   H     H_    0.267010 0.183967 0.407483 0.183626
H11   H     H_    0.652668 0.170665 0.595769 0.158870
N1    N     N_R   0.798200 0.480260 0.519790 -0.106394
N2    N     N_R   0.201820 0.519740 0.480210 -0.137672
C29   C     C_R   0.999854 0.578606 0.377453 -0.254935
C30   C     C_R   0.121970 0.574468 0.392325 -0.057042
C31   C     C_R   0.163152 0.466634 0.555827 0.553761
C32   C     C_R   0.041574 0.473075 0.546701 -0.033046
C33   C     C_R   0.958601 0.527672 0.454749 0.017766
C34   C     C_R   0.836431 0.530458 0.443177 0.056452
C35   C     C_R   0.878725 0.430352 0.611044 -0.022361
C36   C     C_R   0.000822 0.426914 0.626876 -0.297045
H12   H     H_    0.772042 0.572934 0.373228 0.155308
H13   H     H_    0.848608 0.394442 0.673083 0.128689
H14   H     H_    0.938220 0.621619 0.306027 0.176865
H15   H     H_    0.062543 0.389062 0.702230 0.177607
H16   H     H_    0.152612 0.614064 0.332232 0.156822
O9    O     O_3   0.756655 0.805426 0.623478 -0.587261
C37   C     C_3   0.770712 0.774651 0.733209 0.114484
H17   H     H_    0.686556 0.732784 0.734559 0.107724
H18   H     H_    0.794252 0.844096 0.786869 0.136259
C38   C     C_3   0.873229 0.700340 0.782164 -0.763263
H19   H     H_    0.959856 0.740372 0.785851 0.247695
H20   H     H_    0.883910 0.674330 0.867888 0.200884
H21   H     H_    0.852331 0.630582 0.729642 0.269266
N3    N     N_R   0.215056 0.980378 0.382665 0.190982
O10   O     O_R   0.133158 0.025610 0.296735 -0.407326
O11   O     O_R   0.181504 0.900408 0.431624 -0.405089
O12   O     O_3   0.244962 0.410326 0.643481 -0.592922
C39   C     C_3   0.223689 0.302432 0.620551 0.109584
H22   H     H_    0.214734 0.286723 0.534772 0.150455
H23   H     H_    0.139208 0.270306 0.628651 0.123599
C40   C     C_3   0.329170 0.243547 0.704540 -0.771683
H24   H     H_    0.335012 0.253472 0.790424 0.241915
H25   H     H_    0.315219 0.158869 0.686116 0.211456
H26   H     H_    0.416021 0.274100 0.700206 0.252361
O13   O     O_3   0.701832 0.424223 0.168907 -0.631202
C41   C     C_3   0.710170 0.314885 0.192020 0.041734
H27   H     H_    0.790769 0.286351 0.183493 0.160674
H28   H     H_    0.626610 0.270510 0.135612 0.135492
C42   C     C_3   0.724894 0.290461 0.311839 -0.775007
H29   H     H_    0.649926 0.321850 0.327322 0.271357
H30   H     H_    0.723245 0.204421 0.327403 0.212379
H31   H     H_    0.813287 0.325073 0.370627 0.251434

loop_
_geom_bond_atom_site_label_1
_geom_bond_atom_site_label_2
_geom_bond_distance
_ccdc_geom_bond_type
C5    H3    1.083941 S    
C37   H18   1.113545 S    
C32   C33   1.406713 A    
C32   C36   1.410371 A    
N3    O10   1.301333 A    
C39   H22   1.112444 S    
C29   C30   1.407756 A    
Zn1   O7    1.907319 S    
C13   C14   1.388268 A    
C21   C25   1.413766 A    
C20   C23   1.389870 A    
C40   H26   1.109903 S    
O4    C2    1.296085 A    
O7    C4    1.293197 A    
C41   C42   1.521835 S    
C37   C38   1.521489 S    
H1    C17   1.083364 S    
C23   H11   1.085836 S    
C33   C34   1.419452 A    
C24   C25   1.416713 A    
C28   H9    1.084383 S    
C38   H20   1.110586 S    
O5    C3    1.288048 A    
C15   H7    1.082568 S    
C10   C11   1.414254 A    
C42   H29   1.108708 S    
C35   H13   1.081799 S    
C39   H23   1.110121 S    
C2    C18   1.454971 S    
C8    C9    1.406980 A    
N3    O11   1.301485 A    
C27   O9    1.382709 S    
O3    Zn1   1.955589 S    
C41   H28   1.115442 S    
C12   C16   1.389588 A    
N1    C35   1.360503 A    
O12   C39   1.414873 S    
C3    C19   1.432707 S    
C40   H25   1.111406 S    
C5    C13   1.404050 A    
C8    H6    1.081332 S    
C35   C36   1.403064 A    
C41   H27   1.110635 S    
O1    C1    1.285850 A    
H2    C14   1.084088 S    
C38   H21   1.110578 S    
C42   H31   1.108977 S    
Zn2   O8    1.955589 S    
O13   C41   1.419706 S    
Zn2   N2    2.011162 S    
C31   O12   1.382616 S    
C7    H5    1.083562 S    
O3    C2    1.287144 A    
C23   C24   1.374763 A    
C42   H30   1.110482 S    
C19   C27   1.404698 A    
C25   C26   1.379530 A    
C6    C16   1.384411 A    
C27   C28   1.387971 A    
C5    C17   1.390827 A    
C39   C40   1.522808 S    
Zn1   O5    2.007310 S    
C31   C32   1.428026 A    
O1    Zn1   1.969109 S    
N1    C34   1.371892 A    
C4    C6    1.443887 S    
O2    Zn2   2.007311 S    
C11   C15   1.412267 A    
Zn1   N1    2.011401 S    
O8    C4    1.287338 A    
C40   H24   1.111605 S    
C34   H12   1.082481 S    
O6    C3    1.285567 A    
O4    Zn2   1.907319 S    
C16   H4    1.072043 S    
C36   H15   1.081984 S    
N2    C31   1.379587 A    
O2    C1    1.286778 A    
C12   C13   1.425061 A    
C11   C18   1.401782 A    
C20   C22   1.395432 A    
C29   H14   1.083379 S    
C21   C22   1.389269 A    
C30   H16   1.081903 S    
C37   H17   1.115610 S    
C10   C12   1.422571 A    
C38   H19   1.110618 S    
C26   H8    1.082623 S    
C7    C8    1.382171 A    
C1    C20   1.428756 S    
Zn2   O6    1.969107 S    
O9    C37   1.412598 S    
C14   C15   1.381555 A    
C24   C28   1.399207 A    
C9    C10   1.439274 A    
C19   C26   1.393426 A    
N2    C30   1.363853 A    
C6    C17   1.397091 A    
C7    C18   1.394491 A    
C29   C33   1.404957 A    
C9    O13   1.389778 S    
C22   H10   1.083341 S    
C21   N3    1.438120 S    
