data_mof_unit_55433.cif
_audit_creation_date              2012-12-10T17:37:21-0500
_audit_creation_method            fapswitch 2.2
_symmetry_space_group_name_H-M    P1
_symmetry_Int_Tables_number       1
_space_group_crystal_system       triclinic
_cell_length_a                    11.980678
_cell_length_b                    12.913443
_cell_length_c                    16.79479
_cell_angle_alpha                 91.583965
_cell_angle_beta                  81.21308
_cell_angle_gamma                 92.932537
_cell_volume                      2563.97590953

loop_
_atom_site_label
_atom_site_type_symbol
_atom_type_description
_atom_site_fract_x
_atom_site_fract_y
_atom_site_fract_z
_atom_type_partial_charge
Br1   Br    Br    0.660220 0.685167 0.704065 -0.602538
Br2   Br    Br    0.338593 0.355157 0.260325 -0.578537
C1    C     C_R   0.521961 0.699882 0.497337 0.929741
C2    C     C_R   0.551815 0.130768 0.525542 0.418126
C3    C     C_R   0.462390 0.974867 0.474465 0.011101
C4    C     C_R   0.544359 0.023196 0.517743 -0.006266
C5    C     C_R   0.967895 0.419989 0.412506 -0.321285
C6    C     C_R   0.032404 0.581365 0.586564 -0.308793
C7    C     C_R   0.849836 0.426345 0.422097 -0.000151
C8    C     C_R   0.150513 0.575841 0.576692 0.043802
C9    C     C_R   0.851974 0.531828 0.539491 -0.039661
C10   C     C_R   0.148252 0.467447 0.460659 -0.037130
C11   C     C_R   0.970846 0.528632 0.531930 0.081462
C12   C     C_R   0.478639 0.299559 0.501730 0.938394
C13   C     C_R   0.029428 0.471391 0.467758 0.085292
C14   C     C_R   0.484526 0.505194 0.653821 0.947400
C15   C     C_R   0.515515 0.497766 0.346216 0.930099
C16   C     C_R   0.472897 0.529426 0.739450 -0.169314
C17   C     C_R   0.527225 0.508539 0.260007 -0.168097
C18   C     C_R   0.540559 0.609176 0.769338 0.256204
C19   C     C_R   0.448595 0.459617 0.215799 0.256788
C20   C     C_R   0.519231 0.638053 0.849997 -0.239633
C21   C     C_R   0.451146 0.485626 0.136141 -0.242979
C22   C     C_R   0.432426 0.587270 0.901869 -0.015528
C23   C     C_R   0.468864 0.188240 0.498158 -0.155275
C24   C     C_R   0.531770 0.559608 0.100121 -0.015229
C25   C     C_R   0.358017 0.514344 0.871014 0.559308
C26   C     C_R   0.617469 0.600529 0.141904 0.543203
C27   C     C_R   0.380461 0.484262 0.790124 -0.312096
C28   C     C_R   0.612708 0.576889 0.222678 -0.347049
C29   C     C_2   0.432202 0.595580 0.988661 -0.178671
C30   C     C_2   0.529919 0.589141 0.017294 -0.143455
C31   C     C_3   0.176807 0.524294 0.936552 0.075821
C32   C     C_3   0.099012 0.503478 0.873346 -0.847860
C33   C     C_3   0.794292 0.620344 0.068568 0.088362
C34   C     C_R   0.535387 0.810233 0.497263 -0.169037
C35   C     C_3   0.884269 0.619060 0.123656 -0.844194
C36   C     C_3   0.739717 0.183239 0.515031 0.110114
C37   C     C_3   0.829255 0.230103 0.562262 -0.765443
C38   C     C_3   0.436915 0.800920 0.338265 0.086982
C39   C     C_3   0.353618 0.743734 0.290738 -0.752691
C40   C     C_R   0.617895 0.963305 0.552227 -0.181148
C41   C     C_R   0.382200 0.033794 0.446321 -0.164792
C42   C     C_R   0.615297 0.857700 0.540117 -0.247979
C43   C     C_R   0.384057 0.139878 0.459714 -0.270478
C44   C     C_R   0.461183 0.868023 0.461379 0.413091
H1    H     H_    0.197627 0.616000 0.619212 0.136696
H2    H     H_    0.573524 0.697626 0.873076 0.193501
H3    H     H_    0.322148 0.184751 0.436960 0.200536
H4    H     H_    0.673080 0.812738 0.566834 0.223652
H5    H     H_    0.676984 0.997223 0.589444 0.198875
H6    H     H_    0.317712 0.998264 0.414308 0.198156
H7    H     H_    0.194290 0.422328 0.412530 0.173052
H8    H     H_    0.806213 0.575867 0.588092 0.182864
H9    H     H_    0.198960 0.609093 0.940757 0.122849
H10   H     H_    0.128974 0.502544 0.996141 0.173595
H11   H     H_    0.077012 0.419135 0.868976 0.272460
H12   H     H_    0.802958 0.387790 0.378749 0.130701
H13   H     H_    0.020057 0.545486 0.890693 0.214659
H14   H     H_    0.141022 0.530925 0.813611 0.243918
H15   H     H_    0.830673 0.664233 0.013968 0.172683
H16   H     H_    0.774480 0.539714 0.047274 0.122084
H17   H     H_    0.854920 0.568436 0.175774 0.247811
H18   H     H_    0.963002 0.588373 0.089758 0.206899
H19   H     H_    0.903111 0.698871 0.145893 0.269154
H20   H     H_    0.737623 0.231149 0.461502 0.154952
H21   H     H_    0.766581 0.105431 0.492297 0.119276
H22   H     H_    0.805724 0.308390 0.585913 0.269724
H23   H     H_    0.010581 0.375790 0.362160 0.170756
H24   H     H_    0.836755 0.179940 0.613655 0.248653
H25   H     H_    0.912321 0.236614 0.522617 0.204757
H26   H     H_    0.511032 0.751901 0.337115 0.123324
H27   H     H_    0.465331 0.875433 0.307961 0.146143
H28   H     H_    0.279972 0.791815 0.288448 0.247685
H29   H     H_    0.395483 0.727499 0.228282 0.209782
H30   H     H_    0.323482 0.669079 0.319712 0.273367
H31   H     H_    0.989700 0.626211 0.636529 0.168844
H32   H     H_    0.672939 0.615261 0.257065 0.182316
H33   H     H_    0.325675 0.425249 0.766834 0.183930
H34   H     H_    0.610367 0.595711 0.977598 0.161739
H35   H     H_    0.352178 0.587430 0.028733 0.165398
H36   H     H_    0.390153 0.447543 0.102313 0.204089
N1    N     N_R   0.206400 0.519440 0.514690 -0.103674
N2    N     N_R   0.793600 0.480560 0.485310 -0.103092
O1    O     O_R   0.421320 0.658850 0.503920 -0.573089
O2    O     O_3   0.698616 0.672275 0.106852 -0.617723
O3    O     O_3   0.633580 0.179500 0.565954 -0.600249
O4    O     O_3   0.383156 0.819496 0.417904 -0.604073
O5    O     O_R   0.578680 0.341150 0.496080 -0.602394
O6    O     O_R   0.609840 0.646370 0.494500 -0.622370
O7    O     O_R   0.390160 0.353630 0.505500 -0.622342
O8    O     O_R   0.394600 0.506990 0.621070 -0.639439
O9    O     O_R   0.605400 0.493010 0.378930 -0.639857
O10   O     O_R   0.583120 0.494520 0.611640 -0.579873
O11   O     O_R   0.416880 0.505480 0.388360 -0.596481
O12   O     O_3   0.272114 0.462244 0.921044 -0.614503
Zn1   Zn    Zn3+2 0.374120 0.508330 0.506290 0.981112
Zn2   Zn    Zn3+2 0.625880 0.491670 0.493710 0.969184

loop_
_geom_bond_atom_site_label_1
_geom_bond_atom_site_label_2
_ccdc_geom_bond_type
C31   H9    S    
C20   H2    S    
C24   C30   S    
C6    C11   A    
C21   H36   S    
C1    O1    A    
C37   H22   S    
C22   C25   A    
C2    C23   A    
C2    O3    S    
C1    O6    A    
C17   C19   A    
C36   C37   S    
C33   O2    S    
C41   H6    S    
C30   H34   S    
O10   Zn2   S    
C8    N1    A    
C38   H27   S    
C7    H12   S    
C21   C24   A    
C39   H28   S    
C4    C40   A    
C36   H20   S    
C35   H19   S    
C32   H11   S    
C34   C44   A    
C15   O11   A    
C10   H7    S    
C40   H5    S    
C31   H10   S    
C5    C13   A    
C32   H13   S    
C3    C41   A    
C32   H14   S    
C25   O12   S    
C40   C42   A    
C35   H17   S    
O8    Zn1   S    
C44   O4    S    
C2    C4    A    
C10   N1    A    
C12   O5    A    
C39   H29   S    
C29   C30   D    
C27   H33   S    
C10   C13   A    
C43   H3    S    
Br2   C19   S    
C31   C32   S    
C33   H15   S    
C16   C27   A    
O7    Zn1   S    
C41   C43   A    
C9    H8    S    
C6    C8    A    
C38   C39   S    
C18   C20   A    
C14   O8    A    
C19   C21   A    
C26   O2    S    
C6    H31   S    
C20   C22   A    
C34   C42   A    
C15   O9    A    
C31   O12   S    
C23   C43   A    
C35   H18   S    
C42   H4    S    
C5    C7    A    
Br1   C18   S    
C38   H26   S    
C33   C35   S    
C14   O10   A    
C5    H23   S    
O11   Zn1   S    
C9    N2    A    
C3    C44   A    
C36   O3    S    
C24   C26   A    
C29   H35   S    
O5    Zn2   S    
N2    Zn2   S    
C38   O4    S    
C11   C13   A    
C22   C29   S    
C39   H30   S    
C9    C11   A    
C3    C4    A    
C25   C27   A    
C1    C34   S    
C26   C28   A    
C15   C17   S    
C37   H24   S    
C33   H16   S    
C16   C18   A    
C12   C23   S    
C12   O7    A    
O1    Zn1   S    
C7    N2    A    
C28   H32   S    
C36   H21   S    
C14   C16   S    
N1    Zn1   S    
C8    H1    S    
C37   H25   S    
C17   C28   A    
O9    Zn2   S    
O6    Zn2   S    
