data_mof_unit_51319.cif
_audit_creation_date              2013-03-05T15:49:17-0500
_audit_creation_method            fapswitch 2.2
_symmetry_space_group_name_H-M    P1
_symmetry_Int_Tables_number       1
_space_group_crystal_system       triclinic
_cell_length_a                    20.780675
_cell_length_b                    22.763526
_cell_length_c                    6.937446
_cell_angle_alpha                 89.992028
_cell_angle_beta                  87.161031
_cell_angle_gamma                 90.001702
_cell_volume                      3277.67169222

loop_
_atom_site_label
_atom_site_type_symbol
_atom_site_description
_atom_site_fract_x
_atom_site_fract_y
_atom_site_fract_z
_atom_type_partial_charge
O1    O     O_R   0.387100 0.552640 0.378490 -0.597002
O2    O     O_R   0.612900 0.052640 0.621510 -0.597197
O3    O     O_R   0.249610 0.559600 0.072250 -0.547220
O4    O     O_R   0.750390 0.059600 0.927750 -0.546827
O5    O     O_R   0.249120 0.447360 0.902040 -0.577133
O6    O     O_R   0.750880 0.947360 0.097960 -0.577156
C1    C     C_R   0.225058 0.571489 0.242692 1.147514
C2    C     C_R   0.774955 0.071476 0.757312 1.147309
O7    O     O_R   0.386610 0.559560 0.048860 -0.575239
O8    O     O_R   0.613390 0.059560 0.951140 -0.574737
O9    O     O_R   0.387100 0.447320 0.878470 -0.606277
O10   O     O_R   0.612900 0.947320 0.121530 -0.606217
C3    C     C_R   0.407011 0.575567 0.214693 0.989560
C4    C     C_R   0.593004 0.075575 0.785254 0.989286
O11   O     O_R   0.249120 0.552680 0.402050 -0.562546
O12   O     O_R   0.750880 0.052680 0.597950 -0.562843
O13   O     O_3   0.318110 0.463180 0.223790 -0.293245
O14   O     O_3   0.681890 0.963180 0.776210 -0.293281
V1    V     V_3+5 0.318110 0.506830 0.948930 1.288399
V2    V     V_3+5 0.681890 0.006830 0.051070 1.288620
O15   O     O_R   0.386610 0.440400 0.548840 -0.604365
O16   O     O_R   0.613390 0.940400 0.451160 -0.604452
C5    C     C_R   0.407372 0.425276 0.714134 0.931013
C6    C     C_R   0.592608 0.925285 0.285918 0.931048
O17   O     O_R   0.249610 0.440440 0.572240 -0.606677
O18   O     O_R   0.750390 0.940440 0.427760 -0.606627
C7    C     C_R   0.226305 0.427226 0.743687 1.011549
C8    C     C_R   0.773703 0.927235 0.256323 1.011714
V3    V     V_3+5 0.318110 0.493170 0.448930 1.248165
V4    V     V_3+5 0.681890 0.993170 0.551070 1.247978
O19   O     O_3   0.318110 0.536820 0.723940 -0.225872
O20   O     O_3   0.681890 0.036820 0.276060 -0.225933
C9    C     C_R   0.170406 0.386329 0.752928 -0.288782
C10   C     C_R   0.829625 0.886365 0.247077 -0.288816
C11   C     C_R   0.161314 0.349702 0.592678 -0.245255
C12   C     C_R   0.838756 0.849742 0.407342 -0.245197
C13   C     C_R   0.105293 0.316001 0.577457 0.382492
C14   C     C_R   0.894791 0.816057 0.422498 0.382491
C15   C     C_R   0.057924 0.316864 0.730803 -0.155743
C16   C     C_R   0.942138 0.816938 0.269090 -0.155699
C17   C     C_R   0.067507 0.352078 0.892902 -0.070725
C18   C     C_R   0.932521 0.852153 0.106992 -0.070771
C19   C     C_R   0.122750 0.386725 0.905567 0.348904
C20   C     C_R   0.877263 0.886781 0.094380 0.348837
C21   C     C_R   0.900432 0.187541 0.874769 -0.170467
C22   C     C_R   0.099707 0.687654 0.125190 -0.170380
C23   C     C_R   0.846218 0.151323 0.895628 0.387611
C24   C     C_R   0.153911 0.651424 0.104431 0.387461
C25   C     C_R   0.875324 0.107635 0.583687 -0.152063
C26   C     C_R   0.124727 0.607707 0.416318 -0.152160
C27   C     C_R   0.929379 0.144338 0.564254 0.395138
C28   C     C_R   0.070688 0.644426 0.435674 0.395027
C29   C     C_R   0.941446 0.185565 0.708959 0.031653
C30   C     C_R   0.058654 0.685662 0.290929 0.031651
C31   C     C_2   0.997636 0.282161 0.727157 0.377155
C32   C     C_2   0.002439 0.782250 0.272671 0.377161
C33   C     C_2   0.999424 0.223522 0.697060 -0.132354
C34   C     C_2   0.000667 0.723608 0.302743 -0.132313
C35   C     C_R   0.832158 0.111156 0.745933 -0.322654
C36   C     C_R   0.167906 0.611218 0.254097 -0.323118
H1    H     H_    0.196943 0.349247 0.473276 0.197882
H2    H     H_    0.803146 0.849274 0.526793 0.197894
H3    H     H_    0.867833 0.075222 0.472992 0.200556
H4    H     H_    0.132197 0.575293 0.527060 0.200501
H5    H     H_    0.045585 0.202227 0.666167 0.164274
H6    H     H_    0.954510 0.702301 0.333641 0.164294
H7    H     H_    0.031115 0.353240 0.010150 0.214629
H8    H     H_    0.968896 0.853330 0.989699 0.214631
H9    H     H_    0.911395 0.216815 0.991928 0.208896
H10   H     H_    0.088788 0.716949 0.008018 0.208853
C37   C     C_R   0.572912 0.364087 0.620096 0.381165
C38   C     C_R   0.427434 0.863786 0.384594 0.380952
H11   H     H_    0.528926 0.449008 0.607970 0.147337
H12   H     H_    0.471387 0.948717 0.396661 0.147346
H13   H     H_    0.663654 0.281436 0.606288 0.229982
H14   H     H_    0.336800 0.781025 0.400316 0.229994
C39   C     C_R   0.461125 0.383414 0.709307 -0.137125
C40   C     C_R   0.538852 0.883407 0.291101 -0.137406
C41   C     C_R   0.478589 0.098474 0.837015 -0.157268
C42   C     C_R   0.521289 0.598629 0.160081 -0.156886
C43   C     C_R   0.425677 0.135654 0.846213 -0.045869
C44   C     C_R   0.574141 0.635877 0.149613 -0.046040
C45   C     C_R   0.432846 0.195327 0.808141 -0.143619
C46   C     C_R   0.567032 0.695486 0.188802 -0.143685
C47   C     C_R   0.493961 0.220068 0.759482 0.093657
C48   C     C_R   0.506041 0.720087 0.239939 0.093684
C49   C     C_R   0.548850 0.181481 0.746522 -0.063966
C50   C     C_R   0.451232 0.681418 0.254331 -0.063681
C51   C     C_R   0.501991 0.282021 0.723972 0.069607
C52   C     C_R   0.498052 0.781983 0.276503 0.069608
C53   C     C_R   0.563739 0.303706 0.661459 -0.033743
C54   C     C_R   0.436513 0.803490 0.341812 -0.033310
C55   C     C_R   0.615849 0.265297 0.645717 -0.171417
C56   C     C_R   0.384492 0.764998 0.358891 -0.171832
C57   C     C_R   0.609798 0.206226 0.693900 0.297227
C58   C     C_R   0.390423 0.706021 0.309402 0.297035
C59   C     C_R   0.451016 0.323555 0.749335 -0.217478
C60   C     C_R   0.548868 0.823626 0.249617 -0.217630
C61   C     C_R   0.521637 0.403001 0.643106 -0.232583
C62   C     C_R   0.478576 0.902795 0.360194 -0.231820
C63   C     C_R   0.540238 0.119807 0.786861 -0.169493
C64   C     C_R   0.459773 0.619815 0.212757 -0.169926
H15   H     H_    0.402963 0.311078 0.798494 0.109446
H16   H     H_    0.596747 0.811277 0.198343 0.109720
H17   H     H_    0.471274 0.052237 0.868605 0.123138
H18   H     H_    0.528544 0.552457 0.127385 0.123003
H19   H     H_    0.389161 0.220806 0.815948 0.119877
H20   H     H_    0.610672 0.721027 0.179856 0.119866
H21   H     H_    0.378312 0.117969 0.883471 0.147042
H22   H     H_    0.621407 0.618300 0.110385 0.146952
Br1   Br    Br    0.984845 0.137229 0.336112 -0.418947
Br2   Br    Br    0.015199 0.637323 0.663782 -0.418808
Br3   Br    Br    0.654184 0.396912 0.528812 -0.426204
Br4   Br    Br    0.346508 0.896343 0.480039 -0.426801
N1    N     N_R   0.668103 0.174394 0.709470 0.197061
O21   O     O_R   0.709481 0.173040 0.562495 -0.352201
O22   O     O_R   0.688234 0.166327 0.881687 -0.398674
N2    N     N_R   0.332063 0.674204 0.294774 0.197439
O23   O     O_R   0.291162 0.672422 0.442873 -0.349992
O24   O     O_R   0.311357 0.666574 0.123041 -0.400234
N3    N     N_R   0.806894 0.156551 0.070430 0.269570
O25   O     O_R   0.787281 0.208325 0.127037 -0.273886
O26   O     O_R   0.806742 0.114296 0.196363 -0.365896
N4    N     N_R   0.193321 0.656689 0.929803 0.269498
O27   O     O_R   0.213130 0.708454 0.873663 -0.273717
O28   O     O_R   0.193395 0.614532 0.803565 -0.365518
Br5   Br    Br    0.126798 0.436075 0.129447 -0.510456
Br6   Br    Br    0.873173 0.936132 0.870470 -0.510649
Br7   Br    Br    0.917679 0.324788 0.761143 -0.353579
Br8   Br    Br    0.082381 0.824905 0.238666 -0.353842
N5    N     N_R   0.095909 0.284319 0.401440 0.238762
O29   O     O_R   0.039466 0.282813 0.328334 -0.364455
O30   O     O_R   0.145279 0.263964 0.299705 -0.378771
N6    N     N_R   0.904209 0.784365 0.598499 0.238766
O31   O     O_R   0.960659 0.782883 0.671565 -0.364438
O32   O     O_R   0.854859 0.763970 0.700252 -0.378694

loop_
_geom_bond_atom_site_label_1
_geom_bond_atom_site_label_2
_geom_bond_distance
_ccdc_geom_bond_type
V4    O20   2.150982 S    
C50   C58   1.417292 A    
C25   H3    1.081831 S    
C42   H18   1.084220 S    
C26   H4    1.081862 S    
O4    C2    1.293005 A    
V1    O19   1.703532 S    
C25   C27   1.401050 A    
C17   H7    1.083190 S    
C7    C9    1.487522 S    
O9    V1    2.015018 S    
C44   H22   1.082805 S    
C58   N2    1.420499 S    
C11   C13   1.402515 A    
C46   C48   1.414717 A    
C45   H19   1.076389 S    
O3    C1    1.293078 A    
C2    C35   1.491901 S    
C38   C62   1.388788 A    
C38   C54   1.414977 A    
C48   C50   1.438984 A    
C23   N3    1.433333 S    
C28   Br2   1.918128 S    
O12   V4    2.010584 S    
N1    O21   1.301201 A    
C38   Br4   1.925016 S    
O13   V3    1.704660 S    
C37   Br3   1.924992 S    
O7    V1    2.011352 S    
C21   C23   1.397729 A    
O7    C3    1.297872 A    
N2    O23   1.301208 A    
H14   C56   1.081542 S    
C49   C63   1.440923 A    
C34   H6    1.086630 S    
C15   C31   1.482363 S    
C57   N1    1.420472 S    
N1    O22   1.298311 A    
C49   C57   1.417312 A    
C40   C60   1.404349 A    
C26   C28   1.401027 A    
O3    V1    2.020127 S    
O14   V4    1.704485 S    
C27   Br1   1.918105 S    
C51   C53   1.422333 A    
C10   C12   1.409901 A    
O5    C7    1.301306 A    
C24   C36   1.424751 A    
C16   C18   1.403265 A    
C21   C29   1.398033 A    
C2    O12   1.307878 A    
C16   C32   1.482388 S    
C18   H8    1.083191 S    
C17   C19   1.399141 A    
O10   V2    2.014868 S    
C18   C20   1.399138 A    
V2    O20   1.703707 S    
C12   H2    1.083374 S    
C54   C56   1.391987 A    
C43   C45   1.390362 A    
C28   C30   1.405929 A    
O11   V3    2.010582 S    
C47   C49   1.438966 A    
O17   V3    2.019367 S    
C22   C24   1.397757 A    
C23   C35   1.424844 A    
N3    O26   1.299226 A    
C21   H9    1.084018 S    
C9    C19   1.413598 A    
C10   C20   1.413632 A    
C42   C44   1.386549 A    
O8    C4    1.298057 A    
C19   Br5   1.922174 S    
C41   C43   1.386543 A    
C29   C33   1.481574 S    
C4    C63   1.488326 S    
H12   C62   1.084183 S    
C50   C64   1.440905 A    
C31   Br7   1.928549 S    
O15   V3    2.011779 S    
C13   N5    1.439820 S    
C42   C64   1.397889 A    
C27   C29   1.405899 A    
C40   C62   1.390713 A    
C53   C55   1.391902 A    
C52   C54   1.422340 A    
V3    O19   2.151227 S    
C22   C30   1.398114 A    
O1    V3    2.014227 S    
C11   H1    1.083371 S    
C5    C39   1.467409 S    
C56   C58   1.389740 A    
N3    O25   1.301392 A    
C59   H15   1.077202 S    
C6    C40   1.467623 S    
C45   C47   1.414733 A    
C43   H21   1.082798 S    
O18   V4    2.019559 S    
C44   C46   1.390346 A    
C31   C33   1.351323 D    
C48   C52   1.439818 A    
O16   C6    1.291575 A    
O1    C3    1.299260 A    
N5    O29   1.301176 A    
C1    C36   1.491794 S    
H13   C55   1.081531 S    
N4    O28   1.299232 A    
C30   C34   1.481609 S    
H11   C61   1.084169 S    
C20   Br6   1.922181 S    
C47   C51   1.439862 A    
O16   V4    2.011843 S    
C33   H5    1.086623 S    
N5    O30   1.301451 A    
C24   N4    1.433318 S    
N6    O32   1.301431 A    
N6    O31   1.301186 A    
O5    V1    2.009984 S    
O17   C7    1.297125 A    
O6    V2    2.009981 S    
O10   C6    1.296989 A    
O18   C8    1.297156 A    
C25   C35   1.406417 A    
O2    V4    2.014377 S    
C26   C36   1.406403 A    
O15   C5    1.291719 A    
C13   C15   1.413281 A    
C12   C14   1.402542 A    
C14   C16   1.413287 A    
C9    C11   1.409908 A    
O8    V2    2.011288 S    
C60   H16   1.077240 S    
C1    O11   1.307745 A    
O9    C5    1.296777 A    
O13   V1    2.150059 S    
C32   C34   1.351311 D    
C39   C61   1.390569 A    
O14   V2    2.150305 S    
C14   N6    1.439803 S    
C37   C61   1.388794 A    
O2    C4    1.299066 A    
N2    O24   1.298288 A    
C22   H10   1.084016 S    
C8    C10   1.487556 S    
O4    V2    2.019935 S    
O6    C8    1.301266 A    
C46   H20   1.076407 S    
C37   C53   1.415047 A    
C15   C17   1.403294 A    
C41   H17   1.084212 S    
C55   C57   1.389731 A    
C51   C59   1.424285 A    
C41   C63   1.397816 A    
C39   C59   1.404294 A    
C3    C64   1.488408 S    
C52   C60   1.424392 A    
C32   Br8   1.928526 S    
N4    O27   1.301382 A    
