data_mof_unit_65500.cif
_audit_creation_date              2012-12-10T17:59:50-0500
_audit_creation_method            fapswitch 2.2
_symmetry_space_group_name_H-M    P1
_symmetry_Int_Tables_number       1
_space_group_crystal_system       triclinic
_cell_length_a                    18.7005
_cell_length_b                    18.742172
_cell_length_c                    18.709363
_cell_angle_alpha                 109.266379
_cell_angle_beta                  109.774677
_cell_angle_gamma                 109.502526
_cell_volume                      5039.70980209

loop_
_atom_site_label
_atom_site_type_symbol
_atom_type_description
_atom_site_fract_x
_atom_site_fract_y
_atom_site_fract_z
_atom_type_partial_charge
C1    C     C_R   0.618527 0.620040 0.498350 0.862713
C2    C     C_3   0.180074 0.418017 0.198516 -0.211494
C3    C     C_3   0.221687 0.476082 0.298241 0.237957
C4    C     C_3   0.313374 0.499279 0.311346 -0.107886
C5    C     C_R   0.753785 0.758220 0.578352 -0.198843
C6    C     C_R   0.819476 0.823283 0.581444 0.095839
C7    C     C_R   0.813406 0.816084 0.502030 -0.099867
C8    C     C_R   0.741897 0.745752 0.421246 -0.194921
C9    C     C_R   0.676899 0.679970 0.418164 0.099307
C10   C     C_R   0.683847 0.686345 0.497620 -0.102732
C11   C     C_R   0.680976 0.503099 0.760800 0.065038
C12   C     C_R   0.379564 0.499709 0.379033 0.874499
C13   C     C_R   0.745473 0.503546 0.825678 0.010406
C14   C     C_R   0.816304 0.500724 0.816304 -0.163972
C15   C     C_R   0.824797 0.500608 0.744221 0.116263
C16   C     C_R   0.761477 0.503606 0.680716 0.131338
C17   C     C_R   0.689091 0.502673 0.688856 -0.149350
C18   C     C_R   0.240600 0.316586 0.493396 -0.233854
C19   C     C_R   0.175900 0.251386 0.490839 -0.235449
C20   C     C_R   0.187392 0.183664 0.497930 -0.072258
C21   C     C_R   0.263655 0.179551 0.506579 0.177373
C22   C     C_R   0.329392 0.246176 0.509422 0.030224
C23   C     C_R   0.380565 0.379918 0.500601 0.918305
C24   C     C_R   0.316276 0.313467 0.501938 -0.039857
C25   C     C_R   0.003436 0.619995 0.123519 0.921202
C26   C     C_R   0.124595 0.500844 0.125084 0.876221
C27   C     C_R   0.005063 0.379690 0.884598 0.935138
C28   C     C_R   0.882745 0.499967 0.882649 0.934030
C29   C     C_R   0.000405 0.879666 0.380329 0.943459
C30   C     C_R   0.879854 0.881396 0.501454 0.842963
C31   C     C_R   0.997777 0.118130 0.619219 0.910606
C32   C     C_R   0.120386 0.119291 0.499253 0.907907
C33   C     C_R   0.997726 0.754351 0.177403 0.033505
C34   C     C_R   0.620862 0.500208 0.621290 0.959526
C35   C     C_R   0.996172 0.818305 0.240467 0.013303
C36   C     C_R   0.997854 0.811412 0.313492 -0.143910
C37   C     C_R   0.998489 0.740331 0.323536 0.159804
C38   C     C_R   0.002133 0.677457 0.261467 0.099828
C39   C     C_R   0.002375 0.685583 0.189229 -0.150164
C40   C     C_R   0.082084 0.322988 0.818276 0.123380
C41   C     C_R   0.078444 0.258963 0.750902 0.048400
C42   C     C_R   0.997650 0.183053 0.685946 -0.133777
C43   C     C_R   0.919069 0.169486 0.686734 0.003731
C44   C     C_R   0.921564 0.237054 0.750203 0.183988
C45   C     C_3   0.324555 0.581035 0.302905 -0.272311
C46   C     C_R   0.003159 0.312951 0.816483 -0.186899
C47   C     C_3   0.232007 0.556301 0.289476 0.112965
C48   C     C_3   0.191618 0.500249 0.190802 -0.047163
C49   C     C_3   0.283604 0.524087 0.202093 -0.184898
C50   C     C_3   0.272894 0.443678 0.212343 0.119956
H1    H     H_    0.231235 0.368846 0.487447 0.161520
H2    H     H_    0.117390 0.254444 0.484714 0.165635
H3    H     H_    0.383695 0.647176 0.346813 0.153884
H4    H     H_    0.307795 0.543090 0.161009 0.152924
H5    H     H_    0.121183 0.351699 0.154773 0.148788
H6    H     H_    0.757921 0.763146 0.639190 0.161685
H7    H     H_    0.737258 0.741398 0.360419 0.161739
O1    O     O_R   0.592040 0.539900 0.448690 -0.627233
O2    O     O_R   0.054890 0.643310 0.094620 -0.607871
O3    O     O_R   0.044450 0.448260 0.096050 -0.632908
O4    O     O_R   0.147910 0.551670 0.096030 -0.631602
O5    O     O_R   0.952840 0.356630 0.912840 -0.597510
O6    O     O_R   0.056290 0.460040 0.912820 -0.640512
O7    O     O_R   0.859820 0.448260 0.911420 -0.638543
O8    O     O_R   0.963280 0.551670 0.911400 -0.595497
O9    O     O_R   0.052810 0.908290 0.461080 -0.599478
O10   O     O_R   0.948580 0.908330 0.356880 -0.610353
O11   O     O_R   0.960490 0.908280 0.552000 -0.628449
O12   O     O_R   0.591220 0.643330 0.551330 -0.625830
O13   O     O_R   0.856260 0.908310 0.447800 -0.630455
O14   O     O_R   0.051420 0.091500 0.642940 -0.614445
O15   O     O_R   0.947190 0.091540 0.538750 -0.627635
O16   O     O_R   0.143740 0.091510 0.552020 -0.594105
O17   O     O_R   0.039510 0.091550 0.447830 -0.629356
O18   O     O_R   0.408100 0.448290 0.356370 -0.642458
O19   O     O_R   0.407270 0.551710 0.459000 -0.633212
O20   O     O_R   0.408780 0.356670 0.448670 -0.607817
O21   O     O_R   0.407960 0.460100 0.551310 -0.631370
O22   O     O_R   0.592730 0.448290 0.541000 -0.600121
O23   O     O_R   0.591900 0.551710 0.643630 -0.614962
O24   O     O_R   0.951430 0.539890 0.094630 -0.627579
Zn1   Zn    Zn3+2 0.500550 0.430940 0.431470 0.947086
Zn2   Zn    Zn3+2 0.499450 0.569060 0.568530 0.946262
Zn3   Zn    Zn3+2 0.934780 0.430920 0.003740 0.934410
Zn4   Zn    Zn3+2 0.072940 0.569020 0.003710 0.938282
Zn5   Zn    Zn3+2 0.069600 0.999890 0.569480 0.962858
Zn6   Zn    Zn3+2 0.930400 0.999940 0.430340 0.954543
N1    N     N_3   0.207990 0.617758 0.330660 -0.490671
H8    H     H_    0.248282 0.647783 0.398431 0.189823
H9    H     H_    0.224145 0.666421 0.313833 0.177435
N2    N     N_3   0.603654 0.609512 0.334143 -0.466491
H10   H     H_    0.545559 0.603497 0.332970 0.178325
H11   H     H_    0.604281 0.551692 0.324970 0.207172
N3    N     N_3   0.605526 0.500750 0.766351 -0.432562
H12   H     H_    0.627013 0.555820 0.824355 0.207718
H13   H     H_    0.573662 0.445050 0.769332 0.189735
N4    N     N_3   0.738564 0.508813 0.901239 -0.469261
H14   H     H_    0.797288 0.560562 0.957955 0.190796
H15   H     H_    0.727099 0.450320 0.901231 0.213701
N5    N     N_2   0.895375 0.494216 0.734841 -0.306701
H16   H     H_    0.877075 0.442453 0.677069 0.204664
C51   C     C_3   0.970253 0.575200 0.762942 -0.713792
H17   H     H_    0.967787 0.581307 0.705222 0.211807
H18   H     H_    0.031395 0.574786 0.797189 0.240582
H19   H     H_    0.972623 0.632883 0.808835 0.243970
N6    N     N_2   0.770563 0.509303 0.609644 -0.283535
H20   H     H_    0.800718 0.477958 0.587071 0.224984
C52   C     C_3   0.802263 0.595888 0.619892 -0.750889
H21   H     H_    0.870784 0.640779 0.675366 0.230812
H22   H     H_    0.760464 0.622824 0.632376 0.226531
H23   H     H_    0.800478 0.592648 0.558927 0.236080
N7    N     N_2   0.272777 0.108151 0.510746 -0.294921
H24   H     H_    0.335832 0.123281 0.549751 0.217669
C53   C     C_3   0.226943 0.029670 0.426641 -0.774857
H25   H     H_    0.255995 0.041029 0.385831 0.223698
H26   H     H_    0.156310 0.008984 0.391576 0.241108
H27   H     H_    0.232320 0.976029 0.436538 0.240703
N8    N     N_3   0.409534 0.246980 0.520383 -0.453120
H28   H     H_    0.442908 0.252477 0.581149 0.166868
H29   H     H_    0.394228 0.188190 0.470775 0.194977
N9    N     N_3   0.992701 0.757346 0.100149 -0.443466
H30   H     H_    0.045901 0.815642 0.118886 0.187899
H31   H     H_    0.934380 0.755738 0.066017 0.174418
N10   N     N_3   0.994776 0.891406 0.232065 -0.444663
H32   H     H_    0.938222 0.868221 0.173988 0.191636
H33   H     H_    0.049843 0.924816 0.228864 0.174416
N11   N     N_2   0.998157 0.734050 0.397526 -0.279786
H34   H     H_    0.031229 0.704550 0.419465 0.246837
C54   C     C_3   0.913574 0.703760 0.392472 -0.748854
H35   H     H_    0.868764 0.633590 0.342407 0.228967
H36   H     H_    0.882839 0.741536 0.375432 0.225290
H37   H     H_    0.922271 0.712255 0.457008 0.238092
N12   N     N_2   0.008914 0.608320 0.273946 -0.307792
H38   H     H_    0.049818 0.590739 0.256863 0.242538
C55   C     C_3   0.927620 0.534712 0.247622 -0.733285
H39   H     H_    0.931900 0.528583 0.305723 0.228049
H40   H     H_    0.916991 0.473402 0.198302 0.238130
H41   H     H_    0.869851 0.542097 0.218196 0.239234
N13   N     N_2   0.166151 0.395192 0.888007 -0.317663
H42   H     H_    0.176013 0.456147 0.899087 0.250793
C56   C     C_3   0.200597 0.389304 0.966353 -0.755177
H43   H     H_    0.161264 0.394679 0.998824 0.234664
H44   H     H_    0.269633 0.443099 0.012514 0.232264
H45   H     H_    0.199698 0.326264 0.950010 0.246147
N14   N     N_3   0.156994 0.270933 0.747357 -0.436271
H46   H     H_    0.201962 0.277591 0.804265 0.210830
H47   H     H_    0.184300 0.328638 0.745797 0.188760
N15   N     N_3   0.836694 0.088437 0.625523 -0.450165
H48   H     H_    0.840941 0.042377 0.580026 0.197095
H49   H     H_    0.820396 0.059983 0.661375 0.164047
N16   N     N_2   0.841919 0.229495 0.747328 -0.275570
H50   H     H_    0.795273 0.168155 0.728453 0.232361
C57   C     C_3   0.805416 0.270018 0.703636 -0.746598
H51   H     H_    0.784735 0.235850 0.633040 0.238196
H52   H     H_    0.854562 0.339802 0.734479 0.232755
H53   H     H_    0.747393 0.266459 0.709608 0.232177
N17   N     N_3   0.295633 0.381913 0.168979 -0.459692
H54   H     H_    0.362957 0.415877 0.192104 0.195581
H55   H     H_    0.284396 0.335202 0.188781 0.200219
N18   N     N_2   0.191530 0.452154 0.353025 -0.315706
H56   H     H_    0.232451 0.497793 0.418791 0.229896
C58   C     C_3   0.099843 0.423754 0.324113 -0.785061
H57   H     H_    0.082277 0.402730 0.367639 0.232608
H58   H     H_    0.057816 0.367341 0.256195 0.247497
H59   H     H_    0.086915 0.478013 0.326721 0.257083
N19   N     N_3   0.889563 0.896774 0.665399 -0.464006
H60   H     H_    0.894845 0.954103 0.665387 0.172522
H61   H     H_    0.948181 0.897000 0.675879 0.210511

loop_
_geom_bond_atom_site_label_1
_geom_bond_atom_site_label_2
_ccdc_geom_bond_type
C55   H41   S    
C25   O24   A    
C6    N19   S    
C34   O22   A    
N17   H54   S    
C31   C42   S    
O24   Zn3   S    
O11   Zn5   S    
C41   C42   A    
C5    H6    S    
C35   C36   A    
C15   N5    S    
C37   N11   S    
C9    N2    S    
N7    C53   S    
N4    H14   S    
C7    C8    A    
C40   C46   A    
C29   C36   S    
C33   C39   A    
C18   C24   A    
C35   N10   S    
C26   O4    A    
N15   H49   S    
C54   H35   S    
C2    H5    S    
O1    Zn1   S    
C32   O17   A    
C5    C6    A    
O3    Zn3   S    
N6    H20   S    
C15   C16   A    
C58   H59   S    
C40   N13   S    
C11   C13   A    
C52   H21   S    
C51   H19   S    
C55   H40   S    
C18   C19   A    
C38   N12   S    
N8    H28   S    
O7    Zn3   S    
C43   N15   S    
C2    C50   S    
N14   H47   S    
C29   O10   A    
C19   H2    S    
C19   C20   A    
C16   C17   A    
C23   C24   S    
C31   O15   A    
C47   N1    S    
C13   C14   A    
O17   Zn6   S    
C57   H52   S    
C9    C10   A    
C16   N6    S    
C54   H37   S    
C34   O23   A    
N1    H8    S    
C31   O14   A    
C45   H3    S    
N17   H55   S    
C7    C30   S    
C21   C22   A    
O6    Zn4   S    
N19   H61   S    
N3    H12   S    
N11   C54   S    
O23   Zn2   S    
O13   Zn6   S    
O21   Zn2   S    
O19   Zn2   S    
N7    H24   S    
C30   O13   A    
C44   C46   A    
C18   H1    S    
N14   H46   S    
C58   H58   S    
C4    C45   S    
C45   C47   S    
C50   N17   S    
C38   C39   A    
C44   N16   S    
C55   H39   S    
N15   H48   S    
N4    H15   S    
C56   H45   S    
C32   O16   A    
C8    C9    A    
C2    C48   S    
C1    O12   A    
C4    C50   S    
N18   C58   S    
C33   N9    S    
C51   H18   S    
C43   C44   A    
O2    Zn4   S    
C37   C38   A    
O12   Zn2   S    
C27   O5    A    
C8    H7    S    
N2    H11   S    
O14   Zn5   S    
C47   C48   S    
C45   C49   S    
N16   H50   S    
N5    C51   S    
C23   O20   A    
C57   H53   S    
N3    H13   S    
N9    H30   S    
O4    Zn4   S    
C28   O7    A    
C27   C46   S    
C40   C41   A    
N1    H9    S    
C12   O19   A    
N12   H38   S    
C22   C24   A    
C4    C12   S    
C42   C43   A    
C3    C4    S    
N2    H10   S    
O15   Zn6   S    
C11   N3    S    
N10   H33   S    
C58   H57   S    
C20   C32   S    
C22   N8    S    
O5    Zn3   S    
C11   C17   A    
C49   H4    S    
C1    C10   S    
O9    Zn5   S    
O22   Zn1   S    
C53   H26   S    
N13   H42   S    
O18   Zn1   S    
O8    Zn4   S    
C6    C7    A    
C26   C48   S    
O10   Zn6   S    
C52   H23   S    
C21   N7    S    
C56   H44   S    
C28   O8    A    
C5    C10   A    
C1    O1    A    
C25   C39   S    
N13   C56   S    
C3    N18   S    
N19   H60   S    
N6    C52   S    
O20   Zn1   S    
C48   C49   S    
C3    C47   S    
N5    H16   S    
C33   C35   A    
C52   H22   S    
C2    C3    S    
C53   H25   S    
N16   C57   S    
C23   O21   A    
C13   N4    S    
C51   H17   S    
N18   H56   S    
N8    H29   S    
O16   Zn5   S    
N9    H31   S    
C53   H27   S    
C29   O9    A    
C41   N14   S    
C20   C21   A    
C36   C37   A    
C49   C50   S    
C17   C34   S    
C12   O18   A    
N12   C55   S    
C14   C15   A    
C27   O6    A    
C25   O2    A    
C14   C28   S    
C57   H51   S    
C56   H43   S    
C26   O3    A    
C30   O11   A    
N11   H34   S    
N10   H32   S    
C54   H36   S    
