data_mof_unit_39984.cif
_audit_creation_date              2012-10-26T20:17:42-0400
_audit_creation_method            fapswitch 2.2
_symmetry_space_group_name_H-M    P1
_symmetry_Int_Tables_number       1
_space_group_crystal_system       triclinic
_cell_length_a                    27.748488
_cell_length_b                    8.640422
_cell_length_c                    7.514622
_cell_angle_alpha                 103.303388
_cell_angle_beta                  95.223318
_cell_angle_gamma                 93.480193
_cell_volume                      1739.8583051

loop_
_atom_site_label
_atom_site_type_symbol
_atom_type_description
_atom_site_fract_x
_atom_site_fract_y
_atom_site_fract_z
_atom_type_partial_charge
C1    C     C_R   0.498237 0.199678 0.452931 0.550385
C2    C     C_R   0.868345 0.355171 0.372433 0.043183
C3    C     C_R   0.355174 0.523681 0.504606 -0.004284
C4    C     C_R   0.644819 0.476257 0.495375 -0.004256
C5    C     C_R   0.971137 0.366394 0.386692 0.001222
C6    C     C_R   0.028858 0.633257 0.613493 0.001256
C7    C     C_R   0.977451 0.634404 0.597498 0.051179
C8    C     C_R   0.022541 0.365205 0.402786 0.051176
C9    C     C_R   0.948918 0.495438 0.491980 0.013561
C10   C     C_R   0.051075 0.504197 0.508227 0.013548
C11   C     C_R   0.941098 0.249882 0.255084 -0.087490
C12   C     C_R   0.501764 0.800322 0.547069 0.550372
C13   C     C_R   0.058909 0.749840 0.744973 -0.087668
C14   C     C_R   0.890628 0.236388 0.254225 0.286526
C15   C     C_R   0.109375 0.763455 0.745609 0.286669
C16   C     C_R   0.407793 0.508237 0.501523 0.559763
C17   C     C_R   0.592205 0.491764 0.498475 0.559764
C18   C     C_R   0.047295 0.228908 0.325931 0.078586
C19   C     C_R   0.952692 0.770647 0.674500 0.078740
C20   C     C_2   0.496443 0.031040 0.427200 -0.115150
C21   C     C_2   0.503558 0.968960 0.572800 -0.115145
C22   C     C_R   0.175645 0.394942 0.413833 0.408800
C23   C     C_R   0.102549 0.511520 0.515290 -0.072536
C24   C     C_R   0.824344 0.604617 0.586402 0.408778
C25   C     C_R   0.182459 0.650799 0.622576 0.448822
C26   C     C_R   0.817530 0.348985 0.377200 0.448628
C27   C     C_R   0.277114 0.594716 0.381191 0.155552
C28   C     C_R   0.722848 0.404800 0.618512 0.155501
C29   C     C_R   0.327859 0.592276 0.377337 0.077294
C30   C     C_R   0.672108 0.407392 0.622435 0.077230
C31   C     C_R   0.331794 0.469200 0.639136 -0.136524
C32   C     C_R   0.668219 0.530900 0.361004 -0.136544
C33   C     C_R   0.282099 0.474629 0.644002 -0.061861
C34   C     C_R   0.897443 0.488128 0.484855 -0.072472
C35   C     C_R   0.717910 0.525365 0.356100 -0.061913
C36   C     C_R   0.254617 0.534468 0.514373 0.214293
C37   C     C_R   0.745368 0.465226 0.485513 0.214299
C38   C     C_3   0.870741 0.967717 0.159392 -0.047879
C39   C     C_3   0.129008 0.032279 0.841005 -0.048035
C40   C     C_R   0.125082 0.383962 0.412968 0.001037
C41   C     C_R   0.874908 0.615597 0.587341 0.001074
C42   C     C_R   0.097305 0.243740 0.321963 -0.093247
C43   C     C_R   0.902686 0.755754 0.678564 -0.093049
C44   C     C_R   0.131648 0.644589 0.627475 0.043362
Cu1   Cu    Cu3+1 0.505380 0.517380 0.684380 1.103669
Cu2   Cu    Cu3+1 0.494620 0.482620 0.315620 1.103669
H1    H     H_    0.351787 0.419376 0.739508 0.176802
H2    H     H_    0.511087 0.042155 0.712303 0.164085
H3    H     H_    0.842524 0.878036 0.074201 0.191151
H4    H     H_    0.867541 0.967346 0.306125 0.147975
H5    H     H_    0.906548 0.929428 0.120040 0.138559
H6    H     H_    0.131932 0.033102 0.694245 0.147924
H7    H     H_    0.157253 0.122045 0.925851 0.191093
H8    H     H_    0.093241 0.070071 0.881419 0.138608
H9    H     H_    0.648246 0.580960 0.260806 0.176708
H10   H     H_    0.264584 0.429107 0.746862 0.162081
H11   H     H_    0.735446 0.571049 0.253400 0.161957
H12   H     H_    0.114976 0.140041 0.257672 0.198101
H13   H     H_    0.885015 0.859393 0.743031 0.198157
H14   H     H_    0.956072 0.172896 0.143909 0.182826
H15   H     H_    0.043942 0.826766 0.856217 0.182601
H16   H     H_    0.488914 0.957845 0.287697 0.164066
I1    I     I_    0.434638 0.275450 0.898386 -0.179319
I2    I     I_    0.565366 0.724534 0.101613 -0.179351
I3    I     I_    0.637688 0.294161 0.809317 -0.244579
I4    I     I_    0.362238 0.705390 0.190269 -0.244610
I5    I     I_    0.767232 0.312657 0.811195 -0.159487
I6    I     I_    0.232685 0.686323 0.188136 -0.159879
I7    I     I_    0.019675 0.983089 0.260240 -0.419309
I8    I     I_    0.980273 0.016502 0.740188 -0.419222
N1    N     N_R   0.202968 0.527847 0.515179 -0.401022
N2    N     N_R   0.797018 0.471827 0.484775 -0.400972
N3    N     N_2   0.486510 0.456430 0.038510 -0.030081
N4    N     N_2   0.513490 0.543570 0.961490 -0.030079
O1    O     O_R   0.503500 0.286120 0.619780 -0.493200
O2    O     O_2   0.802473 0.725805 0.685929 -0.468230
O3    O     O_2   0.788708 0.221651 0.276938 -0.391811
O4    O     O_2   0.211279 0.778258 0.722544 -0.391460
O5    O     O_3   0.862857 0.117768 0.122699 -0.498889
O6    O     O_3   0.137175 0.882156 0.876946 -0.498784
O7    O     O_R   0.496500 0.713880 0.380220 -0.493217
O8    O     O_R   0.494410 0.256780 0.308360 -0.486367
O9    O     O_R   0.505590 0.743220 0.691640 -0.486366
O10   O     O_R   0.434810 0.514700 0.655690 -0.494000
O11   O     O_R   0.565190 0.485300 0.344310 -0.493979
O12   O     O_R   0.425720 0.485350 0.344280 -0.470199
O13   O     O_R   0.574280 0.514650 0.655720 -0.470198
O14   O     O_2   0.197515 0.273652 0.314498 -0.467964

loop_
_geom_bond_atom_site_label_1
_geom_bond_atom_site_label_2
_ccdc_geom_bond_type
C27   C29   A    
C26   N2    A    
N3    N4    D    
C42   H12   S    
C38   H3    S    
Cu1   Cu2   S    
C17   O11   A    
C35   C37   A    
C15   C44   A    
C5    C11   A    
C18   C42   A    
C11   C14   A    
C39   H8    S    
C38   O5    S    
C23   C40   A    
C16   O10   A    
C33   C36   A    
C3    C29   A    
C27   I6    S    
Cu2   O8    S    
C31   C33   A    
C25   N1    A    
C22   O14   S    
C32   H9    S    
C36   N1    S    
C43   H13   S    
C21   H2    S    
C2    C34   A    
C33   H10   S    
C40   C42   A    
C39   H6    S    
C31   H1    S    
C16   O12   A    
C24   C41   A    
C41   C43   A    
Cu1   O9    S    
C34   C41   A    
C25   C44   A    
C19   C43   A    
C26   O3    S    
C25   O4    S    
C1    O1    A    
C32   C35   A    
C28   I5    S    
C24   O2    S    
C38   H5    S    
I1    N3    S    
C1    O8    A    
C12   C21   S    
C8    C18   A    
C23   C44   A    
C12   O9    A    
Cu1   N4    S    
C5    C9    A    
Cu2   O7    S    
C15   O6    S    
C22   C40   A    
C2    C26   A    
C14   O5    S    
C3    C31   A    
C4    C32   A    
C4    C17   S    
C7    C19   A    
C13   C15   A    
C9    C34   A    
C10   C23   A    
Cu1   O10   S    
C11   H14   S    
C22   N1    A    
C24   N2    A    
C7    C9    A    
C1    C20   S    
Cu1   O13   S    
C17   O13   A    
C6    C10   A    
C5    C8    A    
C6    C7    A    
C38   H4    S    
C27   C36   A    
Cu1   O1    S    
C35   H11   S    
C39   O6    S    
Cu2   O11   S    
C28   C30   A    
C6    C13   A    
C39   H7    S    
C28   C37   A    
C18   I7    S    
C12   O7    A    
C20   H16   S    
C2    C14   A    
C30   I3    S    
C29   I4    S    
C13   H15   S    
C20   C21   D    
C8    C10   A    
C37   N2    S    
I2    N4    S    
C19   I8    S    
Cu2   N3    S    
C4    C30   A    
C3    C16   S    
Cu2   O12   S    
