data_mof_unit_18585.cif
_audit_creation_date              2012-10-26T17:10:31-0400
_audit_creation_method            fapswitch 2.2
_symmetry_space_group_name_H-M    P1
_symmetry_Int_Tables_number       1
_space_group_crystal_system       triclinic
_cell_length_a                    16.886673
_cell_length_b                    16.893865
_cell_length_c                    16.867378
_cell_angle_alpha                 66.851242
_cell_angle_beta                  67.623412
_cell_angle_gamma                 66.841131
_cell_volume                      3919.81535903

loop_
_atom_site_label
_atom_site_type_symbol
_atom_type_description
_atom_site_fract_x
_atom_site_fract_y
_atom_site_fract_z
_atom_type_partial_charge
C1    C     C_R   0.594459 0.020836 0.597324 -0.007863
C2    C     C_R   0.170329 0.431596 0.979224 0.591285
C3    C     C_R   0.564520 0.028262 0.828530 0.584771
C4    C     C_R   0.435539 0.971621 0.171469 0.575167
C5    C     C_R   0.436680 0.171496 0.966688 0.568299
C6    C     C_R   0.569004 0.830237 0.019196 0.588411
C7    C     C_R   0.979250 0.431586 0.170331 0.592167
C8    C     C_R   0.032213 0.563350 0.828748 0.572238
C9    C     C_R   0.170646 0.977399 0.433129 0.580306
C10   C     C_R   0.829189 0.023238 0.566610 0.585971
C11   C     C_R   0.544774 0.011153 0.547816 0.103359
C12   C     C_R   0.404688 0.981618 0.401717 -0.007449
C13   C     C_R   0.454044 0.991538 0.451350 0.108444
C14   C     C_R   0.996195 0.547018 0.557658 0.070795
C15   C     C_R   0.977863 0.450513 0.462026 0.072689
C16   C     C_R   0.558009 0.547592 0.994727 0.072216
C17   C     C_R   0.462146 0.451047 0.976793 0.073086
C18   C     C_R   0.521760 0.081113 0.473439 -0.022007
C19   C     C_R   0.476917 0.921641 0.525806 -0.020456
C20   C     C_R   0.987731 0.459251 0.598886 -0.048161
C21   C     C_R   0.974268 0.542143 0.424754 -0.039738
C22   C     C_R   0.468456 0.586961 0.990643 -0.041914
C23   C     C_R   0.010998 0.596170 0.606524 0.010132
C24   C     C_R   0.549297 0.409755 0.987575 -0.047082
C25   C     C_R   0.476493 0.071353 0.425347 -0.023051
C26   C     C_R   0.522293 0.931345 0.573823 -0.015793
C27   C     C_R   0.425120 0.542780 0.972860 -0.043508
C28   C     C_R   0.599019 0.459731 0.986453 -0.050530
C29   C     C_R   0.988641 0.409254 0.549258 -0.040731
C30   C     C_R   0.992297 0.586253 0.467970 -0.038047
C31   C     C_R   0.550851 0.034499 0.681971 0.182485
C32   C     C_R   0.448913 0.966023 0.317920 0.167543
C33   C     C_R   0.987035 0.691749 0.581195 0.149043
C34   C     C_R   0.970987 0.399189 0.410029 0.012447
C35   C     C_R   0.939407 0.322023 0.453351 0.171102
C36   C     C_R   0.680475 0.549818 0.048045 0.165873
C37   C     C_R   0.314821 0.425251 0.997815 0.154987
C38   C     C_R   0.312931 0.990704 0.437513 0.162043
C39   C     C_R   0.685948 0.013066 0.560653 0.177808
C40   C     C_R   0.453231 0.322194 0.939018 0.167002
C41   C     C_R   0.581564 0.692197 0.985986 0.150987
C42   C     C_R   0.998448 0.424757 0.314748 0.156076
C43   C     C_R   0.049203 0.549494 0.680206 0.164988
C44   C     C_R   0.599533 0.041108 0.730488 0.010320
C45   C     C_R   0.606906 0.596619 0.009687 0.013547
C46   C     C_R   0.400446 0.959014 0.269468 0.006823
C47   C     C_R   0.023173 0.734399 0.611212 0.005309
C48   C     C_R   0.945434 0.270528 0.402017 0.024864
C49   C     C_R   0.730392 0.598551 0.049743 0.028153
C50   C     C_R   0.267460 0.391062 0.971004 0.002352
C51   C     C_R   0.267334 0.970482 0.395394 -0.001195
C52   C     C_R   0.732204 0.031149 0.603859 0.000229
C53   C     C_R   0.401915 0.270548 0.945446 0.024068
C54   C     C_R   0.611336 0.734587 0.022648 0.006608
C55   C     C_R   0.971164 0.390941 0.267466 0.003833
C56   C     C_R   0.410032 0.399621 0.970258 0.009388
C57   C     C_R   0.050460 0.598330 0.730287 0.028533
C58   C     C_R   0.685295 0.052758 0.685543 0.148830
C59   C     C_R   0.314613 0.947631 0.314356 0.150579
C60   C     C_R   0.056658 0.685571 0.686699 0.160261
C61   C     C_R   0.941212 0.313827 0.313770 0.158785
C62   C     C_R   0.686710 0.685683 0.056224 0.159410
C63   C     C_R   0.313717 0.313779 0.941275 0.158801
C64   C     C_R   0.019346 0.830162 0.568982 0.587022
C65   C     C_R   0.966600 0.171508 0.436729 0.570313
C66   C     C_R   0.828756 0.563458 0.031986 0.572601
Cl1   Cl    Cl    0.433655 0.049227 0.721553 -0.441164
Cl2   Cl    Cl    0.528426 0.759166 0.898744 -0.565032
Cl3   Cl    Cl    0.078777 0.485108 0.255341 -0.486699
Cl4   Cl    Cl    0.114316 0.435489 0.700726 -0.483040
Cl5   Cl    Cl    0.727688 0.106118 0.726142 -0.409099
Cl6   Cl    Cl    0.272461 0.893652 0.274227 -0.488171
Cl7   Cl    Cl    0.113384 0.727444 0.723924 -0.481112
Cl8   Cl    Cl    0.889828 0.274796 0.267743 -0.436961
Cl9   Cl    Cl    0.723603 0.727281 0.113520 -0.458840
Cl10  Cl    Cl    0.267705 0.274540 0.890053 -0.417729
Cl11  Cl    Cl    0.566304 0.949884 0.279135 -0.469401
Cl12  Cl    Cl    0.900038 0.758302 0.527817 -0.516916
Cl13  Cl    Cl    0.874678 0.297552 0.566112 -0.481050
Cl14  Cl    Cl    0.700846 0.435784 0.113119 -0.498596
Cl15  Cl    Cl    0.255610 0.486297 0.077668 -0.489478
Cl16  Cl    Cl    0.258808 0.029761 0.534193 -0.492546
Cl17  Cl    Cl    0.738615 0.979292 0.460825 -0.437907
Cl18  Cl    Cl    0.565810 0.297582 0.874084 -0.483629
Cu1   Cu    Cu3+1 0.995180 0.995180 0.424630 1.243906
Cu2   Cu    Cu3+1 0.004820 0.004820 0.575370 1.242826
Cu3   Cu    Cu3+1 0.995180 0.424630 0.995180 1.214621
Cu4   Cu    Cu3+1 0.004820 0.575370 0.004820 1.225296
Cu5   Cu    Cu3+1 0.424630 0.995180 0.995180 1.242620
Cu6   Cu    Cu3+1 0.575370 0.004820 0.004820 1.234068
H1    H     H_    0.540152 0.876837 0.630987 0.170326
H2    H     H_    0.430796 0.652288 0.000727 0.194356
H3    H     H_    0.960364 0.579948 0.360580 0.191505
H4    H     H_    0.982373 0.427216 0.669283 0.187891
H5    H     H_    0.458703 0.125815 0.368134 0.149387
H6    H     H_    0.002613 0.651464 0.430161 0.194492
H7    H     H_    0.997690 0.338196 0.580593 0.195974
H8    H     H_    0.669322 0.427583 0.981123 0.187708
H9    H     H_    0.361042 0.580627 0.958889 0.188851
H10   H     H_    0.459572 0.859863 0.546459 0.156256
H11   H     H_    0.539091 0.142897 0.452793 0.159439
H12   H     H_    0.580499 0.338656 0.996833 0.189964
O1    O     O_R   0.124540 0.978640 0.385460 -0.467554
O2    O     O_R   0.124540 0.385460 0.978640 -0.462879
O3    O     O_R   0.021360 0.875460 0.614540 -0.468947
O4    O     O_R   0.978640 0.124540 0.385460 -0.475642
O5    O     O_R   0.013780 0.867370 0.487190 -0.460421
O6    O     O_R   0.986220 0.132630 0.512810 -0.467352
O7    O     O_R   0.867370 0.487190 0.013780 -0.476799
O8    O     O_R   0.132630 0.512810 0.986220 -0.453931
O9    O     O_R   0.487190 0.013780 0.867370 -0.443592
O10   O     O_R   0.512810 0.986220 0.132630 -0.458389
O11   O     O_R   0.512810 0.132630 0.986220 -0.478048
O12   O     O_R   0.875460 0.021360 0.614540 -0.464867
O13   O     O_R   0.487190 0.867370 0.013780 -0.464312
O14   O     O_R   0.986220 0.512810 0.132630 -0.453823
O15   O     O_R   0.013780 0.487190 0.867370 -0.477773
O16   O     O_R   0.132630 0.986220 0.512810 -0.451847
O17   O     O_R   0.867370 0.013780 0.487190 -0.443371
O18   O     O_R   0.978640 0.385460 0.124540 -0.462172
O19   O     O_R   0.021360 0.614540 0.875460 -0.473466
O20   O     O_R   0.385460 0.124540 0.978640 -0.469966
O21   O     O_R   0.614540 0.875460 0.021360 -0.463322
O22   O     O_R   0.614540 0.021360 0.875460 -0.465736
O23   O     O_R   0.385460 0.978640 0.124540 -0.468748
O24   O     O_R   0.875460 0.614540 0.021360 -0.473982

loop_
_geom_bond_atom_site_label_1
_geom_bond_atom_site_label_2
_ccdc_geom_bond_type
C16   C28   A    
Cu3   Cu4   S    
Cu5   O13   S    
C11   C18   A    
C50   C63   A    
C46   C59   A    
Cu6   O21   S    
C40   Cl18  S    
C34   C42   A    
Cu6   O10   S    
C10   C52   S    
C64   O3    A    
Cu5   O23   S    
Cu1   Cu2   S    
C31   Cl1   S    
C27   H9    S    
C4    O23   A    
C5    C53   S    
C14   C30   A    
Cu3   O15   S    
C42   C55   A    
C8    O19   A    
C63   Cl10  S    
C60   Cl7   S    
C1    C31   A    
C23   C43   A    
C34   C35   A    
Cu6   O11   S    
Cu1   O17   S    
C19   C26   A    
C30   H6    S    
C10   O17   A    
C2    C50   S    
C32   Cl11  S    
C37   C56   A    
C44   C58   A    
C23   C33   A    
C9    C51   S    
Cu4   O24   S    
C7    C55   S    
C48   C65   S    
C15   C34   S    
Cu1   O1    S    
C59   Cl6   S    
Cu4   O8    S    
C39   C52   A    
C4    O10   A    
C12   C32   A    
C9    O16   A    
C37   Cl15  S    
C18   C25   A    
C32   C46   A    
C6    O21   A    
C6    C54   S    
C35   C48   A    
C8    O15   A    
C15   C29   A    
C41   Cl2   S    
C20   C29   A    
C41   C54   A    
C3    C44   S    
C17   C24   A    
C31   C44   A    
C13   C19   A    
C17   C27   A    
C14   C20   A    
C7    O14   A    
C36   Cl14  S    
C3    O9    A    
C47   C64   S    
C1    C39   A    
C57   C60   A    
C4    C46   S    
C38   C51   A    
C54   C62   A    
C11   C26   A    
C40   C56   A    
C26   H1    S    
C5    O20   A    
C42   Cl3   S    
C66   O24   A    
C49   C66   S    
C18   H11   S    
C14   C23   S    
Cu4   O14   S    
C8    C57   S    
C2    O2    A    
C9    O1    A    
C36   C45   A    
Cu2   O16   S    
C17   C56   S    
C52   C58   A    
C25   H5    S    
C43   Cl4   S    
C22   C27   A    
C33   C47   A    
C62   Cl9   S    
Cu2   O3    S    
C51   C59   A    
Cu1   O4    S    
C65   O4    A    
C47   C60   A    
C3    O22   A    
C64   O5    A    
C28   H8    S    
C20   H4    S    
C2    O8    A    
C16   C22   A    
C49   C62   A    
C65   O6    A    
C5    O11   A    
Cu6   O22   S    
C7    O18   A    
Cu2   O6    S    
C24   C28   A    
Cu4   O19   S    
C13   C25   A    
C10   O12   A    
C16   C45   S    
C19   H10   S    
Cu3   O7    S    
C61   Cl8   S    
C21   C30   A    
Cu5   O9    S    
C29   H7    S    
Cu2   O12   S    
C39   Cl17  S    
Cu3   O18   S    
C41   C45   A    
C37   C50   A    
C53   C63   A    
C48   C61   A    
C21   H3    S    
C55   C61   A    
C35   Cl13  S    
C24   H12   S    
C66   O7    A    
C12   C38   A    
C33   Cl12  S    
C6    O13   A    
C58   Cl5   S    
C43   C57   A    
Cu3   O2    S    
C15   C21   A    
C12   C13   S    
C40   C53   A    
Cu5   O20   S    
C22   H2    S    
C1    C11   S    
Cu5   Cu6   S    
Cu1   O5    S    
C38   Cl16  S    
C36   C49   A    
