data_mof_unit_7551.cif
_audit_creation_date              2012-12-10T17:50:48-0500
_audit_creation_method            fapswitch 2.2
_symmetry_space_group_name_H-M    P1
_symmetry_Int_Tables_number       1
_space_group_crystal_system       triclinic
_cell_length_a                    14.723042
_cell_length_b                    14.682296
_cell_length_c                    15.849983
_cell_angle_alpha                 76.111117
_cell_angle_beta                  103.084059
_cell_angle_gamma                 115.245009
_cell_volume                      2978.26634843

loop_
_atom_site_label
_atom_site_type_symbol
_atom_type_description
_atom_site_fract_x
_atom_site_fract_y
_atom_site_fract_z
_atom_type_partial_charge
C1    C     C_R   0.880048 0.311627 0.513469 0.877533
C2    C     C_R   0.358310 0.926524 0.485850 -0.017542
C3    C     C_R   0.673038 0.998860 0.559314 -0.033591
C4    C     C_R   0.321873 0.002366 0.482533 -0.046594
C5    C     C_R   0.532453 0.052883 0.501251 0.125910
C6    C     C_R   0.463572 0.949766 0.506582 0.136974
C7    C     C_R   0.500821 0.872668 0.542861 -0.180650
C8    C     C_R   0.494595 0.128492 0.493573 -0.171902
C9    C     C_R   0.603624 0.897171 0.571662 -0.159675
C10   C     C_R   0.390990 0.103209 0.486442 -0.143814
C11   C     C_R   0.705007 0.651292 0.340379 -0.361603
C12   C     C_R   0.119696 0.688436 0.484557 0.861806
C13   C     C_R   0.289275 0.338201 0.652874 -0.383801
C14   C     C_R   0.793726 0.633046 0.371544 0.681844
C15   C     C_R   0.209118 0.370942 0.631200 0.643952
C16   C     C_R   0.000140 0.500304 0.660050 0.806291
C17   C     C_R   0.000344 0.500519 0.339876 0.833310
C18   C     C_R   0.714934 0.509620 0.488916 -0.060172
C19   C     C_R   0.279497 0.480249 0.504851 -0.067580
C20   C     C_R   0.623657 0.526729 0.461307 -0.029069
C21   C     C_R   0.365797 0.454115 0.526594 -0.038506
C22   C     C_R   0.620059 0.599370 0.384702 0.044721
C23   C     C_R   0.776605 0.024761 0.591740 0.334906
C24   C     C_R   0.368714 0.380307 0.602311 0.060387
C25   C     C_R   0.536507 0.474507 0.506604 0.055812
C26   C     C_R   0.449239 0.499385 0.476850 0.047050
C27   C     C_R   0.448028 0.568354 0.398147 -0.223995
C28   C     C_R   0.533191 0.397232 0.579868 -0.254279
C29   C     C_R   0.531129 0.617691 0.352803 0.189638
C30   C     C_R   0.450905 0.349924 0.626290 0.170064
C31   C     C_3   0.981892 0.407530 0.044924 -0.291023
C32   C     C_3   0.022707 0.599456 0.954504 -0.303762
C33   C     C_3   0.909784 0.438775 0.966847 -0.289442
C34   C     C_R   0.216857 0.975152 0.476438 0.350542
C35   C     C_3   0.094770 0.568217 0.032723 -0.296088
C36   C     C_1   0.000758 0.501500 0.749626 -0.194550
C37   C     C_1   0.001216 0.501816 0.250077 -0.127388
C38   C     C_3   0.072241 0.472833 0.993672 0.533705
C39   C     C_3   0.932359 0.534119 0.005848 0.544949
C40   C     C_3   0.001498 0.503443 0.916607 0.067262
C41   C     C_3   0.003035 0.503399 0.082868 0.061543
C42   C     C_1   0.001291 0.502500 0.825091 -0.003059
C43   C     C_1   0.002109 0.502838 0.174472 0.023265
C44   C     C_R   0.811751 0.202393 0.524257 -0.265216
C45   C     C_R   0.845885 0.126787 0.575529 0.302981
C46   C     C_R   0.186393 0.797968 0.478315 -0.265883
C47   C     C_3   0.160722 0.335066 0.769362 0.087326
C48   C     C_3   0.127401 0.229506 0.825374 -0.791337
C49   C     C_3   0.908375 0.784769 0.303022 0.075239
C50   C     C_3   0.894254 0.816295 0.203657 -0.818794
C51   C     C_3   0.806499 0.591716 0.937760 0.058176
C52   C     C_3   0.727892 0.625240 0.953179 -0.739332
C53   C     C_3   0.205452 0.426431 0.061740 0.056132
C54   C     C_3   0.276949 0.381868 0.049629 -0.753676
C55   C     C_3   0.038624 0.821329 0.580619 0.100644
C56   C     C_R   0.151037 0.871515 0.484876 0.292735
C57   C     C_3   0.928393 0.793489 0.588113 -0.731723
C58   C     C_3   0.998951 0.125463 0.567710 0.189428
C59   C     C_3   0.070075 0.082639 0.632443 -0.750292
C60   C     C_3   0.810681 0.945009 0.729450 0.096892
C61   C     C_3   0.839087 0.857232 0.781804 -0.835565
C62   C     C_3   0.156666 0.083328 0.378343 0.092711
C63   C     C_3   0.115824 0.165319 0.367534 -0.807894
C64   C     C_R   0.709164 0.173812 0.486692 0.042272
C65   C     C_R   0.288170 0.829842 0.468158 0.045130
C66   C     C_R   0.637926 0.076203 0.515152 -0.016546
Cu1   Cu    Cu3+1 0.081740 0.475690 0.522610 0.989167
Cu2   Cu    Cu3+1 0.918260 0.524310 0.477390 1.009402
H1    H     H_    0.834237 0.387118 0.938479 0.164930
H2    H     H_    0.038256 0.677206 0.916125 0.151716
H3    H     H_    0.628415 0.836000 0.603567 0.184560
H4    H     H_    0.365439 0.162849 0.484741 0.189705
H5    H     H_    0.449950 0.793367 0.556052 0.171871
H6    H     H_    0.545224 0.206532 0.499787 0.172863
H7    H     H_    0.122692 0.377416 0.787038 0.200737
H8    H     H_    0.243800 0.377991 0.787359 0.117374
H9    H     H_    0.172333 0.188269 0.817900 0.230868
H10   H     H_    0.139511 0.236821 0.895519 0.219807
H11   H     H_    0.045571 0.184693 0.805656 0.269979
H12   H     H_    0.169998 0.620297 0.061201 0.169155
H13   H     H_    0.990854 0.818646 0.326624 0.201223
H14   H     H_    0.872052 0.818705 0.334265 0.137440
H15   H     H_    0.812908 0.783802 0.175930 0.252915
H16   H     H_    0.923370 0.900794 0.186953 0.208160
H17   H     H_    0.936903 0.788654 0.173489 0.269263
H18   H     H_    0.766189 0.524869 0.902723 0.149760
H19   H     H_    0.858811 0.656026 0.895708 0.137293
H20   H     H_    0.765847 0.692905 0.987046 0.247643
H21   H     H_    0.685310 0.645601 0.889359 0.194549
H22   H     H_    0.673663 0.562311 0.994324 0.261982
H23   H     H_    0.269930 0.533216 0.447461 0.176080
H24   H     H_    0.158649 0.373052 0.113198 0.136230
H25   H     H_    0.252284 0.501115 0.084356 0.164145
H26   H     H_    0.323586 0.432233 0.997402 0.253543
H27   H     H_    0.328071 0.375002 0.111981 0.213498
H28   H     H_    0.232791 0.304924 0.031091 0.237030
H29   H     H_    0.086928 0.887889 0.614707 0.147441
H30   H     H_    0.058538 0.755025 0.614263 0.124775
H31   H     H_    0.878296 0.727181 0.554527 0.243644
H32   H     H_    0.917659 0.773030 0.658319 0.195329
H33   H     H_    0.906986 0.859277 0.557422 0.266555
H34   H     H_    0.724036 0.455389 0.545742 0.150666
H35   H     H_    0.045050 0.195138 0.525845 0.157342
H36   H     H_    0.949615 0.067477 0.524513 0.126177
H37   H     H_    0.025763 0.009479 0.671572 0.244617
H38   H     H_    0.118505 0.069262 0.596713 0.247965
H39   H     H_    0.119867 0.137194 0.677330 0.259144
H40   H     H_    0.734127 0.930678 0.742753 0.137476
H41   H     H_    0.867075 0.016851 0.752783 0.178842
H42   H     H_    0.916677 0.870547 0.772953 0.241654
H43   H     H_    0.837229 0.851106 0.852642 0.212960
H44   H     H_    0.784505 0.784425 0.759483 0.246749
H45   H     H_    0.702812 0.704668 0.280751 0.185730
H46   H     H_    0.098128 0.019873 0.344575 0.152134
H47   H     H_    0.226313 0.117444 0.345963 0.143428
H48   H     H_    0.169861 0.227172 0.404789 0.250481
H49   H     H_    0.105252 0.198313 0.297027 0.201843
H50   H     H_    0.041438 0.131524 0.391876 0.232846
H51   H     H_    0.288547 0.280306 0.709722 0.186409
H52   H     H_    0.382181 0.584562 0.368634 0.175875
H53   H     H_    0.593362 0.370308 0.602635 0.156050
H54   H     H_    0.966859 0.329817 0.083235 0.156810
I1    I     I_    0.325218 0.756664 0.387158 -0.384675
I2    I     I_    0.669197 0.260545 0.364473 -0.338104
I3    I     I_    0.513437 0.719437 0.235252 -0.373329
I4    I     I_    0.459371 0.232591 0.733231 -0.435347
N1    N     N_R   0.795440 0.560790 0.443380 -0.216179
N2    N     N_R   0.204560 0.439210 0.556620 -0.218495
O1    O     O_R   0.977900 0.338120 0.529810 -0.527214
O2    O     O_3   0.875338 0.677223 0.324579 -0.547875
O3    O     O_3   0.859642 0.565969 0.019389 -0.560923
O4    O     O_3   0.144318 0.439499 0.981066 -0.586658
O5    O     O_3   0.050384 0.844780 0.491001 -0.569836
O6    O     O_3   0.945703 0.152722 0.614706 -0.543853
O7    O     O_3   0.810950 0.950460 0.639305 -0.586995
O8    O     O_3   0.178588 0.048358 0.468627 -0.586805
O9    O     O_R   0.022100 0.661880 0.470190 -0.528081
O10   O     O_R   0.839850 0.379180 0.491620 -0.569567
O11   O     O_R   0.160150 0.620820 0.508380 -0.571669
O12   O     O_R   0.069010 0.479460 0.640020 -0.551580
O13   O     O_R   0.930990 0.520540 0.359980 -0.509850
O14   O     O_R   0.930960 0.520530 0.601820 -0.597128
O15   O     O_R   0.069040 0.479470 0.398180 -0.601861
O16   O     O_3   0.128450 0.326257 0.679123 -0.536592

loop_
_geom_bond_atom_site_label_1
_geom_bond_atom_site_label_2
_ccdc_geom_bond_type
C49   H14   S    
C21   C26   A    
C30   I4    S    
C34   C56   A    
C23   C45   A    
C22   C29   A    
C29   I3    S    
C27   C29   A    
C35   H12   S    
C36   C42   T    
C2    C65   A    
Cu1   O15   S    
C56   O5    S    
Cu2   O9    S    
C50   H16   S    
C39   C41   S    
C2    C6    A    
C53   C54   S    
C44   C64   A    
C25   C28   A    
C26   C27   A    
C59   H37   S    
C48   H11   S    
C19   C21   A    
Cu2   O10   S    
C62   H46   S    
C1    O1    A    
C5    C6    A    
C63   H49   S    
C11   C14   A    
C20   C25   A    
C62   O8    S    
C57   H31   S    
C19   N2    A    
C18   C20   A    
C17   O13   A    
C18   H34   S    
C32   C39   S    
C48   H10   S    
C3    C23   A    
C60   H41   S    
C50   H17   S    
C52   H22   S    
C31   C33   S    
Cu2   O14   S    
Cu1   O11   S    
C54   H28   S    
C60   H40   S    
C33   H1    S    
C40   C42   S    
C41   C43   S    
C52   H21   S    
C16   O12   A    
C35   C41   S    
C61   H42   S    
C51   H18   S    
C13   H51   S    
C50   H15   S    
C4    C34   A    
C59   H38   S    
C53   H25   S    
Cu1   Cu2   S    
C33   C40   S    
C32   C35   S    
C27   H52   S    
C52   H20   S    
C35   C38   S    
C31   H54   S    
C46   C65   A    
C7    H5    S    
C51   H19   S    
C63   H50   S    
C51   O3    S    
C28   H53   S    
C32   H2    S    
C25   C26   A    
C64   I2    S    
C57   H32   S    
C47   O16   S    
C59   H39   S    
C14   N1    A    
C51   C52   S    
C13   C24   A    
C60   C61   S    
C64   C66   A    
C48   H9    S    
C37   C43   T    
C16   O14   A    
C62   C63   S    
C3    C9    A    
C18   N1    A    
C1    C44   S    
C47   C48   S    
C58   O6    S    
C34   O8    S    
C55   H29   S    
C53   H24   S    
C8    H6    S    
C45   O6    S    
C12   O11   A    
Cu2   O13   S    
C53   O4    S    
C33   C39   S    
Cu1   O12   S    
C60   O7    S    
C54   H27   S    
C63   H48   S    
C12   C46   S    
C20   C22   A    
C15   N2    A    
C55   C57   S    
C65   I1    S    
C3    C66   A    
C58   H36   S    
C17   C37   S    
C4    C10   A    
C61   H43   S    
C44   C45   A    
C14   O2    S    
C7    C9    A    
C31   C41   S    
C9    H3    S    
Cu1   O1    S    
C5    C66   A    
C47   H8    S    
C5    C8    A    
C6    C7    A    
C57   H33   S    
C49   O2    S    
C11   C22   A    
C31   C38   S    
C23   O7    S    
C17   O15   A    
C13   C15   A    
C58   C59   S    
C47   H7    S    
C62   H47   S    
C55   O5    S    
Cu1   N2    S    
C16   C36   S    
C38   C40   S    
C39   O3    S    
C2    C4    A    
C55   H30   S    
C28   C30   A    
C49   H13   S    
C32   C40   S    
C11   H45   S    
C24   C30   A    
C54   H26   S    
C19   H23   S    
Cu2   N1    S    
C15   O16   S    
C8    C10   A    
C49   C50   S    
C21   C24   A    
C46   C56   A    
C12   O9    A    
C58   H35   S    
C61   H44   S    
C1    O10   A    
C38   O4    S    
C10   H4    S    
