data_mof_unit_26274.cif
_audit_creation_date              2012-12-10T16:53:30-0500
_audit_creation_method            fapswitch 2.2
_symmetry_space_group_name_H-M    P1
_symmetry_Int_Tables_number       1
_space_group_crystal_system       triclinic
_cell_length_a                    7.878149
_cell_length_b                    8.609503
_cell_length_c                    13.648016
_cell_angle_alpha                 92.976177
_cell_angle_beta                  79.000669
_cell_angle_gamma                 93.372859
_cell_volume                      906.340937397

loop_
_atom_site_label
_atom_site_type_symbol
_atom_type_description
_atom_site_fract_x
_atom_site_fract_y
_atom_site_fract_z
_atom_type_partial_charge
C1    C     C_R   0.544754 0.794101 0.499230 0.896733
C2    C     C_1   0.564174 0.483178 0.121258 -0.027272
C3    C     C_2   0.558843 0.957240 0.515769 -0.301939
C4    C     C_2   0.440352 0.043008 0.485642 -0.266339
C5    C     C_3   0.254109 0.542146 0.049985 -0.383297
C6    C     C_3   0.140289 0.392422 0.063110 -0.815692
C7    C     C_3   0.743806 0.449135 0.949992 -0.391516
C8    C     C_3   0.858030 0.598625 0.936926 -0.809050
C9    C     C_2   0.670286 0.016022 0.588150 0.983093
C10   C     C_2   0.326879 0.984661 0.414420 0.978284
C11   C     C_2   0.037367 0.424313 0.374674 1.121044
C12   C     C_R   0.455130 0.205997 0.501100 0.914316
C13   C     C_2   0.963276 0.573835 0.625676 1.121733
C14   C     C_R   0.471051 0.503845 0.686606 0.921636
C15   C     C_R   0.528894 0.495827 0.313394 0.914886
C16   C     C_1   0.548808 0.488729 0.209368 -0.137731
C17   C     C_1   0.450624 0.508129 0.790633 -0.143708
C18   C     C_2   0.571096 0.480469 0.016904 0.136522
C19   C     C_2   0.426949 0.511152 0.983100 0.135995
C20   C     C_1   0.434604 0.510941 0.878746 -0.029241
H1    H     H_    0.116825 0.344407 0.989495 0.261294
H2    H     H_    0.728453 0.398537 0.875518 0.238498
H3    H     H_    0.688445 0.139832 0.715770 0.349388
H4    H     H_    0.085153 0.957509 0.385658 0.365867
H5    H     H_    0.164322 0.269292 0.275767 0.314712
H6    H     H_    0.841860 0.728946 0.726746 0.314990
H7    H     H_    0.204336 0.304324 0.098069 0.252034
H8    H     H_    0.014009 0.416709 0.111809 0.275274
H9    H     H_    0.269242 0.592913 0.124443 0.248383
H10   H     H_    0.187786 0.629730 0.015940 0.207363
H11   H     H_    0.793857 0.687193 0.902457 0.250560
H12   H     H_    0.983971 0.574268 0.887880 0.275012
H13   H     H_    0.882129 0.646122 0.010521 0.260208
H14   H     H_    0.809859 0.361315 0.984013 0.207238
N1    N     N_2   0.954190 0.457600 0.473930 -0.181214
N2    N     N_2   0.045810 0.542400 0.526070 -0.182702
O1    O     O_R   0.388300 0.738660 0.506400 -0.617462
O2    O     O_R   0.599698 0.105259 0.673171 -0.813178
O3    O     O_2   0.389297 0.918010 0.335552 -0.644890
O4    O     O_R   0.149072 0.004738 0.438741 -0.678121
O5    O     O_2   0.041784 0.520372 0.311234 -0.648722
O6    O     O_R   0.108150 0.279791 0.348852 -0.790840
O7    O     O_2   0.954825 0.474648 0.687601 -0.650140
O8    O     O_R   0.898418 0.720071 0.653672 -0.765980
O9    O     O_R   0.611700 0.261340 0.493600 -0.624541
O10   O     O_R   0.679920 0.711490 0.489690 -0.582269
O11   O     O_R   0.320080 0.288510 0.510310 -0.569008
O12   O     O_R   0.333200 0.515510 0.649910 -0.616196
O13   O     O_R   0.666800 0.484490 0.350090 -0.619108
O14   O     O_R   0.624820 0.488340 0.633200 -0.614989
O15   O     O_R   0.375180 0.511660 0.366800 -0.611261
O16   O     O_2   0.823137 0.986937 0.572793 -0.510572
Zn1   Zn    Zn3+2 0.305280 0.518140 0.511160 1.047345
Zn2   Zn    Zn3+2 0.694720 0.481860 0.488840 1.034566

loop_
_geom_bond_atom_site_label_1
_geom_bond_atom_site_label_2
_ccdc_geom_bond_type
H5    O6    S    
C3    C9    S    
C15   O15   A    
C2    C18   S    
H3    O2    S    
C2    C16   T    
C6    H7    S    
C1    O1    A    
O11   Zn1   S    
C7    C18   S    
O1    Zn1   S    
O10   Zn2   S    
C11   N1    S    
H6    O8    S    
C7    C8    S    
O14   Zn2   S    
N1    Zn2   S    
C6    H1    S    
C14   C17   S    
C14   O14   A    
C9    O16   D    
C11   O6    S    
C12   O11   A    
C5    C19   S    
C5    C6    S    
C9    O2    S    
H4    O4    S    
O9    Zn2   S    
C11   O5    D    
C5    H9    S    
C8    H13   S    
C15   O13   A    
O12   Zn1   S    
C7    H14   S    
C1    O10   A    
C4    C12   S    
C15   C16   S    
C4    C10   S    
O13   Zn2   S    
C7    H2    S    
C13   O7    D    
C17   C20   T    
C13   N2    S    
C10   O4    S    
C5    H10   S    
C12   O9    A    
C18   C19   D    
C14   O12   A    
N2    Zn1   S    
C1    C3    S    
C8    H11   S    
C13   O8    S    
C6    H8    S    
C3    C4    D    
C19   C20   S    
C10   O3    D    
O15   Zn1   S    
N1    N2    D    
C8    H12   S    
