data_mof_unit_19321.cif
_audit_creation_date              2012-12-11T15:17:18-0500
_audit_creation_method            fapswitch 2.2
_symmetry_space_group_name_H-M    P1
_symmetry_Int_Tables_number       1
_space_group_crystal_system       triclinic
_cell_length_a                    8.300355
_cell_length_b                    16.502238
_cell_length_c                    19.083083
_cell_angle_alpha                 95.144037
_cell_angle_beta                  94.746997
_cell_angle_gamma                 93.21773
_cell_volume                      2589.1135832

loop_
_atom_site_label
_atom_site_type_symbol
_atom_type_description
_atom_site_fract_x
_atom_site_fract_y
_atom_site_fract_z
_atom_type_partial_charge
Ba1   Ba    Ba6+2 0.153080 0.539460 0.466290 1.678154
Ba2   Ba    Ba6+2 0.657090 0.460530 0.533660 1.665749
C1    C     C_3   0.370801 0.723542 0.200649 -0.287455
C2    C     C_R   0.826229 0.764607 0.521030 0.018592
C3    C     C_R   0.873904 0.849596 0.532476 -0.117543
C4    C     C_3   0.958369 0.764067 0.283806 0.201578
C5    C     C_R   0.771527 0.907589 0.502762 0.239355
C6    C     C_R   0.617389 0.879060 0.469980 -0.103783
C7    C     C_R   0.564632 0.796273 0.466159 0.041073
C8    C     C_R   0.912440 0.157583 0.488378 -0.118655
C9    C     C_R   0.969287 0.240580 0.492755 0.025070
C10   C     C_R   0.010466 0.099177 0.517980 0.254818
C11   C     C_R   0.118996 0.265296 0.528798 -0.285662
C12   C     C_3   0.352582 0.706848 0.277160 0.357206
C13   C     C_R   0.220194 0.208418 0.554964 -0.044531
C14   C     C_R   0.166937 0.125580 0.549052 -0.170280
C15   C     C_R   0.610776 0.531142 0.297874 -0.292538
C16   C     C_3   0.015559 0.839661 0.248055 -0.217110
C17   C     C_R   0.461681 0.490303 0.276247 0.055786
C18   C     C_R   0.405688 0.481244 0.204309 -0.119915
C19   C     C_R   0.499283 0.514042 0.153934 -0.023099
C20   C     C_R   0.651602 0.553755 0.176829 -0.137550
C21   C     C_R   0.707666 0.560681 0.248492 0.040788
C22   C     C_R   0.452926 0.570033 0.036365 -0.069271
C23   C     C_3   0.525086 0.708396 0.641100 0.302377
C24   C     C_R   0.402686 0.560359 0.964142 -0.109679
C25   C     C_R   0.342607 0.484023 0.930594 0.062000
C26   C     C_R   0.334143 0.416620 0.971386 0.147978
C27   C     C_R   0.381833 0.427484 0.044496 -0.091489
C28   C     C_3   0.782456 0.360964 0.320762 0.310672
C29   C     C_R   0.442381 0.503881 0.077416 0.040215
C30   C     C_R   0.137264 0.439000 0.827178 -0.086492
C31   C     C_R   0.087455 0.434181 0.754837 0.017439
C32   C     C_R   0.339135 0.506048 0.733317 0.045625
C33   C     C_R   0.389935 0.510774 0.805618 -0.113294
C34   C     C_3   0.562641 0.797736 0.667519 -0.366449
C35   C     C_R   0.290460 0.476293 0.853310 0.029556
C36   C     C_R   0.189804 0.466586 0.708404 -0.283388
C37   C     C_3   0.762545 0.338445 0.241405 -0.338296
C38   C     C_3   0.022655 0.632363 0.678007 0.299728
C39   C     C_3   0.046092 0.654058 0.757553 -0.368698
C40   C     C_3   0.288840 0.294431 0.380451 0.296771
C41   C     C_3   0.285752 0.201875 0.363272 -0.288662
C42   C     C_2   0.152597 0.171078 0.307071 0.940415
C43   C     C_2   0.802716 0.093948 0.702802 0.946303
C44   C     C_2   0.013337 0.878084 0.583987 0.916450
C45   C     C_3   0.920838 0.235817 0.684163 0.303629
C46   C     C_2   0.793811 0.772997 0.307191 0.786047
C47   C     C_2   0.944347 0.839218 0.172920 0.956328
C48   C     C_3   0.950322 0.151984 0.710193 -0.204577
C49   C     C_3   0.395959 0.219451 0.719055 0.426172
C50   C     C_3   0.448790 0.171010 0.781257 -0.056731
C51   C     C_R   0.668263 0.740642 0.493162 -0.234523
H1    H     H_    0.232197 0.677848 0.281470 0.087925
H2    H     H_    0.167344 0.312502 0.392621 -0.022884
H3    H     H_    0.376760 0.311312 0.427275 0.063089
H4    H     H_    0.303697 0.674172 0.164476 0.089611
H5    H     H_    0.270946 0.171773 0.411967 -0.019018
H6    H     H_    0.403994 0.185277 0.344911 0.104376
H7    H     H_    0.438557 0.660850 0.289474 -0.039666
H8    H     H_    0.500269 0.724099 0.189785 0.125098
H9    H     H_    0.638842 0.682758 0.625305 0.012280
H10   H     H_    0.433272 0.704084 0.594926 0.050099
H11   H     H_    0.663792 0.803652 0.709885 0.142571
H12   H     H_    0.672928 0.285575 0.228357 0.142247
H13   H     H_    0.598051 0.832861 0.623789 0.063925
H14   H     H_    0.454492 0.823797 0.688944 0.129014
H15   H     H_    0.324079 0.782565 0.188467 0.156952
H16   H     H_    0.983604 0.895942 0.279046 0.090750
H17   H     H_    0.840988 0.228704 0.633993 0.097022
H18   H     H_    0.040936 0.262645 0.673055 -0.088458
H19   H     H_    0.039125 0.122051 0.677947 0.034233
H20   H     H_    0.003817 0.159683 0.766010 0.103507
H21   H     H_    0.275199 0.193558 0.696613 -0.000658
H22   H     H_    0.401031 0.197792 0.830370 0.110854
H23   H     H_    0.719628 0.390330 0.213766 0.049442
H24   H     H_    0.583199 0.174823 0.790595 0.137453
H25   H     H_    0.041946 0.761277 0.331504 0.071973
H26   H     H_    0.796183 0.138525 0.460054 0.130522
H27   H     H_    0.539338 0.921411 0.446249 0.101933
H28   H     H_    0.247037 0.081579 0.568803 0.106568
H29   H     H_    0.628821 0.676597 0.488038 0.068612
H30   H     H_    0.162063 0.328750 0.531955 0.071720
H31   H     H_    0.505222 0.542324 0.824719 0.076416
H32   H     H_    0.409692 0.613064 0.934336 0.081653
H33   H     H_    0.498588 0.629658 0.060427 0.083508
H34   H     H_    0.880500 0.322355 0.222391 0.156377
H35   H     H_    0.290579 0.448206 0.187683 0.099864
H36   H     H_    0.376015 0.375554 0.075316 0.076701
H37   H     H_    0.054994 0.415970 0.862844 0.069577
H38   H     H_    0.728611 0.576690 0.138949 0.102879
H39   H     H_    0.150987 0.463442 0.652635 0.058217
H40   H     H_    0.655271 0.536157 0.353059 0.074555
H41   H     H_    0.148906 0.844593 0.249529 0.075852
H42   H     H_    0.663838 0.375729 0.338951 -0.000702
H43   H     H_    0.870425 0.414707 0.332350 0.057577
H44   H     H_    0.053523 0.090029 0.366883 0.263944
H45   H     H_    0.137397 0.613451 0.658504 0.008379
H46   H     H_    0.679028 0.004956 0.745329 0.303210
H47   H     H_    0.314684 0.330815 0.706940 0.129278
H48   H     H_    0.499731 0.334166 0.750244 0.229340
H49   H     H_    0.413646 0.062294 0.718173 0.206504
H50   H     H_    0.448518 0.052986 0.806076 0.202161
H51   H     H_    0.254326 0.883943 0.609248 0.289936
H52   H     H_    0.644280 0.702650 0.354199 0.264043
H53   H     H_    0.338834 0.292909 0.967034 0.182832
H54   H     H_    0.158135 0.327935 0.941743 0.174990
H55   H     H_    0.793846 0.890204 0.103569 0.316045
H56   H     H_    0.927400 0.581951 0.666304 0.066003
H57   H     H_    0.145879 0.702146 0.770694 0.141498
H58   H     H_    0.076022 0.600145 0.785293 0.051347
H59   H     H_    0.932708 0.676862 0.776768 0.128846
N1    N     N_2   0.815022 0.994016 0.505065 -0.182318
N2    N     N_2   0.963922 0.013506 0.513657 -0.208484
N3    N     N_3   0.384591 0.304417 0.745523 -0.506707
N4    N     N_3   0.385961 0.085807 0.768529 -0.495018
N5    N     N_3   0.283883 0.336671 0.938145 -0.491748
O1    O     O_2   0.121950 0.695970 0.534170 -0.427322
O2    O     O_2   0.748781 0.434787 0.748682 -0.487517
O3    O     O_3   0.851026 0.286257 0.735429 -0.593674
O4    O     O_3   0.871970 0.595810 0.535570 -0.497782
O5    O     O_3   0.435500 0.459820 0.416880 -0.497845
O6    O     O_2   0.630010 0.537400 0.669530 -0.460424
O7    O     O_3   0.464288 0.667959 0.695604 -0.640479
O8    O     O_2   0.543014 0.210128 0.534476 -0.453123
O9    O     O_3   0.509258 0.212848 0.668149 -0.568088
O10   O     O_3   0.356610 0.647930 0.408330 -0.511469
O11   O     O_2   0.222162 0.788280 0.439081 -0.451523
O12   O     O_3   0.335825 0.332241 0.322020 -0.614322
O13   O     O_3   0.977347 0.701896 0.647109 -0.633512
O14   O     O_3   0.378334 0.779029 0.323763 -0.587084
O15   O     O_2   0.180290 0.462550 0.330450 -0.455821
O16   O     O_3   0.940700 0.607800 0.373310 -0.451805
O17   O     O_2   0.028094 0.540431 0.248681 -0.493142
O18   O     O_2   0.148484 0.197478 0.249320 -0.536055
O19   O     O_R   0.035531 0.110965 0.318914 -0.705415
O20   O     O_2   0.720718 0.080985 0.646163 -0.585804
O21   O     O_R   0.768631 0.049263 0.759133 -0.746219
O22   O     O_2   0.990585 0.921108 0.637398 -0.600560
O23   O     O_3   0.962462 0.691585 0.238736 -0.621367
O24   O     O_R   0.170019 0.858429 0.571019 -0.724876
O25   O     O_2   0.694502 0.813581 0.277974 -0.577853
O26   O     O_R   0.755592 0.729646 0.362258 -0.787784
O27   O     O_2   0.986372 0.790205 0.127080 -0.594366
O28   O     O_R   0.832341 0.896049 0.155670 -0.699317
O29   O     O_2   0.688350 0.303980 0.465810 -0.456890
O30   O     O_3   0.938330 0.404180 0.464370 -0.500105
O31   O     O_3   0.453690 0.352060 0.591610 -0.473203
O32   O     O_3   0.838055 0.294036 0.353157 -0.612252
O33   O     O_3   0.374800 0.540170 0.583060 -0.483108
O34   O     O_3   0.869600 0.392190 0.626640 -0.484927
P1    P     P_3+3 0.950430 0.683250 0.555020 1.031707
P2    P     P_3+3 0.353690 0.438260 0.341200 0.994515
P3    P     P_3+3 0.912778 0.601759 0.279309 0.963900
P4    P     P_3+3 0.859870 0.316740 0.444930 0.998188
P5    P     P_3+3 0.887745 0.388173 0.718115 0.972437
P6    P     P_3+3 0.377773 0.754360 0.411840 0.984450
P7    P     P_3+3 0.450680 0.562762 0.671767 0.950751
P8    P     P_3+3 0.429003 0.244964 0.587893 0.985239

loop_
_geom_bond_atom_site_label_1
_geom_bond_atom_site_label_2
_ccdc_geom_bond_type
C42   O19   S    
Ba2   O33   S    
Ba2   P4    S    
C2    C51   A    
C1    H15   S    
C49   H21   S    
C37   H34   S    
Ba1   O15   S    
C27   H36   S    
C34   H14   S    
C5    C6    A    
O9    P8    S    
C19   C29   S    
C24   C25   A    
C15   C21   A    
C4    C46   S    
C26   C27   A    
C33   C35   A    
C22   C24   A    
Ba1   Ba2   S    
C26   N5    S    
C38   H45   S    
C34   H13   S    
C4    H25   S    
Ba2   O31   S    
C13   C14   A    
C47   O27   D    
C36   H39   S    
O3    P5    S    
Ba1   P1    S    
C32   C33   A    
C23   H10   S    
O14   P6    S    
C48   H19   S    
Ba1   O5    S    
C14   H28   S    
C28   H43   S    
C41   H5    S    
C40   H3    S    
C30   H37   S    
O29   P4    D    
C10   C14   A    
C6    C7    A    
C39   H59   S    
O7    P7    S    
Ba2   O5    S    
C20   H38   S    
H46   O21   S    
C45   C48   S    
O30   P4    S    
O10   P6    S    
C41   H6    S    
C23   H9    S    
C50   H22   S    
C16   H16   S    
C1    H8    S    
C19   C20   A    
C37   H12   S    
C37   H23   S    
H47   N3    S    
Ba1   O16   S    
O11   P6    D    
C44   O24   S    
C10   N2    S    
C12   O14   S    
C50   N4    S    
C2    P1    S    
C4    C16   S    
C31   P5    S    
C46   O25   D    
C49   C50   S    
H48   N3    S    
C48   H20   S    
C3    C5    A    
C28   O32   S    
Ba2   O30   S    
Ba2   O6    S    
C49   N3    S    
O16   P3    S    
C46   O26   S    
C51   H29   S    
O31   P8    S    
O1    P1    D    
C41   C42   S    
C45   H17   S    
C13   P8    S    
C28   H42   S    
C40   H2    S    
C7    P6    S    
C8    H26   S    
H51   O24   S    
C43   O20   D    
O15   P2    D    
C47   O28   S    
Ba1   O33   S    
C30   C35   A    
Ba1   P2    S    
C45   H18   S    
C1    C12   S    
C8    C10   A    
C32   P7    S    
C45   O3    S    
C12   H1    S    
C39   H57   S    
C11   C13   A    
H53   N5    S    
O13   P1    S    
C16   H41   S    
O5    P2    S    
Ba1   O30   S    
C7    C51   A    
C40   C41   S    
C50   H24   S    
C1    H4    S    
N1    N2    D    
Ba2   O4    S    
Ba2   O34   S    
C38   O13   S    
C38   C39   S    
O33   P7    S    
C32   C36   A    
C49   O9    S    
Ba1   O10   S    
C2    C3    A    
H55   O28   S    
H52   O26   S    
C33   H31   S    
O8    P8    D    
C38   H56   S    
O6    P7    D    
C9    P4    S    
Ba2   O29   S    
C12   H7    S    
C3    C44   S    
C11   H30   S    
C31   C36   A    
O4    P1    S    
C30   C31   A    
C5    N1    S    
C17   C18   A    
H50   N4    S    
O32   P4    S    
C22   C29   A    
C27   C29   A    
O12   P2    S    
C9    C11   A    
O17   P3    D    
C43   C48   S    
C42   O18   D    
C24   H32   S    
C17   P2    S    
C18   H35   S    
C43   O21   S    
C15   C17   A    
C28   C37   S    
C40   O12   S    
Ba1   O1    S    
C4    O23   S    
C23   O7    S    
Ba1   O4    S    
H49   N4    S    
C8    C9    A    
C23   C34   S    
O2    P5    D    
O34   P5    S    
C15   H40   S    
C18   C19   A    
C39   H58   S    
C21   P3    S    
C25   C26   A    
C6    H27   S    
C20   C21   A    
H44   O19   S    
C34   H11   S    
C22   H33   S    
H54   N5    S    
C25   C35   S    
C16   C47   S    
O23   P3    S    
C44   O22   D    
