data_mof_unit_6359.cif
_audit_creation_date              2012-10-26T18:50:23-0400
_audit_creation_method            fapswitch 2.2
_symmetry_space_group_name_H-M    P1
_symmetry_Int_Tables_number       1
_space_group_crystal_system       triclinic
_cell_length_a                    9.581656
_cell_length_b                    10.864671
_cell_length_c                    15.489428
_cell_angle_alpha                 87.715862
_cell_angle_beta                  74.245537
_cell_angle_gamma                 90.466805
_cell_volume                      1550.36456877

loop_
_atom_site_label
_atom_site_type_symbol
_atom_type_description
_atom_site_fract_x
_atom_site_fract_y
_atom_site_fract_z
_atom_type_partial_charge
C1    C     C_R   0.003374 0.263147 0.492752 0.551277
C2    C     C_R   0.234190 0.574114 0.045286 0.049624
C3    C     C_R   0.331687 0.532088 0.093897 0.032958
C4    C     C_R   0.918136 0.499852 0.672106 0.552245
C5    C     C_R   0.087000 0.589163 0.089225 -0.145199
C6    C     C_R   0.034564 0.561651 0.181014 -0.146650
C7    C     C_R   0.274758 0.500371 0.185655 -0.136245
C8    C     C_R   0.279899 0.123717 0.437750 -0.094726
C9    C     C_R   0.405182 0.066380 0.446333 -0.131047
C10   C     C_R   0.394828 0.951576 0.490397 -0.126355
C11   C     C_R   0.261541 0.888860 0.517458 -0.099375
C12   C     C_R   0.677432 0.520126 0.908514 0.033120
C13   C     C_R   0.135604 0.940156 0.499886 0.024511
C14   C     C_R   0.141727 0.065987 0.473177 0.026403
C15   C     C_R   0.009451 0.129431 0.484326 -0.009333
C16   C     C_R   0.999669 0.737681 0.504599 0.536796
C17   C     C_R   0.878805 0.062834 0.499711 -0.162107
C18   C     C_R   0.877342 0.935663 0.507222 -0.163455
C19   C     C_R   0.004059 0.872476 0.507641 -0.008204
C20   C     C_R   0.699186 0.661560 0.379360 -0.102711
C21   C     C_R   0.653994 0.740607 0.320161 -0.184780
C22   C     C_R   0.510088 0.741661 0.320545 -0.167407
C23   C     C_R   0.777615 0.490509 0.958448 0.049530
C24   C     C_R   0.410566 0.663643 0.380100 -0.092185
C25   C     C_R   0.451977 0.580228 0.441008 0.145378
C26   C     C_R   0.601728 0.579720 0.440816 0.151828
C27   C     C_R   0.548623 0.423660 0.556005 -0.011950
C28   C     C_R   0.081990 0.502647 0.327926 0.531907
C29   C     C_R   0.400646 0.423635 0.555940 -0.014200
C30   C     C_R   0.872950 0.500216 0.770605 -0.002929
C31   C     C_R   0.128801 0.518126 0.229731 -0.002910
C32   C     C_R   0.923573 0.469911 0.914466 -0.142057
C33   C     C_R   0.971323 0.475955 0.821118 -0.139136
C34   C     C_R   0.529788 0.542058 0.954231 0.032982
C35   C     C_R   0.727704 0.522228 0.814321 -0.135204
C36   C     C_R   0.481974 0.522142 0.049192 0.032365
C37   C     C_R   0.586369 0.495552 0.096455 -0.139453
C38   C     C_R   0.731175 0.480602 0.051717 -0.139447
C39   C     C_R   0.428916 0.584869 0.908447 -0.140573
C40   C     C_R   0.284441 0.601465 0.953484 -0.140014
Cu1   Cu    Cu3+1 0.140660 0.499990 0.500010 0.904734
Cu2   Cu    Cu3+1 0.859340 0.500010 0.499990 0.917470
H1    H     H_    0.806992 0.459129 0.090612 0.111821
H2    H     H_    0.811726 0.668720 0.373764 0.184665
H3    H     H_    0.731439 0.801900 0.273889 0.122357
H4    H     H_    0.341570 0.460521 0.224746 0.120746
H5    H     H_    0.474739 0.804156 0.274823 0.130480
H6    H     H_    0.302773 0.674110 0.375658 0.190021
H7    H     H_    0.324521 0.361039 0.601736 0.120337
H8    H     H_    0.921488 0.577018 0.213996 0.123284
H9    H     H_    0.211148 0.635080 0.915846 0.110233
H10   H     H_    0.000475 0.447129 0.952293 0.113839
H11   H     H_    0.084116 0.458454 0.788599 0.126053
H12   H     H_    0.012853 0.624122 0.052738 0.110814
H13   H     H_    0.654837 0.537073 0.773122 0.121682
H14   H     H_    0.560750 0.488718 0.168642 0.110627
H15   H     H_    0.458704 0.610305 0.837834 0.103544
H16   H     H_    0.776876 0.108966 0.506171 0.134272
H17   H     H_    0.293278 0.212174 0.401723 0.144776
H18   H     H_    0.509688 0.112728 0.421225 0.112315
H19   H     H_    0.490677 0.909753 0.502038 0.115344
H20   H     H_    0.259447 0.802888 0.555028 0.152007
H21   H     H_    0.775463 0.886879 0.514429 0.136253
H22   H     H_    0.583195 0.361059 0.601877 0.117286
N1    N     N_R   0.648320 0.501210 0.499140 -0.243848
N2    N     N_R   0.352470 0.501290 0.499110 -0.249861
O1    O     O_R   0.118810 0.319640 0.500010 -0.507309
O2    O     O_R   0.881240 0.319660 0.500000 -0.500773
O3    O     O_R   0.055570 0.499980 0.629840 -0.500155
O4    O     O_R   0.818000 0.500010 0.629830 -0.503618
O5    O     O_R   0.118760 0.680340 0.500000 -0.534217
O6    O     O_R   0.881190 0.680360 0.499990 -0.521692
O7    O     O_R   0.182000 0.499990 0.370170 -0.529126
O8    O     O_R   0.944430 0.500020 0.370160 -0.517635

loop_
_geom_bond_atom_site_label_1
_geom_bond_atom_site_label_2
_ccdc_geom_bond_type
C27   C29   A    
Cu1   Cu2   S    
C16   O6    A    
C11   H20   S    
C28   O8    A    
C4    O4    A    
Cu1   O1    S    
C29   H7    S    
C12   C23   A    
C30   C35   A    
C36   C37   A    
C3    C7    A    
C8    H17   S    
C5    C6    A    
C18   H21   S    
C39   H15   S    
Cu2   O4    S    
C1    O2    A    
C18   C19   A    
C32   H10   S    
C37   H14   S    
C8    C9    A    
Cu2   N1    S    
C1    C15   S    
C9    C10   A    
C17   H16   S    
Cu1   O5    S    
C6    C31   A    
C13   C14   A    
Cu2   O2    S    
C16   O5    A    
C28   O7    A    
C4    O3    A    
C20   H2    S    
C21   H3    S    
C33   H11   S    
Cu2   O8    S    
C7    C31   A    
C13   C19   A    
C35   H13   S    
C34   C39   A    
C24   H6    S    
C7    H4    S    
C5    H12   S    
C24   C25   A    
C27   H22   S    
C39   C40   A    
C25   C26   A    
C37   C38   A    
C27   N1    A    
Cu2   O6    S    
C17   C18   A    
C6    H8    S    
C12   C35   A    
C22   C24   A    
C2    C5    A    
C12   C34   A    
C23   C38   A    
Cu1   O3    S    
C15   C17   A    
C8    C14   A    
C30   C33   A    
C26   N1    A    
C28   C31   S    
C25   N2    A    
Cu1   N2    S    
C40   H9    S    
C9    H18   S    
C23   C32   A    
C2    C3    A    
C38   H1    S    
C32   C33   A    
C11   C13   A    
C20   C26   A    
C3    C36   A    
C16   C19   S    
C1    O1    A    
C22   H5    S    
C34   C36   A    
C10   C11   A    
Cu1   O7    S    
C29   N2    A    
C10   H19   S    
C2    C40   A    
C20   C21   A    
C14   C15   A    
C21   C22   A    
C4    C30   S    
