data_mof_unit_43243.cif
_audit_creation_date              2013-03-05T15:39:48-0500
_audit_creation_method            fapswitch 2.2
_symmetry_space_group_name_H-M    P1
_symmetry_Int_Tables_number       1
_space_group_crystal_system       triclinic
_cell_length_a                    11.968921
_cell_length_b                    12.610537
_cell_length_c                    7.57229
_cell_angle_alpha                 89.267081
_cell_angle_beta                  109.052619
_cell_angle_gamma                 90.120095
_cell_volume                      1080.21887598

loop_
_atom_site_label
_atom_site_type_symbol
_atom_site_description
_atom_site_fract_x
_atom_site_fract_y
_atom_site_fract_z
_atom_type_partial_charge
O1    O     O_R   0.398880 0.887420 0.621600 -0.594686
O2    O     O_R   0.601120 0.112580 0.378400 -0.594685
O3    O     O_R   0.601120 0.887420 0.378400 -0.588458
O4    O     O_R   0.398880 0.112580 0.621600 -0.588459
O5    O     O_R   0.898880 0.387420 0.621600 -0.594685
O6    O     O_R   0.101120 0.612580 0.378400 -0.594685
O7    O     O_R   0.101120 0.387420 0.378400 -0.588457
O8    O     O_R   0.898880 0.612580 0.621600 -0.588457
O9    O     O_R   0.369080 0.887420 0.305440 -0.596759
O10   O     O_R   0.630920 0.112580 0.694560 -0.596758
O11   O     O_R   0.630920 0.887420 0.694560 -0.586733
O12   O     O_R   0.369080 0.112580 0.305440 -0.586733
O13   O     O_R   0.869080 0.387420 0.305440 -0.596760
O14   O     O_R   0.130920 0.612580 0.694560 -0.596760
O15   O     O_R   0.130920 0.387420 0.694560 -0.586732
O16   O     O_R   0.869080 0.612580 0.305440 -0.586733
C1    C     C_R   0.346398 0.853768 0.452832 0.871287
C2    C     C_R   0.653602 0.146232 0.547168 0.871287
C3    C     C_R   0.652566 0.852396 0.547870 0.865443
C4    C     C_R   0.347434 0.147604 0.452130 0.865444
C5    C     C_R   0.846398 0.353768 0.452832 0.871288
C6    C     C_R   0.153602 0.646232 0.547168 0.871286
C7    C     C_R   0.152566 0.352396 0.547870 0.865443
C8    C     C_R   0.847434 0.647604 0.452130 0.865444
Cu1   Cu    Cu3+1 0.517640 0.000000 0.687200 0.936604
Cu2   Cu    Cu3+1 0.482360 0.000000 0.312800 0.936604
Cu3   Cu    Cu3+1 0.017640 0.500000 0.687200 0.936604
Cu4   Cu    Cu3+1 0.982360 0.500000 0.312800 0.936604
C9    C     C_2   0.262094 0.230940 0.426379 -0.370957
C10   C     C_2   0.737906 0.769060 0.573621 -0.370957
C11   C     C_2   0.744063 0.224150 0.573316 -0.372394
C12   C     C_2   0.255937 0.775850 0.426683 -0.372393
C13   C     C_2   0.762094 0.730940 0.426379 -0.370957
C14   C     C_2   0.237906 0.269060 0.573621 -0.370957
C15   C     C_2   0.244063 0.724150 0.573317 -0.372393
C16   C     C_2   0.755937 0.275849 0.426683 -0.372394
H1    H     H_    0.719099 0.761114 0.285305 0.180303
H2    H     H_    0.280901 0.238886 0.714695 0.180303
H3    H     H_    0.302888 0.737090 0.714211 0.162873
H4    H     H_    0.697113 0.262910 0.285789 0.162875
H5    H     H_    0.219099 0.261114 0.285305 0.180303
H6    H     H_    0.780901 0.738886 0.714695 0.180303
H7    H     H_    0.802887 0.237089 0.714210 0.162874
H8    H     H_    0.197112 0.762911 0.285789 0.162873
N1    N     N_2   0.455760 0.000000 0.031460 -0.056365
N2    N     N_2   0.544240 1.000000 0.968540 -0.056366
N3    N     N_2   0.955760 0.500000 0.031460 -0.056366
N4    N     N_2   0.044240 0.500000 0.968540 -0.056366
C17   C     C_3   0.341869 0.961849 0.917770 -0.359888
H9    H     H_    0.308451 0.003087 0.781871 0.187587
H10   H     H_    0.344851 0.874706 0.906799 0.166299
H11   H     H_    0.276644 0.979678 0.988897 0.155847
C18   C     C_3   0.658131 0.038150 0.082230 -0.359893
H12   H     H_    0.691550 0.996913 0.218129 0.187586
H13   H     H_    0.723354 0.020319 0.011105 0.155847
H14   H     H_    0.655151 0.125291 0.093200 0.166299
C19   C     C_3   0.841870 0.461848 0.917771 -0.359893
H15   H     H_    0.808449 0.503087 0.781874 0.187584
H16   H     H_    0.844854 0.374708 0.906796 0.166301
H17   H     H_    0.776647 0.479674 0.988898 0.155849
C20   C     C_3   0.158130 0.538152 0.082229 -0.359892
H18   H     H_    0.191551 0.496913 0.218126 0.187583
H19   H     H_    0.223353 0.520326 0.011102 0.155849
H20   H     H_    0.155146 0.625292 0.093204 0.166301

loop_
_geom_bond_atom_site_label_1
_geom_bond_atom_site_label_2
_geom_bond_distance
_ccdc_geom_bond_type
Cu3   N4    2.048683 S    
O16   Cu4   1.952858 S    
C20   H20   1.104617 S    
C15   H3    1.083582 S    
O13   Cu4   1.949761 S    
O3    C3    1.300685 A    
O14   Cu3   1.949759 S    
N3    C19   1.439598 S    
O15   Cu3   1.952858 S    
C8    C13   1.433518 S    
Cu2   N1    2.048682 S    
N1    C17   1.439603 S    
C7    C14   1.433518 S    
O12   C4    1.302664 A    
O15   C7    1.302665 A    
O4    Cu1   1.952481 S    
C12   H8    1.083581 S    
O13   C5    1.297947 A    
Cu4   N3    2.048682 S    
C5    C16   1.427426 S    
O5    Cu3   1.957383 S    
C18   H12   1.099016 S    
O1    Cu1   1.957383 S    
C6    C15   1.427425 S    
O11   C3    1.302665 A    
C19   H15   1.099018 S    
C20   H18   1.099019 S    
C11   H7    1.083579 S    
O10   C2    1.297948 A    
O7    C7    1.300685 A    
C9    C14   1.335317 D    
O10   Cu1   1.949759 S    
O9    C1    1.297947 A    
O8    C8    1.300685 A    
O9    Cu2   1.949761 S    
C4    C9    1.433518 S    
C18   H13   1.108321 S    
O14   C6    1.297949 A    
C1    C12   1.427425 S    
O6    Cu4   1.957381 S    
C19   H16   1.104616 S    
O2    C2    1.302502 A    
O11   Cu1   1.952858 S    
O6    C6    1.302503 A    
C12   C15   1.327489 D    
N1    N2    1.295345 D    
C16   H4    1.083579 S    
O5    C5    1.302502 A    
N2    C18   1.439598 S    
O16   C8    1.302664 A    
C17   H9    1.099028 S    
C18   H14   1.104617 S    
N4    C20   1.439597 S    
Cu3   Cu4   2.726595 S    
C20   H19   1.108322 S    
O8    Cu3   1.952481 S    
C11   C16   1.327488 D    
C10   H6    1.087329 S    
C19   H17   1.108320 S    
C2    C11   1.427425 S    
C10   C13   1.335317 D    
C9    H5    1.087329 S    
Cu1   Cu2   2.726595 S    
C14   H2    1.087329 S    
C3    C10   1.433518 S    
O1    C1    1.302502 A    
Cu1   N2    2.048683 S    
O3    Cu2   1.952481 S    
C13   H1    1.087329 S    
O7    Cu4   1.952481 S    
N3    N4    1.295345 D    
C17   H11   1.108343 S    
O12   Cu2   1.952858 S    
O2    Cu2   1.957381 S    
C17   H10   1.104638 S    
O4    C4    1.300685 A    
