data_mof_unit_17008.cif
_audit_creation_date              2012-12-10T17:43:22-0500
_audit_creation_method            fapswitch 2.2
_symmetry_space_group_name_H-M    P1
_symmetry_Int_Tables_number       1
_space_group_crystal_system       triclinic
_cell_length_a                    15.267765
_cell_length_b                    13.776499
_cell_length_c                    10.892909
_cell_angle_alpha                 89.508261
_cell_angle_beta                  81.380958
_cell_angle_gamma                 90.703527
_cell_volume                      2265.00298066

loop_
_atom_site_label
_atom_site_type_symbol
_atom_type_description
_atom_site_fract_x
_atom_site_fract_y
_atom_site_fract_z
_atom_type_partial_charge
C1    C     C_R   0.328371 0.499459 0.502722 0.870618
C2    C     C_R   0.671575 0.500447 0.496315 0.863739
C3    C     C_R   0.953476 0.495478 0.495964 -0.043979
C4    C     C_R   0.046586 0.495294 0.497421 -0.046414
C5    C     C_R   0.921010 0.517556 0.384437 -0.009492
C6    C     C_R   0.078858 0.476571 0.609829 -0.012808
C7    C     C_R   0.927736 0.447788 0.714917 0.154410
C8    C     C_R   0.072985 0.536981 0.276731 0.155418
C9    C     C_R   0.018504 0.450372 0.715616 -0.136003
C10   C     C_R   0.982092 0.538667 0.277121 -0.137214
C11   C     C_R   0.421609 0.795955 0.518609 0.522088
C12   C     C_R   0.578359 0.204180 0.479351 0.501518
C13   C     C_R   0.578080 0.798756 0.487340 0.521373
C14   C     C_R   0.421826 0.201315 0.513590 0.542467
C15   C     C_R   0.574728 0.898411 0.522383 -0.204860
C16   C     C_R   0.425169 0.101828 0.477878 -0.222597
C17   C     C_R   0.423861 0.896148 0.482369 -0.208797
C18   C     C_R   0.576511 0.104155 0.516071 -0.199386
C19   C     C_R   0.499758 0.949071 0.500659 -0.046602
C20   C     C_R   0.500303 0.051169 0.499080 -0.053512
C21   C     C_R   0.645704 0.950026 0.564681 0.368952
C22   C     C_R   0.354513 0.050471 0.434407 0.367851
C23   C     C_R   0.352233 0.945964 0.440083 0.364212
C24   C     C_R   0.648846 0.054394 0.556568 0.359361
C25   C     C_R   0.501185 0.500176 0.259383 0.858792
C26   C     C_R   0.500476 0.499912 0.740336 0.825278
C27   C     C_3   0.479039 0.586636 0.046344 0.066460
C28   C     C_3   0.524309 0.413569 0.952727 0.039570
C29   C     C_3   0.556523 0.567064 0.942567 0.066425
C30   C     C_3   0.446609 0.432709 0.056780 -0.000709
C31   C     C_3   0.418857 0.519777 0.982662 0.145466
C32   C     C_3   0.584086 0.480285 0.017099 0.159924
C33   C     C_3   0.496771 0.500162 0.876612 -0.069448
C34   C     C_3   0.506101 0.500010 0.122958 -0.089507
C35   C     C_R   0.828663 0.517521 0.381566 0.387599
C36   C     C_R   0.170417 0.485004 0.615203 0.411110
C37   C     C_R   0.768783 0.500284 0.492663 -0.172047
C38   C     C_R   0.231077 0.498658 0.504318 -0.160004
C39   C     C_R   0.801097 0.477996 0.603569 0.111706
C40   C     C_R   0.199236 0.513086 0.391108 0.108595
C41   C     C_R   0.893338 0.473560 0.605868 0.155296
C42   C     C_R   0.107010 0.515240 0.387277 0.157418
Cu1   Cu    Cu3+1 0.500000 0.597420 0.500000 1.125620
Cu2   Cu    Cu3+1 0.500000 0.402580 0.500000 1.088162
H1    H     H_    0.040036 0.429915 0.801900 0.218060
H2    H     H_    0.961515 0.557725 0.189823 0.218532
N1    N     N_R   0.500000 0.743810 0.500000 -0.298885
N2    N     N_R   0.500000 0.256190 0.500000 -0.301149
O1    O     O_R   0.370260 0.582280 0.500030 -0.532324
O2    O     O_R   0.629740 0.417720 0.499970 -0.561251
O3    O     O_R   0.629740 0.582280 0.499970 -0.510106
O4    O     O_R   0.370260 0.417720 0.500030 -0.543872
O5    O     O_R   0.499980 0.582260 0.316850 -0.555415
O6    O     O_R   0.500020 0.417740 0.683150 -0.559915
O7    O     O_R   0.500020 0.582260 0.683150 -0.521051
O8    O     O_R   0.499980 0.417740 0.316850 -0.567120
N3    N     N_3   0.327047 0.543413 0.976214 -0.457765
H3    H     H_    0.288621 0.480606 0.997589 0.280507
H4    H     H_    0.305610 0.593508 0.045161 0.258897
N4    N     N_3   0.675684 0.458164 0.026629 -0.450481
H5    H     H_    0.716200 0.489167 0.950641 0.275815
H6    H     H_    0.683955 0.383116 0.022085 0.279998
N5    N     N_3   0.455054 0.684088 0.089352 -0.529455
H7    H     H_    0.407589 0.677804 0.168537 0.244452
H8    H     H_    0.510980 0.716834 0.116355 0.265206
N6    N     N_3   0.550446 0.318135 0.904452 -0.530684
H9    H     H_    0.566708 0.276535 0.978200 0.245105
H10   H     H_    0.494701 0.284747 0.877937 0.272612
N7    N     N_3   0.616428 0.642493 0.883171 -0.539922
H11   H     H_    0.648275 0.673836 0.951822 0.260368
H12   H     H_    0.577616 0.696416 0.851259 0.292860
N8    N     N_3   0.387178 0.356430 0.115151 -0.556270
H13   H     H_    0.358241 0.322704 0.045335 0.237938
H14   H     H_    0.425910 0.304296 0.150780 0.263213
S1    S     S_3+6 0.790437 0.531432 0.236481 0.045776
O9    O     O_2   0.816087 0.630180 0.182087 -0.228561
O10   O     O_2   0.832492 0.455588 0.149005 -0.305703
O11   O     O_3   0.681154 0.518584 0.250955 -0.496667
H15   H     H_    0.671282 0.447724 0.260071 0.387812
S2    S     S_3+6 0.205874 0.490605 0.762378 0.017706
O12   O     O_2   0.153267 0.565396 0.840393 -0.262519
O13   O     O_2   0.192088 0.393553 0.827277 -0.318645
O14   O     O_3   0.312173 0.522049 0.746958 -0.493917
H16   H     H_    0.340947 0.458836 0.749932 0.368624
N9    N     N_3   0.739436 0.462546 0.715243 -0.546342
H17   H     H_    0.700115 0.523906 0.730408 0.232370
H18   H     H_    0.698802 0.402677 0.704479 0.280394
N10   N     N_3   0.261362 0.526121 0.279705 -0.554072
H19   H     H_    0.299936 0.587829 0.289145 0.238301
H20   H     H_    0.302369 0.465942 0.269701 0.247122
N11   N     N_3   0.871700 0.417749 0.826665 -0.527482
H21   H     H_    0.883456 0.464462 0.897744 0.267849
H22   H     H_    0.889555 0.347731 0.850198 0.256729
N12   N     N_3   0.129588 0.559268 0.162384 -0.531131
H23   H     H_    0.114447 0.628637 0.132710 0.258172
H24   H     H_    0.115904 0.509424 0.095676 0.268141
S3    S     S_3+6 0.339535 0.769227 0.649784 0.124049
O15   O     O_2   0.301058 0.862804 0.702261 -0.245025
O16   O     O_2   0.265050 0.707918 0.615779 -0.182683
O17   O     O_3   0.385288 0.713335 0.761477 -0.483571
H25   H     H_    0.341313 0.718959 0.837661 0.401834
S4    S     S_3+6 0.656865 0.229274 0.343740 0.084751
O18   O     O_2   0.730391 0.295392 0.370351 -0.206768
O19   O     O_2   0.697946 0.136189 0.293805 -0.218736
O20   O     O_3   0.606451 0.278693 0.232194 -0.555220
H26   H     H_    0.562979 0.228736 0.214444 0.336301
S5    S     S_3+6 0.667435 0.773578 0.367591 0.114202
O21   O     O_2   0.704216 0.867835 0.309293 -0.254135
O22   O     O_2   0.741224 0.722263 0.416818 -0.191923
O23   O     O_3   0.631191 0.706783 0.257148 -0.489697
H27   H     H_    0.664843 0.730651 0.177591 0.383438
S6    S     S_3+6 0.333585 0.225419 0.635889 0.090990
O24   O     O_2   0.260296 0.281027 0.591444 -0.209033
O25   O     O_2   0.295181 0.130546 0.690124 -0.248702
O26   O     O_3   0.372223 0.286781 0.748934 -0.569591
H28   H     H_    0.331046 0.270570 0.825729 0.376330
S7    S     S_3+6 0.717798 0.884844 0.649809 0.097069
O27   O     O_2   0.701882 0.917367 0.782501 -0.226897
O28   O     O_2   0.700695 0.777251 0.650867 -0.289311
O29   O     O_3   0.823849 0.907504 0.588247 -0.411038
H29   H     H_    0.859395 0.876887 0.646610 0.392997
S8    S     S_3+6 0.282103 0.116431 0.350434 0.089742
O30   O     O_2   0.187244 0.091017 0.399602 -0.159225
O31   O     O_2   0.295217 0.224356 0.356950 -0.293049
O32   O     O_3   0.304826 0.086802 0.199672 -0.484909
H30   H     H_    0.262820 0.124721 0.158013 0.388793
S9    S     S_3+6 0.263229 0.876637 0.392119 0.102064
O33   O     O_2   0.288768 0.772453 0.371206 -0.328961
O34   O     O_2   0.184446 0.881247 0.492671 -0.172893
O35   O     O_3   0.233553 0.917966 0.259122 -0.434007
H31   H     H_    0.180389 0.879089 0.247926 0.386838
S10   S     S_3+6 0.740873 0.123303 0.596654 0.112962
O36   O     O_2   0.817022 0.115094 0.492651 -0.159684
O37   O     O_2   0.717651 0.228355 0.614364 -0.301833
O38   O     O_3   0.774098 0.084879 0.728676 -0.438341
H32   H     H_    0.828267 0.123595 0.735291 0.384970

loop_
_geom_bond_atom_site_label_1
_geom_bond_atom_site_label_2
_ccdc_geom_bond_type
N6    H10   S    
N5    H8    S    
C9    H1    S    
C27   C29   S    
C11   N1    A    
C19   C20   A    
C25   O8    A    
C13   S5    S    
C26   O7    A    
C6    C9    A    
S6    O25   D    
S3    O15   D    
O38   H32   S    
C39   C41   A    
N9    H17   S    
C15   C19   A    
C35   S1    S    
C17   C23   A    
C18   C24   A    
C35   C37   A    
C8    C42   A    
C29   C32   S    
C1    O4    A    
S7    O28   D    
C30   C31   S    
S2    O12   D    
N3    H4    S    
Cu2   O2    S    
O26   H28   S    
C29   C33   S    
S4    O20   S    
N4    H6    S    
N7    H12   S    
Cu2   O8    S    
O23   H27   S    
C21   S7    S    
C2    O2    A    
Cu1   O5    S    
C3    C41   A    
S10   O36   D    
C1    O1    A    
C10   H2    S    
S5    O21   D    
C31   C33   S    
C12   N2    A    
C25   C34   S    
N12   H24   S    
Cu2   O4    S    
C40   C42   A    
N6    H9    S    
C14   S6    S    
S5    O22   D    
N12   H23   S    
S2    O14   S    
C26   O6    A    
S6    O24   D    
S3    O16   D    
C22   S8    S    
C29   N7    S    
N9    H18   S    
C27   C34   S    
C30   C34   S    
C27   C31   S    
S4    O18   D    
C28   C32   S    
C8    N12   S    
S2    O13   D    
C36   S2    S    
S7    O29   S    
N11   H21   S    
C13   N1    A    
O11   H15   S    
Cu1   O1    S    
C14   N2    A    
N4    H5    S    
C32   C34   S    
C28   N6    S    
S1    O9    D    
S9    O34   D    
C12   S4    S    
N11   H22   S    
C24   S10   S    
C26   C33   S    
O14   H16   S    
C16   C20   A    
C7    N11   S    
S4    O19   D    
S1    O10   D    
C27   N5    S    
C1    C38   S    
S10   O37   D    
N8    H14   S    
N10   H20   S    
C28   C33   S    
C13   C15   A    
Cu1   Cu2   S    
O32   H30   S    
S5    O23   S    
C14   C16   A    
C4    C6    A    
C39   N9    S    
S8    O31   D    
C3    C4    A    
S3    O17   S    
O29   H29   S    
C23   S9    S    
Cu1   O7    S    
C7    C9    A    
C11   C17   A    
C16   C22   A    
C25   O5    A    
N8    H13   S    
C3    C5    A    
C30   N8    S    
O20   H26   S    
C11   S3    S    
C31   N3    S    
S8    O32   S    
C28   C30   S    
O35   H31   S    
S9    O35   S    
C5    C10   A    
C37   C39   A    
Cu2   N2    S    
S7    O27   D    
C38   C40   A    
C2    C37   S    
Cu1   O3    S    
N3    H3    S    
C4    C42   A    
S10   O38   S    
C5    C35   A    
C36   C38   A    
O17   H25   S    
C17   C19   A    
C6    C36   A    
C18   C20   A    
C7    C41   A    
N7    H11   S    
S1    O11   S    
C2    O3    A    
N5    H7    S    
Cu2   O6    S    
C15   C21   A    
N10   H19   S    
C8    C10   A    
C21   C24   A    
C12   C18   A    
C32   N4    S    
C22   C23   A    
S8    O30   D    
Cu1   N1    S    
S6    O26   S    
C40   N10   S    
S9    O33   D    
