data_mof_unit_59598.cif
_audit_creation_date              2012-10-26T20:02:26-0400
_audit_creation_method            fapswitch 2.2
_symmetry_space_group_name_H-M    P1
_symmetry_Int_Tables_number       1
_space_group_crystal_system       triclinic
_cell_length_a                    18.928905
_cell_length_b                    18.440653
_cell_length_c                    12.361876
_cell_angle_alpha                 90.172658
_cell_angle_beta                  129.264284
_cell_angle_gamma                 89.850153
_cell_volume                      3340.84827256

loop_
_atom_site_label
_atom_site_type_symbol
_atom_type_description
_atom_site_fract_x
_atom_site_fract_y
_atom_site_fract_z
_atom_type_partial_charge
C1    C     C_R   0.613370 0.898496 0.653859 0.557252
C2    C     C_R   0.660161 0.722809 0.014934 0.052845
C3    C     C_3   0.332954 0.307912 0.453898 -0.482057
C4    C     C_R   0.157550 0.784771 0.002914 0.053369
C5    C     C_R   0.160165 0.222810 0.014935 0.052845
C6    C     C_R   0.580847 0.253665 0.881221 -0.135533
C7    C     C_R   0.582927 0.755081 0.895828 -0.135388
C8    C     C_R   0.080862 0.753665 0.881221 -0.135522
C9    C     C_R   0.082931 0.255079 0.895824 -0.135378
C10   C     C_R   0.588979 0.214036 0.794215 -0.122641
C11   C     C_R   0.588260 0.790454 0.802397 -0.122753
C12   C     C_R   0.088998 0.714037 0.794219 -0.122636
C13   C     C_R   0.614418 0.100546 0.655329 0.557191
C14   C     C_R   0.088265 0.290453 0.802396 -0.122752
C15   C     C_R   0.319391 0.810306 0.159296 -0.133745
C16   C     C_R   0.319140 0.188493 0.156899 -0.134835
C17   C     C_R   0.819376 0.310320 0.159265 -0.133741
C18   C     C_R   0.819133 0.688486 0.156886 -0.134835
C19   C     C_R   0.223313 0.860358 0.206924 -0.144002
C20   C     C_R   0.229013 0.150357 0.223061 -0.145598
C21   C     C_R   0.723310 0.360359 0.206927 -0.143996
C22   C     C_R   0.729014 0.650359 0.223067 -0.145599
C23   C     C_R   0.684892 0.155176 0.748191 -0.003250
C24   C     C_R   0.113372 0.398497 0.653861 0.557249
C25   C     C_R   0.680778 0.840997 0.742569 -0.004185
C26   C     C_R   0.184914 0.655153 0.748225 -0.003251
C27   C     C_R   0.180786 0.341003 0.742579 -0.004188
C28   C     C_R   0.685436 0.000205 0.287011 -0.165958
C29   C     C_R   0.185436 0.500205 0.287010 -0.165953
C30   C     C_R   0.342959 0.999947 0.626898 0.041979
C31   C     C_R   0.842959 0.499946 0.626898 0.041979
C32   C     C_R   0.308192 0.000029 0.698126 -0.164216
C33   C     C_R   0.808192 0.500028 0.698126 -0.164217
C34   C     C_R   0.384220 0.099003 0.342913 0.536531
C35   C     C_R   0.114423 0.600541 0.655335 0.557187
C36   C     C_R   0.383580 0.901782 0.341789 0.537478
C37   C     C_R   0.884220 0.599002 0.342912 0.536533
C38   C     C_R   0.883579 0.401782 0.341787 0.537474
C39   C     C_R   0.367142 0.000164 0.843854 -0.136159
C40   C     C_R   0.867142 0.500163 0.843854 -0.136162
C41   C     C_R   0.462415 0.000222 0.921054 -0.006878
C42   C     C_R   0.962415 0.500221 0.921054 -0.006881
C43   C     C_R   0.494990 0.000164 0.843075 0.179897
C44   C     C_R   0.994991 0.500164 0.843075 0.179899
C45   C     C_R   0.526440 0.000278 0.072044 -0.014082
C46   C     C_R   0.244192 0.777488 0.036486 0.041839
C47   C     C_R   0.026440 0.500278 0.072044 -0.014087
C48   C     C_R   0.621088 0.000336 0.140713 0.037232
C49   C     C_R   0.121088 0.500337 0.140713 0.037234
C50   C     C_R   0.651338 0.000409 0.063329 -0.168293
C51   C     C_R   0.151337 0.500409 0.063328 -0.168289
C52   C     C_R   0.589939 0.000290 0.918368 -0.089344
C53   C     C_R   0.089939 0.500290 0.918368 -0.089342
C54   C     C_R   0.501432 0.000272 0.159242 0.033509
C55   C     C_R   0.001432 0.500272 0.159242 0.033506
C56   C     C_R   0.656477 0.999591 0.366015 0.023513
C57   C     C_R   0.243671 0.223229 0.037603 0.041027
C58   C     C_R   0.156477 0.499591 0.366014 0.023512
C59   C     C_R   0.648103 0.325126 0.089527 -0.139407
C60   C     C_R   0.654136 0.687883 0.109577 -0.137880
C61   C     C_R   0.148110 0.825124 0.089523 -0.139419
C62   C     C_R   0.154135 0.187879 0.109570 -0.137881
C63   C     C_R   0.308623 0.853946 0.239874 -0.003126
C64   C     C_R   0.310853 0.149058 0.244120 -0.006040
C65   C     C_R   0.808617 0.353950 0.239864 -0.003137
C66   C     C_R   0.810851 0.649057 0.244117 -0.006043
C67   C     C_R   0.767155 0.155293 0.767801 0.271457
C68   C     C_R   0.744170 0.277514 0.036445 0.041840
C69   C     C_R   0.759258 0.834022 0.752580 0.261780
C70   C     C_R   0.267190 0.655241 0.767876 0.271462
C71   C     C_R   0.259270 0.334035 0.752602 0.261786
C72   C     C_R   0.341791 0.694448 0.878925 -0.125609
C73   C     C_R   0.331370 0.290354 0.856176 -0.123572
C74   C     C_R   0.841740 0.194536 0.878799 -0.125606
C75   C     C_R   0.831351 0.790330 0.856139 -0.123573
C76   C     C_R   0.335203 0.734759 0.966946 -0.172871
C77   C     C_R   0.327184 0.253636 0.949511 -0.173774
C78   C     C_R   0.835152 0.234847 0.966820 -0.172874
C79   C     C_R   0.743663 0.723221 0.037590 0.041026
C80   C     C_R   0.827166 0.753612 0.949474 -0.173773
C81   C     C_R   0.752502 0.238444 0.945747 0.020989
C82   C     C_R   0.748793 0.757797 0.940146 0.020873
C83   C     C_R   0.252534 0.738400 0.945814 0.020992
C84   C     C_R   0.248805 0.257810 0.940166 0.020875
C85   C     C_R   0.674930 0.202105 0.828789 -0.025125
C86   C     C_R   0.672062 0.797071 0.827829 -0.023013
C87   C     C_R   0.174954 0.702085 0.828823 -0.025124
C88   C     C_R   0.172071 0.297076 0.827839 -0.023014
C89   C     C_3   0.794071 0.150679 0.609776 0.007079
C90   C     C_R   0.657535 0.284781 0.002900 0.053368
C91   C     C_3   0.706845 0.187920 0.484534 -0.271767
C92   C     C_3   0.722483 0.224502 0.390962 -0.480489
C93   C     C_3   0.764036 0.830429 0.571420 0.006700
C94   C     C_3   0.838190 0.852577 0.562950 -0.264451
C95   C     C_3   0.832951 0.807914 0.453886 -0.482058
C96   C     C_3   0.294141 0.650640 0.609890 0.007069
C97   C     C_3   0.206947 0.687923 0.484652 -0.271769
C98   C     C_3   0.222645 0.724544 0.391175 -0.480471
C99   C     C_3   0.264047 0.330432 0.571443 0.006698
C100  C     C_3   0.338195 0.352580 0.562959 -0.264452
Cu1   Cu    Cu3+1 0.526340 0.000000 0.421010 0.950763
Cu2   Cu    Cu3+1 0.026340 0.500000 0.421010 0.950780
Cu3   Cu    Cu3+1 0.473640 0.000000 0.578990 0.898868
Cu4   Cu    Cu3+1 0.973640 0.500000 0.578990 0.898878
H1    H     H_    0.214125 0.894837 0.268290 0.117473
H2    H     H_    0.796459 0.499862 0.513880 0.119064
H3    H     H_    0.336434 0.000215 0.893357 0.103817
H4    H     H_    0.836434 0.500214 0.893357 0.103816
H5    H     H_    0.235108 0.999987 0.640017 0.100505
H6    H     H_    0.735108 0.499985 0.640017 0.100505
H7    H     H_    0.514053 0.260263 0.852621 0.094342
H8    H     H_    0.517792 0.752530 0.874037 0.094190
H9    H     H_    0.014064 0.760276 0.852601 0.094342
H10   H     H_    0.017794 0.252522 0.874024 0.094186
H11   H     H_    0.582046 0.331327 0.063911 0.105728
H12   H     H_    0.221804 0.119971 0.290431 0.118038
H13   H     H_    0.590595 0.687345 0.092849 0.101961
H14   H     H_    0.082048 0.831333 0.063889 0.105739
H15   H     H_    0.090592 0.187336 0.092833 0.101983
H16   H     H_    0.387560 0.804779 0.194019 0.110719
H17   H     H_    0.385436 0.189620 0.183758 0.113284
H18   H     H_    0.887545 0.304782 0.193988 0.110718
H19   H     H_    0.885428 0.689611 0.183737 0.113292
H20   H     H_    0.396205 0.763350 0.049014 0.106833
H21   H     H_    0.386015 0.221073 0.025450 0.107851
H22   H     H_    0.896134 0.263480 0.048832 0.106853
H23   H     H_    0.714128 0.394832 0.268306 0.117473
H24   H     H_    0.885989 0.721039 0.025399 0.107860
H25   H     H_    0.406870 0.691686 0.900782 0.105336
H26   H     H_    0.392490 0.286419 0.866569 0.112811
H27   H     H_    0.906811 0.191802 0.900622 0.105323
H28   H     H_    0.892468 0.786388 0.866522 0.112814
H29   H     H_    0.526390 0.194492 0.697622 0.142917
H30   H     H_    0.524909 0.810562 0.707950 0.145954
H31   H     H_    0.026409 0.694506 0.697610 0.142902
H32   H     H_    0.024915 0.310556 0.707944 0.145951
H33   H     H_    0.706027 0.999265 0.478811 0.184800
H34   H     H_    0.721808 0.619979 0.290444 0.118037
H35   H     H_    0.206027 0.499264 0.478811 0.184803
H36   H     H_    0.757931 0.000542 0.340029 0.086505
H37   H     H_    0.257931 0.500543 0.340029 0.086504
H38   H     H_    0.620324 0.000256 0.869484 0.187821
H39   H     H_    0.120324 0.500256 0.869484 0.187818
H40   H     H_    0.817844 0.112132 0.569563 0.142512
H41   H     H_    0.849802 0.191063 0.673835 0.112321
H42   H     H_    0.651514 0.147404 0.421471 0.199278
H43   H     H_    0.684197 0.229516 0.522040 0.148871
H44   H     H_    0.776708 0.266316 0.450552 0.155854
H45   H     H_    0.723779 0.000445 0.115615 0.112145
H46   H     H_    0.658212 0.251033 0.302540 0.151674
H47   H     H_    0.742475 0.183834 0.348191 0.157131
H48   H     H_    0.695998 0.838863 0.467775 0.156724
H49   H     H_    0.771327 0.771103 0.594827 0.109338
H50   H     H_    0.830829 0.910927 0.535875 0.164898
H51   H     H_    0.906250 0.844701 0.666542 0.164543
H52   H     H_    0.842954 0.749453 0.481550 0.153666
H53   H     H_    0.887394 0.825521 0.450090 0.146845
H54   H     H_    0.765723 0.815728 0.348858 0.163002
H55   H     H_    0.317903 0.612088 0.569666 0.142510
H56   H     H_    0.223779 0.500446 0.115615 0.112146
H57   H     H_    0.349896 0.690997 0.673998 0.112333
H58   H     H_    0.151604 0.647422 0.421525 0.199216
H59   H     H_    0.184289 0.729506 0.522161 0.148893
H60   H     H_    0.276903 0.766330 0.450842 0.155839
H61   H     H_    0.158407 0.751118 0.302778 0.151691
H62   H     H_    0.242612 0.683890 0.348351 0.157123
H63   H     H_    0.196006 0.338858 0.467798 0.156723
H64   H     H_    0.271347 0.271108 0.594866 0.109338
H65   H     H_    0.330828 0.410929 0.535873 0.164897
H66   H     H_    0.406257 0.344709 0.666549 0.164550
H67   H     H_    0.430959 0.000420 0.115682 0.123079
H68   H     H_    0.342964 0.249452 0.481573 0.153663
H69   H     H_    0.387390 0.325521 0.450087 0.146847
H70   H     H_    0.265722 0.315719 0.348872 0.163000
H71   H     H_    0.930959 0.500419 0.115682 0.123075
H72   H     H_    0.296459 0.999863 0.513880 0.119066
N1    N     N_R   0.566260 0.000000 0.302220 -0.244625
N2    N     N_R   0.066260 0.500000 0.302220 -0.244613
N3    N     N_R   0.434410 1.000000 0.697680 -0.234243
N4    N     N_R   0.934410 0.500000 0.697680 -0.234241
O1    O     O_R   0.608610 0.924520 0.551740 -0.447813
O2    O     O_R   0.435880 0.924530 0.314850 -0.509315
O3    O     O_R   0.935880 0.575470 0.314850 -0.513464
O4    O     O_R   0.935880 0.424530 0.314850 -0.509316
O5    O     O_R   0.391380 0.075460 0.448260 -0.514254
O6    O     O_R   0.391380 0.924540 0.448260 -0.514082
O7    O     O_R   0.891380 0.575460 0.448260 -0.514252
O8    O     O_R   0.891380 0.424540 0.448260 -0.514081
O9    O     O_3   0.777590 0.109930 0.688940 -0.549659
O10   O     O_3   0.770002 0.875204 0.670411 -0.548562
O11   O     O_3   0.277620 0.609884 0.689003 -0.549654
O12   O     O_R   0.608610 0.075480 0.551740 -0.456567
O13   O     O_3   0.270011 0.375213 0.670425 -0.548554
O14   O     O_R   0.108610 0.424520 0.551740 -0.447815
O15   O     O_R   0.108610 0.575480 0.551740 -0.456559
O16   O     O_R   0.564110 0.924510 0.685150 -0.533929
O17   O     O_R   0.564110 0.075490 0.685150 -0.531483
O18   O     O_R   0.064110 0.424510 0.685150 -0.533929
O19   O     O_R   0.064110 0.575490 0.685150 -0.531479
O20   O     O_R   0.435880 0.075470 0.314850 -0.513471

loop_
_geom_bond_atom_site_label_1
_geom_bond_atom_site_label_2
_ccdc_geom_bond_type
C58   H35   S    
C83   C87   A    
C10   C85   A    
C93   C94   S    
C56   H33   S    
C92   H44   S    
C95   H54   S    
C6    H7    S    
C2    C7    A    
Cu3   O5    S    
C10   H29   S    
C72   C76   A    
Cu1   O12   S    
Cu2   O15   S    
C44   N4    A    
C91   H43   S    
C97   C98   S    
C28   C56   A    
Cu1   O20   S    
C35   O19   A    
C72   H25   S    
C39   C41   A    
C4    C46   A    
C93   O10   S    
C15   H16   S    
C7    C11   A    
C43   N3    A    
C13   O12   A    
C13   O17   A    
Cu2   O3    S    
C89   O9    S    
C96   O11   S    
C21   C59   A    
C22   C60   A    
C2    C60   A    
C43   C52   A    
C71   O13   S    
C11   C86   A    
C37   O3    A    
C51   H56   S    
C23   C85   A    
C38   O4    A    
C96   H57   S    
C13   C23   S    
C95   H52   S    
Cu3   O17   S    
C32   C39   A    
C23   C67   A    
C7    H8    S    
C22   C66   A    
C2    C79   A    
C44   C53   A    
C3    H69   S    
C19   C63   A    
C18   C79   A    
C97   H59   S    
C12   H31   S    
C28   H36   S    
C50   C52   A    
C30   N3    A    
C24   C27   S    
C21   H23   S    
C36   C63   S    
C75   C80   A    
Cu3   N3    S    
C4    C8    A    
C18   H19   S    
C40   H4    S    
C40   C42   A    
C100  H65   S    
C24   O18   A    
Cu1   Cu3   S    
C74   H27   S    
C96   C97   S    
C1    C25   S    
C41   C43   A    
Cu2   N2    S    
C94   C95   S    
Cu3   O6    S    
C42   C44   A    
Cu2   O14   S    
C76   C83   A    
C30   H72   S    
C42   C47   A    
C70   O11   S    
C99   H63   S    
C56   N1    A    
Cu4   O8    S    
C33   C40   A    
C32   H5    S    
C100  H66   S    
C76   H20   S    
C1    O16   A    
C47   C49   A    
C3    C100  S    
C11   H30   S    
C91   C92   S    
C20   H12   S    
C1    O1    A    
C26   C87   A    
C31   H2    S    
C29   C49   A    
C80   H24   S    
C77   C84   A    
C49   C51   A    
C6    C90   A    
C4    C61   A    
C52   H38   S    
C27   C71   A    
C51   C53   A    
C59   C90   A    
C20   C64   A    
C34   O5    A    
C89   H41   S    
C9    C14   A    
C5    C9    A    
C5    C57   A    
C30   C32   A    
C17   H18   S    
C3    H70   S    
C68   C90   A    
C99   C100  S    
C38   C65   S    
C24   O14   A    
C8    C12   A    
C29   H37   S    
C37   C66   S    
C31   C33   A    
C92   H47   S    
C34   C64   S    
C94   H51   S    
C57   C84   A    
C60   H13   S    
C58   N2    A    
C67   C74   A    
Cu2   Cu4   S    
C55   H71   S    
C62   H15   S    
C98   H62   S    
C8    H9    S    
Cu4   O7    S    
C19   H1    S    
C80   C82   A    
C45   C54   A    
C97   H58   S    
C92   H46   S    
C26   C70   A    
C55   N2    A    
C25   C69   A    
Cu3   O16   S    
C9    H10   S    
C78   H22   S    
C77   H21   S    
C75   H28   S    
C47   C55   A    
C99   H64   S    
C45   C48   A    
C16   H17   S    
C22   H34   S    
C73   H26   S    
C28   C48   A    
C17   C68   A    
C15   C63   A    
C12   C87   A    
C21   C65   A    
C61   H14   S    
C95   H53   S    
Cu4   O18   S    
C54   H67   S    
C84   C88   A    
C69   O10   S    
C39   H3    S    
C79   C82   A    
C98   H60   S    
C67   O9    S    
Cu4   N4    S    
C35   O15   A    
C18   C66   A    
C89   H40   S    
C99   O13   S    
C17   C65   A    
C54   N1    A    
C68   C81   A    
C31   N4    A    
Cu2   O4    S    
C93   H49   S    
C14   C88   A    
C41   C45   A    
C82   C86   A    
C94   H50   S    
C50   H45   S    
C37   O7    A    
C14   H32   S    
C19   C61   A    
C38   O8    A    
C48   C50   A    
C25   C86   A    
Cu4   O19   S    
C5    C62   A    
C69   C75   A    
C36   O6    A    
C16   C57   A    
C78   C81   A    
C20   C62   A    
C27   C88   A    
C3    H68   S    
Cu1   O1    S    
C98   H61   S    
Cu1   N1    S    
C6    C10   A    
C46   C83   A    
C34   O20   A    
C26   C35   S    
C96   H55   S    
C36   O2    A    
C29   C58   A    
C59   H11   S    
C89   C91   S    
C74   C78   A    
C71   C73   A    
C73   C77   A    
C93   H48   S    
C70   C72   A    
C33   H6    S    
C16   C64   A    
C15   C46   A    
C53   H39   S    
C91   H42   S    
C81   C85   A    
Cu1   O2    S    
