data_mof_unit_66734.cif
_audit_creation_date              2013-03-05T15:40:29-0500
_audit_creation_method            fapswitch 2.2
_symmetry_space_group_name_H-M    P1
_symmetry_Int_Tables_number       1
_space_group_crystal_system       triclinic
_cell_length_a                    8.823968
_cell_length_b                    15.485887
_cell_length_c                    16.363936
_cell_angle_alpha                 96.949695
_cell_angle_beta                  92.917467
_cell_angle_gamma                 99.236151
_cell_volume                      2185.22624765

loop_
_atom_site_label
_atom_site_type_symbol
_atom_site_description
_atom_site_fract_x
_atom_site_fract_y
_atom_site_fract_z
_atom_type_partial_charge
P1    P     P_3+3 0.037890 0.428670 0.315390 0.690553
O1    O     O_2   0.870790 0.455700 0.303190 -0.255283
O2    O     O_3   0.120480 0.453880 0.403310 -0.273034
O3    O     O_3   0.662860 0.618850 0.354340 -0.276684
O4    O     O_2   0.713269 0.524146 0.211946 -0.234190
O5    O     O_3   0.059651 0.315365 0.303935 -0.579926
O6    O     O_3   0.687386 0.684799 0.198457 -0.554984
C1    C     C_3   0.608641 0.801291 0.129114 0.234781
P2    P     P_3+3 0.680030 0.705880 0.565670 0.623288
P3    P     P_3+3 0.145899 0.781909 0.408418 0.624884
O7    O     O_2   0.855710 0.719820 0.541650 -0.355403
O8    O     O_3   0.086210 0.664250 0.395340 -0.290048
O9    O     O_2   0.024088 0.825162 0.455962 -0.364218
O10   O     O_3   0.670832 0.762165 0.666026 -0.641331
O11   O     O_3   0.146968 0.825785 0.313144 -0.513370
C2    C     C_3   0.059519 0.770815 0.245943 0.559891
C3    C     C_3   0.115555 0.799362 0.163920 0.198358
C4    C     C_3   0.228976 0.736529 0.652030 0.191929
C5    C     C_3   0.199622 0.829710 0.683558 -0.056774
Ba1   Ba    Ba6+2 0.854080 0.543710 0.461380 1.907216
C6    C     C_3   0.958863 0.237917 0.269227 0.596637
C7    C     C_3   0.941277 0.225931 0.169830 0.316078
C8    C     C_3   0.705923 0.728757 0.739514 0.635674
C9    C     C_3   0.672638 0.800167 0.810036 0.250092
P4    P     P_3+3 0.151830 0.571400 0.684620 0.658379
O12   O     O_2   0.318910 0.544330 0.696860 -0.266727
O13   O     O_3   0.069240 0.546190 0.596700 -0.369761
O14   O     O_3   0.526850 0.381230 0.645670 -0.336446
O15   O     O_3   0.200102 0.685540 0.716446 -0.490423
P5    P     P_3+3 0.048139 0.219515 0.595507 0.610891
O16   O     O_3   0.607560 0.392310 0.457770 -0.288739
O17   O     O_3   0.103510 0.335820 0.604670 -0.361528
O18   O     O_2   0.162517 0.178897 0.540242 -0.272127
O19   O     O_3   0.091682 0.186039 0.691673 -0.484650
Ba2   Ba    Ba6+2 0.335760 0.456360 0.538630 1.881584
P6    P     P_3+3 0.615813 0.592444 0.246248 0.678493
C10   C     C_3   0.582014 0.744691 0.200633 0.426935
O20   O     O_3   0.582150 0.607760 0.542240 -0.286091
C11   C     C_3   0.437113 0.248332 0.266088 0.599145
C12   C     C_3   0.458201 0.180957 0.192610 -0.045739
P7    P     P_3+3 0.508479 0.278583 0.438200 0.674993
O21   O     O_2   0.333990 0.280210 0.458400 -0.284863
O22   O     O_3   0.512663 0.224936 0.336140 -0.540497
C13   C     C_3   0.010535 0.226919 0.753557 0.718713
C14   C     C_3   0.939192 0.157842 0.806972 -0.158013
P8    P     P_3+3 0.570524 0.397983 0.753589 0.662468
C15   C     C_3   0.578037 0.238587 0.788405 0.595933
O23   O     O_2   0.467584 0.463658 0.786737 -0.200594
O24   O     O_3   0.483610 0.303819 0.794268 -0.474493
C16   C     C_3   0.539354 0.175378 0.854871 0.263307
C17   C     C_R   0.320516 0.498350 0.262939 0.155875
C18   C     C_R   0.162762 0.478174 0.240227 0.154818
C19   C     C_R   0.107238 0.483928 0.158129 -0.143841
C20   C     C_R   0.209947 0.512982 0.099038 0.287938
C21   C     C_R   0.365328 0.542240 0.126925 -0.213722
C22   C     C_R   0.418281 0.540367 0.209620 0.142931
C23   C     C_R   0.081449 0.523694 0.846362 -0.185607
C24   C     C_R   0.032010 0.514937 0.761395 0.312692
C25   C     C_R   0.978197 0.494451 0.905650 0.156873
N1    N     N_2   0.165324 0.514111 0.012731 0.007887
N2    N     N_2   0.023567 0.497512 0.992566 0.026624
C26   C     C_R   0.881667 0.471554 0.735512 -0.392762
C27   C     C_R   0.774481 0.446981 0.792624 0.031435
C28   C     C_R   0.821108 0.463174 0.878170 0.186101
H1    H     H_    0.985489 0.466485 0.141123 0.215427
C29   C     C_R   0.750442 0.232249 0.533343 -0.338762
C30   C     C_R   0.845736 0.173175 0.554067 0.186533
C31   C     C_R   0.787869 0.080961 0.542377 -0.101182
C32   C     C_R   0.633680 0.046344 0.509300 0.138755
C33   C     C_R   0.544895 0.110131 0.484949 -0.073110
C34   C     C_R   0.602007 0.202112 0.496760 0.302135
C35   C     C_R   0.410074 0.914280 0.468403 -0.060250
C36   C     C_R   0.345204 0.823908 0.459170 0.143558
C37   C     C_R   0.589976 0.787874 0.509776 0.196433
C38   C     C_R   0.653071 0.879990 0.521386 -0.113754
C39   C     C_R   0.566529 0.945933 0.498677 0.105287
C40   C     C_R   0.437950 0.762810 0.477293 -0.033942
N3    N     N_R   0.593937 0.798622 0.281373 0.254844
O25   O     O_R   0.486072 0.843579 0.301177 -0.360313
O26   O     O_R   0.709090 0.800440 0.334813 -0.358931
H2    H     H_    0.224836 0.843674 0.751623 0.230143
N4    N     N_R   0.294868 0.898123 0.646699 0.223282
O27   O     O_R   0.442111 0.915509 0.666768 -0.347656
O28   O     O_R   0.229872 0.954702 0.610817 -0.327036
H3    H     H_    0.076012 0.833179 0.670394 0.169231
N5    N     N_R   0.814575 0.232560 0.308800 0.202150
O29   O     O_R   0.740963 0.154112 0.315728 -0.341285
O30   O     O_R   0.804924 0.294964 0.367797 -0.377110
N6    N     N_R   0.033575 0.166783 0.296834 0.239539
O31   O     O_R   0.056634 0.163390 0.375434 -0.315879
O32   O     O_R   0.083046 0.108950 0.245625 -0.295198
N7    N     N_R   0.879882 0.298159 0.137736 0.207849
O33   O     O_R   0.768051 0.329709 0.171588 -0.353161
O34   O     O_R   0.907226 0.313437 0.062903 -0.271080
N8    N     N_R   0.840443 0.142664 0.133616 0.253027
O35   O     O_R   0.795106 0.079558 0.176815 -0.235186
O36   O     O_R   0.811416 0.126666 0.053933 -0.211453
N9    N     N_R   0.094518 0.226146 0.138379 0.228536
O37   O     O_R   0.189206 0.300217 0.143676 -0.412736
O38   O     O_R   0.124179 0.158739 0.090008 -0.205839
N10   N     N_R   0.865668 0.716720 0.743334 0.192996
O39   O     O_R   0.967390 0.757528 0.801351 -0.346827
O40   O     O_R   0.905887 0.662391 0.685697 -0.418984
N11   N     N_R   0.607484 0.644150 0.743115 0.193574
O41   O     O_R   0.624730 0.575611 0.692661 -0.359270
O42   O     O_R   0.516616 0.633544 0.802522 -0.354274
N12   N     N_R   0.752859 0.863356 0.139318 0.256328
O43   O     O_R   0.797112 0.908407 0.211233 -0.258746
O44   O     O_R   0.797516 0.897895 0.074164 -0.191406
N13   N     N_R   0.775047 0.884858 0.811665 0.262034
O45   O     O_R   0.848749 0.924592 0.880371 -0.193379
O46   O     O_R   0.772969 0.927485 0.747918 -0.338508
N14   N     N_R   0.674942 0.770616 0.891806 0.259558
O47   O     O_R   0.548474 0.761234 0.929449 -0.301785
O48   O     O_R   0.798156 0.749888 0.925890 -0.238924
H4    H     H_    0.553745 0.812269 0.795003 0.098793
H5    H     H_    0.463286 0.709169 0.187862 0.016354
N15   N     N_R   0.484267 0.850702 0.116304 0.226299
O49   O     O_R   0.399546 0.835692 0.047115 -0.252678
O50   O     O_R   0.478947 0.921676 0.166244 -0.222737
H6    H     H_    0.313125 0.245856 0.273817 0.076977
N16   N     N_R   0.509688 0.333626 0.245977 0.211986
O51   O     O_R   0.478334 0.359558 0.175225 -0.346578
O52   O     O_R   0.609338 0.384252 0.298240 -0.277783
N17   N     N_R   0.379703 0.093029 0.199566 0.303857
O53   O     O_R   0.319483 0.043889 0.132225 -0.167004
O54   O     O_R   0.398338 0.057495 0.266727 -0.243086
H7    H     H_    0.415509 0.200978 0.133942 0.203949
H8    H     H_    0.581819 0.179135 0.187329 0.163276
H9    H     H_    0.611600 0.753524 0.073251 0.147399
H10   H     H_    0.240510 0.800347 0.167846 0.124457
N18   N     N_R   0.115140 0.299098 0.803578 0.229497
O55   O     O_R   0.194058 0.359061 0.766794 -0.335977
O56   O     O_R   0.111306 0.313005 0.883457 -0.339722
H11   H     H_    0.913247 0.255279 0.727520 -0.208682
H12   H     H_    0.886062 0.191097 0.859249 0.130652
H13   H     H_    0.847854 0.110200 0.769538 0.171478
N19   N     N_R   0.051740 0.109159 0.839197 0.321448
O57   O     O_R   0.111705 0.132142 0.914427 -0.175789
O58   O     O_R   0.058207 0.030499 0.802881 -0.215412
H14   H     H_    0.700665 0.269249 0.802342 -0.187969
N20   N     N_R   0.558942 0.189940 0.704944 0.202777
O59   O     O_R   0.623201 0.120619 0.689110 -0.449337
O60   O     O_R   0.453138 0.203714 0.652045 -0.313654
H15   H     H_    0.640381 0.142703 0.864538 0.046757
N21   N     N_R   0.408737 0.103865 0.830913 0.270961
O61   O     O_R   0.327945 0.096456 0.761052 -0.233450
O62   O     O_R   0.381624 0.041544 0.877538 -0.230034
H16   H     H_    0.936593 0.775448 0.250244 0.107670
N22   N     N_R   0.513628 0.224834 0.933611 0.263243
O63   O     O_R   0.393234 0.263045 0.941104 -0.209537
O64   O     O_R   0.601651 0.222657 0.999122 -0.271481
H17   H     H_    0.198406 0.554972 0.866040 0.206646
H18   H     H_    0.445005 0.569103 0.084576 0.187695
N23   N     N_R   0.707006 0.454986 0.937436 0.257627
O65   O     O_R   0.606307 0.507866 0.941156 -0.301875
O66   O     O_R   0.721436 0.408582 0.997414 -0.263300
N24   N     N_R   0.380136 0.466395 0.335332 0.242523
O67   O     O_R   0.465203 0.515974 0.394588 -0.255880
O68   O     O_R   0.331324 0.386812 0.348689 -0.384084
H19   H     H_    0.843948 0.462449 0.670610 0.165464
H20   H     H_    0.334949 0.958117 0.450692 0.169801
H21   H     H_    0.864625 0.037709 0.559999 0.148436
H22   H     H_    0.767920 0.898952 0.550583 0.162476
N25   N     N_R   0.083735 0.681124 0.243852 0.205593
O69   O     O_R   0.968667 0.618025 0.242866 -0.357730
O70   O     O_R   0.220693 0.663676 0.235787 -0.500522
H23   H     H_    0.432756 0.090302 0.453024 0.145188
N26   N     N_R   0.383757 0.673616 0.448825 0.244630
O71   O     O_R   0.371316 0.653039 0.369608 -0.391799
O72   O     O_R   0.298384 0.625643 0.494324 -0.373902
H24   H     H_    0.796486 0.302087 0.540197 0.123461
N27   N     N_R   0.046710 0.735854 0.092743 0.251243
O73   O     O_R   0.134420 0.702645 0.040232 -0.320779
O74   O     O_R   0.898520 0.711485 0.081534 -0.328394
N28   N     N_R   0.090623 0.887361 0.152128 0.279396
O75   O     O_R   0.099388 0.911329 0.078723 -0.144775
O76   O     O_R   0.105865 0.947577 0.215719 -0.200835
H25   H     H_    0.350913 0.738426 0.637796 0.071592
H26   H     H_    0.151543 0.710797 0.595809 0.128679

loop_
_geom_bond_atom_site_label_1
_geom_bond_atom_site_label_2
_geom_bond_distance
_ccdc_geom_bond_type
C24   C26   1.406595 A    
C21   H18   1.083102 S    
C21   C22   1.414145 A    
O3    P6    1.778749 S    
C38   C39   1.441292 A    
N25   O69   1.289211 A    
C7    N9    1.470750 S    
C3    H10   1.098745 S    
N12   O44   1.300462 A    
P7    O21   1.594613 D    
N8    O35   1.298170 A    
C35   C39   1.430395 A    
N15   O50   1.296583 A    
N11   O42   1.300240 A    
C1    N15   1.455630 S    
C15   O24   1.406695 S    
C6    N6    1.474927 S    
N27   O73   1.300148 A    
C13   C14   1.539710 S    
C28   N23   1.434753 S    
O14   P8    1.766986 S    
C25   C28   1.423569 A    
N10   O39   1.300895 A    
C11   N16   1.455386 S    
C29   H24   1.082699 S    
C4    C5    1.539133 S    
P3    O11   1.774320 S    
P3    C36   1.886546 S    
N5    O30   1.297007 A    
C23   C25   1.428381 A    
C26   H19   1.082269 S    
N23   O66   1.297395 A    
C8    N10   1.450442 S    
O11   C2    1.416183 S    
C12   H7    1.110153 S    
O4    P6    1.539691 D    
C32   C39   1.558060 S    
P1    O1    1.605477 D    
O6    P6    1.756969 S    
Ba2   O21   2.877946 S    
N15   O49   1.299678 A    
N7    O33   1.290064 A    
N13   O45   1.302052 A    
Ba1   Ba2   4.817213 S    
C29   C34   1.395730 A    
O14   Ba2   2.843793 S    
C2    C3    1.543521 S    
C14   H12   1.108388 S    
C37   C40   1.393946 A    
C8    C9    1.571888 S    
C2    H16   1.103715 S    
N6    O32   1.294596 A    
C5    N4    1.453602 S    
C19   H1    1.078322 S    
P5    C30   1.874074 S    
C3    N28   1.448538 S    
P7    C34   1.873385 S    
C16   N21   1.465510 S    
C13   H11   1.113753 S    
N28   O76   1.296595 A    
C29   C30   1.397119 A    
C4    H26   1.109917 S    
C9    N14   1.465851 S    
N25   O70   1.289710 A    
C6    C7    1.611253 S    
N24   O68   1.287057 A    
P7    O22   1.777957 S    
C14   H13   1.103926 S    
N11   O41   1.297669 A    
C3    N27   1.466932 S    
C15   C16   1.563900 S    
N21   O62   1.301311 A    
N27   O74   1.298600 A    
P4    O15   1.757813 S    
P8    O23   1.538466 D    
O7    Ba1   2.877825 S    
C25   N2    1.450883 S    
C37   C38   1.431668 A    
P5    O19   1.758564 S    
O1    Ba1   2.798171 S    
C17   C18   1.397525 A    
N26   O71   1.291626 A    
Ba2   O20   2.923088 S    
C9    N13   1.464924 S    
C11   C12   1.533126 S    
N5    O29   1.303107 A    
C31   C32   1.432535 A    
C11   O22   1.410676 S    
O13   Ba2   3.053967 S    
P4    O12   1.605642 D    
C19   C20   1.422123 A    
O5    C6    1.411848 S    
C23   H17   1.082283 S    
C30   C31   1.423528 A    
C38   H22   1.078306 S    
P1    O2    1.555454 S    
O10   C8    1.404897 S    
P2    O10   1.775700 S    
O17   Ba2   2.887528 S    
C26   C27   1.404744 A    
P6    C22   1.836620 S    
C33   H23   1.075811 S    
Ba1   O20   3.043327 S    
C16   N22   1.464613 S    
P2    Ba1   3.470706 S    
C8    N11   1.460551 S    
P8    O24   1.756570 S    
O2    Ba2   2.835714 S    
C2    N25   1.435451 S    
N12   O43   1.300454 A    
C15   N20   1.465627 S    
O8    Ba1   2.886864 S    
N7    O34   1.302144 A    
O6    C10   1.413594 S    
N3    O26   1.300920 A    
O19   C13   1.415329 S    
O2    Ba1   3.053058 S    
C4    O15   1.401320 S    
P2    O7    1.606032 D    
C33   C34   1.418906 A    
N21   O61   1.298987 A    
P3    O8    1.796994 S    
P4    Ba2   3.436268 S    
C16   H15   1.107067 S    
N18   O56   1.301871 A    
N28   O75   1.301815 A    
C4    H25   1.108981 S    
C9    H4    1.115464 S    
N9    O38   1.301345 A    
C1    H9    1.108383 S    
N24   O67   1.286039 A    
N22   O64   1.298476 A    
P4    O13   1.555455 S    
P2    C37   1.900329 S    
N16   O52   1.288078 A    
C1    N12   1.455339 S    
N20   O60   1.301082 A    
C18   C19   1.424365 A    
N14   O47   1.298260 A    
N26   O72   1.298099 A    
C31   H21   1.078427 S    
C20   C21   1.407214 A    
P1    Ba1   3.435640 S    
C35   H20   1.075547 S    
O16   P7    1.819170 S    
P5    O18   1.546344 D    
N3    O25   1.298128 A    
C7    N7    1.458807 S    
C17   C22   1.400956 A    
C35   C36   1.411351 A    
C5    H3    1.112057 S    
P3    O9    1.548993 D    
C6    N5    1.452678 S    
N8    O36   1.301786 A    
N19   O58   1.300314 A    
Ba1   O13   2.835050 S    
C1    C10   1.550237 S    
C13   N18   1.463512 S    
C12   H8    1.103176 S    
C10   N3    1.464527 S    
C15   H14   1.109985 S    
C17   N24   1.444643 S    
N4    O28   1.301117 A    
C11   H6    1.102836 S    
N10   O40   1.288905 A    
P8    C27   1.884163 S    
C20   N1    1.449668 S    
N16   O51   1.301486 A    
P5    O17   1.774767 S    
C23   C24   1.419691 A    
N17   O53   1.297465 A    
C12   N17   1.445534 S    
P2    O20   1.614249 S    
N9    O37   1.297026 A    
N18   O55   1.296089 A    
O16   Ba2   3.042335 S    
C32   C33   1.435339 A    
P1    C18   1.846509 S    
N13   O46   1.301095 A    
N19   O57   1.299758 A    
C27   C28   1.419548 A    
O3    Ba1   2.844599 S    
C7    N8    1.482783 S    
O12   Ba2   2.798725 S    
C10   H5    1.099426 S    
C40   N26   1.401112 S    
N4    O27   1.300501 A    
P4    C24   1.888141 S    
N23   O65   1.300333 A    
N17   O54   1.301809 A    
C36   C40   1.394521 A    
N20   O59   1.297723 A    
N1    N2    1.254541 D    
C14   N19   1.454633 S    
N6    O31   1.300619 A    
C5    H2    1.112601 S    
P1    O5    1.784084 S    
N22   O63   1.300493 A    
N14   O48   1.299927 A    
Ba1   O16   2.923794 S    
