data_mof_unit_60700.cif
_audit_creation_date              2012-12-10T19:11:12-0500
_audit_creation_method            fapswitch 2.2
_symmetry_space_group_name_H-M    P1
_symmetry_Int_Tables_number       1
_space_group_crystal_system       triclinic
_cell_length_a                    37.41328
_cell_length_b                    30.253905
_cell_length_c                    21.628952
_cell_angle_alpha                 90.0
_cell_angle_beta                  53.760276
_cell_angle_gamma                 90.00001
_cell_volume                      19745.7821604

loop_
_atom_site_label
_atom_site_type_symbol
_atom_type_description
_atom_site_fract_x
_atom_site_fract_y
_atom_site_fract_z
_atom_type_partial_charge
C1    C     C_R   0.086221 0.500020 0.415468 0.888175
C2    C     C_R   0.913779 0.500020 0.584532 0.888174
C3    C     C_R   0.586221 0.000021 0.415468 0.888174
C4    C     C_R   0.413779 0.000021 0.584532 0.888173
C5    C     C_R   0.001239 0.498115 0.812565 -0.118527
C6    C     C_R   0.998761 0.498115 0.187435 -0.118528
C7    C     C_R   0.501239 0.998116 0.812565 -0.118526
C8    C     C_R   0.498761 0.998115 0.187435 -0.118527
C9    C     C_R   0.030369 0.469939 0.750756 -0.022943
C10   C     C_R   0.969631 0.469939 0.249244 -0.022942
C11   C     C_R   0.530369 0.969939 0.750756 -0.022943
C12   C     C_R   0.469631 0.969939 0.249244 -0.022942
C13   C     C_R   0.031040 0.471389 0.685688 0.239193
C14   C     C_R   0.968960 0.471389 0.314312 0.239193
C15   C     C_R   0.531040 0.971389 0.685688 0.239193
C16   C     C_R   0.468960 0.971389 0.314312 0.239192
C17   C     C_R   0.001703 0.500113 0.684716 -0.145192
C18   C     C_R   0.998297 0.500113 0.315284 -0.145192
C19   C     C_R   0.501703 0.000113 0.684716 -0.145193
C20   C     C_R   0.498297 0.000113 0.315284 -0.145192
C21   C     C_R   0.973061 0.528476 0.746824 0.025574
C22   C     C_R   0.026939 0.528476 0.253176 0.025574
C23   C     C_R   0.473062 0.028476 0.746823 0.025573
C24   C     C_R   0.526939 0.028476 0.253176 0.025573
C25   C     C_R   0.102466 0.445609 0.725340 0.362349
C26   C     C_R   0.897534 0.445609 0.274660 0.362349
C27   C     C_R   0.602465 0.945608 0.725341 0.362349
C28   C     C_R   0.397534 0.945609 0.274660 0.362349
C29   C     C_R   0.127222 0.413727 0.731809 -0.155472
C30   C     C_R   0.872778 0.413727 0.268191 -0.155472
C31   C     C_R   0.627222 0.913726 0.731809 -0.155472
C32   C     C_R   0.372777 0.913727 0.268192 -0.155473
C33   C     C_R   0.107959 0.373396 0.767992 -0.134611
C34   C     C_R   0.892041 0.373396 0.232008 -0.134610
C35   C     C_R   0.607958 0.873395 0.767992 -0.134610
C36   C     C_R   0.392040 0.873397 0.232009 -0.134609
C37   C     C_R   0.063830 0.364710 0.797957 -0.103034
C38   C     C_R   0.936170 0.364709 0.202043 -0.103034
C39   C     C_R   0.563829 0.864709 0.797957 -0.103034
C40   C     C_R   0.436169 0.864710 0.202044 -0.103035
C41   C     C_R   0.038733 0.396462 0.792466 -0.194671
C42   C     C_R   0.961267 0.396462 0.207534 -0.194672
C43   C     C_R   0.538733 0.896461 0.792467 -0.194671
C44   C     C_R   0.461266 0.896462 0.207534 -0.194671
C45   C     C_R   0.000642 0.500027 0.619527 0.905750
C46   C     C_R   0.999358 0.500027 0.380473 0.905750
C47   C     C_R   0.500642 0.000027 0.619527 0.905748
C48   C     C_R   0.499358 0.000027 0.380473 0.905749
C49   C     C_R   0.057821 0.437004 0.755986 0.076966
C50   C     C_R   0.942179 0.437004 0.244014 0.076966
C51   C     C_R   0.557821 0.937004 0.755987 0.076964
C52   C     C_R   0.442178 0.937005 0.244014 0.076966
C53   C     C_R   0.203203 0.467745 0.268147 -0.111729
C54   C     C_R   0.796797 0.467745 0.731853 -0.111728
C55   C     C_R   0.703203 0.967745 0.268148 -0.111731
C56   C     C_R   0.296797 0.967745 0.731854 -0.111731
C57   C     C_R   0.157535 0.469160 0.312267 -0.175589
C58   C     C_R   0.842465 0.469160 0.687734 -0.175589
C59   C     C_R   0.657535 0.969160 0.312267 -0.175589
C60   C     C_R   0.342465 0.969160 0.687734 -0.175590
C61   C     C_R   0.134200 0.499887 0.371724 -0.057373
C62   C     C_R   0.865800 0.499887 0.628276 -0.057374
C63   C     C_R   0.634200 0.999887 0.371724 -0.057373
C64   C     C_R   0.365800 0.999887 0.628276 -0.057372
C65   C     C_R   0.156718 0.528860 0.389608 0.084796
C66   C     C_R   0.843282 0.528860 0.610391 0.084796
C67   C     C_R   0.656718 0.028861 0.389608 0.084795
C68   C     C_R   0.343282 0.028860 0.610391 0.084798
C69   C     C_R   0.203400 0.527698 0.343427 0.336999
C70   C     C_R   0.796600 0.527698 0.656573 0.336999
C71   C     C_R   0.703400 0.027699 0.343427 0.337001
C72   C     C_R   0.296600 0.027698 0.656572 0.337001
C73   C     C_R   0.226015 0.497077 0.282934 0.046024
C74   C     C_R   0.773985 0.497077 0.717066 0.046024
C75   C     C_R   0.726015 0.997077 0.282934 0.046024
C76   C     C_R   0.273985 0.997077 0.717066 0.046024
C77   C     C_R   0.296524 0.525208 0.172071 -0.129864
C78   C     C_R   0.703476 0.525209 0.827929 -0.129864
C79   C     C_R   0.796524 0.025208 0.172070 -0.129866
C80   C     C_R   0.203476 0.025208 0.827929 -0.129866
C81   C     C_R   0.342290 0.525011 0.123758 -0.218160
C82   C     C_R   0.657710 0.525011 0.876241 -0.218160
C83   C     C_R   0.842290 0.025010 0.123757 -0.218160
C84   C     C_R   0.157710 0.025011 0.876241 -0.218160
C85   C     C_R   0.365941 0.494964 0.135859 -0.071925
C86   C     C_R   0.634059 0.494964 0.864141 -0.071924
C87   C     C_R   0.865941 0.994964 0.135859 -0.071926
C88   C     C_R   0.134059 0.994964 0.864141 -0.071924
C89   C     C_R   0.926923 0.632878 0.721474 -0.228981
C90   C     C_R   0.073077 0.632878 0.278526 -0.228981
C91   C     C_R   0.426925 0.132880 0.721473 -0.228983
C92   C     C_R   0.573078 0.132878 0.278526 -0.228982
C93   C     C_R   0.343559 0.463255 0.195587 0.096952
C94   C     C_R   0.656441 0.463254 0.804414 0.096952
C95   C     C_R   0.843559 0.963255 0.195588 0.096950
C96   C     C_R   0.156441 0.963255 0.804413 0.096950
C97   C     C_R   0.297040 0.464445 0.245583 0.309994
C98   C     C_R   0.702960 0.464445 0.754418 0.309993
C99   C     C_R   0.797040 0.964446 0.245584 0.309994
C100  C     C_R   0.202960 0.964445 0.754417 0.309994
C101  C     C_R   0.274034 0.495541 0.233144 0.011484
C102  C     C_R   0.725966 0.495541 0.766856 0.011484
C103  C     C_R   0.774034 0.995541 0.233144 0.011484
C104  C     C_R   0.225966 0.995541 0.766856 0.011484
C105  C     C_R   0.000000 0.413632 0.000000 0.902656
C106  C     C_R   0.500000 0.913632 0.000000 0.902656
C107  C     C_R   0.000351 0.498911 0.879529 0.897432
C108  C     C_R   0.999649 0.498911 0.120471 0.897432
C109  C     C_R   0.500351 0.998911 0.879529 0.897430
C110  C     C_R   0.499649 0.998911 0.120471 0.897432
C111  C     C_R   0.000000 0.586279 0.000000 0.875128
C112  C     C_R   0.500000 0.086279 1.000000 0.875127
C113  C     C_R   0.500000 0.413713 0.000000 0.835478
C114  C     C_R   0.000000 0.913713 0.000000 0.835474
C115  C     C_R   0.413827 0.498372 0.086653 0.890265
C116  C     C_R   0.586173 0.498372 0.913347 0.890267
C117  C     C_R   0.913827 0.998372 0.086653 0.890264
C118  C     C_R   0.086173 0.998372 0.913347 0.890265
C119  C     C_R   0.500000 0.586355 0.000000 0.881862
C120  C     C_R   0.000000 0.086356 0.000000 0.881863
C121  C     C_R   0.039324 0.296804 0.972991 0.245674
C122  C     C_R   0.960676 0.296804 0.027009 0.245674
C123  C     C_R   0.539324 0.796804 0.972989 0.245672
C124  C     C_R   0.460676 0.796804 0.027011 0.245672
C125  C     C_R   0.956361 0.603557 0.719944 0.339767
C126  C     C_R   0.043639 0.603557 0.280056 0.339767
C127  C     C_R   0.456362 0.103558 0.719944 0.339765
C128  C     C_R   0.543640 0.103557 0.280056 0.339767
C129  C     C_R   0.039091 0.342626 0.973415 -0.243548
C130  C     C_R   0.960909 0.342626 0.026585 -0.243548
C131  C     C_R   0.539091 0.842626 0.973413 -0.243547
C132  C     C_R   0.460909 0.842626 0.026587 -0.243548
C133  C     C_R   0.000000 0.365650 0.000000 -0.138139
C134  C     C_R   0.500000 0.865650 0.000000 -0.138138
C135  C     C_R   1.000000 0.273883 0.000000 -0.075425
C136  C     C_R   0.500000 0.773883 0.000000 -0.075422
C137  C     C_R   0.497822 0.703417 0.058325 -0.082390
C138  C     C_R   0.502178 0.703417 0.941675 -0.082391
C139  C     C_R   0.997817 0.203417 0.058330 -0.082390
C140  C     C_R   0.002183 0.203417 0.941670 -0.082390
C141  C     C_R   0.497865 0.657597 0.058349 -0.166363
C142  C     C_R   0.502135 0.657597 0.941651 -0.166362
C143  C     C_R   0.997860 0.157598 0.058354 -0.166362
C144  C     C_R   0.002140 0.157597 0.941646 -0.166362
C145  C     C_R   0.500000 0.634446 0.000000 -0.050648
C146  C     C_R   0.000000 0.134446 0.000000 -0.050648
C147  C     C_R   0.500000 0.726116 0.000000 0.182308
C148  C     C_R   1.000000 0.226116 0.000000 0.182309
C149  C     C_R   0.962138 0.703103 0.019582 -0.150915
C150  C     C_R   0.037862 0.703103 0.980417 -0.150915
C151  C     C_R   0.462140 0.203103 0.019573 -0.150914
C152  C     C_R   0.537860 0.203103 0.980426 -0.150912
C153  C     C_R   0.962027 0.657289 0.020044 -0.159091
C154  C     C_R   0.037973 0.657289 0.979955 -0.159091
C155  C     C_R   0.462029 0.157289 0.020035 -0.159091
C156  C     C_R   0.537971 0.157289 0.979964 -0.159092
C157  C     C_R   0.000000 0.634238 1.000000 -0.034310
C158  C     C_R   0.500000 0.134238 1.000000 -0.034304
C159  C     C_R   0.942696 0.560016 0.747211 0.011756
C160  C     C_R   0.057304 0.560016 0.252789 0.011757
C161  C     C_R   0.442697 0.060017 0.747210 0.011760
C162  C     C_R   0.557304 0.060016 0.252789 0.011757
C163  C     C_R   0.000000 0.726012 1.000000 0.100749
C164  C     C_R   0.500000 0.226012 1.000000 0.100745
C165  C     C_R   0.511901 0.296863 0.041497 -0.156694
C166  C     C_R   0.488099 0.296863 0.958502 -0.156693
C167  C     C_R   0.011914 0.796864 0.041479 -0.156693
C168  C     C_R   0.988086 0.796864 0.958520 -0.156693
C169  C     C_R   0.511655 0.342676 0.041884 -0.175767
C170  C     C_R   0.488345 0.342676 0.958115 -0.175767
C171  C     C_R   0.011667 0.842677 0.041866 -0.175767
C172  C     C_R   0.988333 0.842677 0.958133 -0.175766
C173  C     C_R   0.500000 0.365741 1.000000 -0.037750
C174  C     C_R   0.000000 0.865741 1.000000 -0.037742
C175  C     C_R   0.500000 0.273955 1.000000 0.102228
C176  C     C_R   0.000000 0.773956 1.000000 0.102234
C177  C     C_R   0.899397 0.546726 0.776816 -0.266748
C178  C     C_R   0.100603 0.546726 0.223184 -0.266748
C179  C     C_R   0.399398 0.046727 0.776813 -0.266748
C180  C     C_R   0.600603 0.046725 0.223184 -0.266748
C181  C     C_R   0.869986 0.576498 0.779231 0.344287
C182  C     C_R   0.130014 0.576498 0.220769 0.344287
C183  C     C_R   0.369988 0.076501 0.779228 0.344288
C184  C     C_R   0.630014 0.076498 0.220768 0.344287
C185  C     C_R   0.883871 0.619417 0.751069 -0.178580
C186  C     C_R   0.116129 0.619417 0.248931 -0.178580
C187  C     C_R   0.383874 0.119419 0.751066 -0.178579
C188  C     C_R   0.616129 0.119417 0.248931 -0.178580
C189  C     C_R   0.973014 0.526971 0.810547 -0.185811
C190  C     C_R   0.026986 0.526971 0.189453 -0.185811
C191  C     C_R   0.473015 0.026971 0.810547 -0.185810
C192  C     C_R   0.526986 0.026971 0.189453 -0.185811
H1    H     H_    0.861205 0.642477 0.752706 0.187124
H2    H     H_    0.138795 0.642477 0.247294 0.187125
H3    H     H_    0.361208 0.142480 0.752703 0.187124
H4    H     H_    0.638795 0.142477 0.247294 0.187124
H5    H     H_    0.127237 0.348856 0.772828 0.179498
H6    H     H_    0.872763 0.348856 0.227172 0.179497
H7    H     H_    0.627236 0.848855 0.772828 0.179499
H8    H     H_    0.372762 0.848856 0.227173 0.179499
H9    H     H_    0.048986 0.333415 0.825757 0.161536
H10   H     H_    0.951014 0.333414 0.174243 0.161535
H11   H     H_    0.548985 0.833414 0.825757 0.161536
H12   H     H_    0.451013 0.833414 0.174245 0.161537
H13   H     H_    0.004445 0.389450 0.816411 0.152159
H14   H     H_    0.995555 0.389450 0.183589 0.152159
H15   H     H_    0.504444 0.889450 0.816411 0.152159
H16   H     H_    0.495555 0.889450 0.183590 0.152158
H17   H     H_    0.220968 0.444199 0.221485 0.167300
H18   H     H_    0.779032 0.444199 0.778515 0.167300
H19   H     H_    0.720968 0.944199 0.221486 0.167300
H20   H     H_    0.279032 0.944200 0.778516 0.167299
H21   H     H_    0.140326 0.446691 0.299091 0.163438
H22   H     H_    0.859674 0.446691 0.700909 0.163438
H23   H     H_    0.640326 0.946691 0.299092 0.163439
H24   H     H_    0.359674 0.946692 0.700910 0.163438
H25   H     H_    0.278525 0.548957 0.162646 0.208962
H26   H     H_    0.721475 0.548957 0.837353 0.208962
H27   H     H_    0.778525 0.048956 0.162644 0.208963
H28   H     H_    0.221475 0.048957 0.837354 0.208963
H29   H     H_    0.359379 0.549022 0.077732 0.174548
H30   H     H_    0.640621 0.549023 0.922267 0.174547
H31   H     H_    0.859379 0.049021 0.077730 0.174549
H32   H     H_    0.140621 0.049023 0.922268 0.174548
H33   H     H_    0.937312 0.666259 0.700163 0.184325
H34   H     H_    0.062688 0.666259 0.299837 0.184325
H35   H     H_    0.437315 0.166260 0.700162 0.184325
H36   H     H_    0.562688 0.166258 0.299837 0.184325
H37   H     H_    0.069509 0.360137 0.952656 0.199694
H38   H     H_    0.930491 0.360137 0.047344 0.199694
H39   H     H_    0.569510 0.860137 0.952653 0.199694
H40   H     H_    0.430490 0.860137 0.047347 0.199694
H41   H     H_    0.496097 0.721225 0.103492 0.148387
H42   H     H_    0.503903 0.721225 0.896508 0.148387
H43   H     H_    0.996088 0.221225 0.103501 0.148386
H44   H     H_    0.003912 0.221225 0.896499 0.148386
H45   H     H_    0.496147 0.640396 0.103951 0.168760
H46   H     H_    0.503852 0.640396 0.896049 0.168760
H47   H     H_    0.996138 0.140396 0.103960 0.168760
H48   H     H_    0.003862 0.140396 0.896040 0.168760
H49   H     H_    0.932654 0.720704 0.035192 0.145250
H50   H     H_    0.067346 0.720704 0.964808 0.145250
H51   H     H_    0.432657 0.220704 0.035174 0.145253
H52   H     H_    0.567343 0.220704 0.964825 0.145253
H53   H     H_    0.932485 0.639954 0.035371 0.164430
H54   H     H_    0.067515 0.639954 0.964629 0.164429
H55   H     H_    0.432487 0.139954 0.035355 0.164425
H56   H     H_    0.567513 0.139954 0.964644 0.164425
H57   H     H_    0.520905 0.279262 0.074071 0.148189
H58   H     H_    0.479095 0.279263 0.925929 0.148188
H59   H     H_    0.020927 0.779263 0.074039 0.148183
H60   H     H_    0.979072 0.779263 0.925961 0.148183
H61   H     H_    0.520895 0.359988 0.074333 0.165683
H62   H     H_    0.479105 0.359988 0.925667 0.165683
H63   H     H_    0.020918 0.859989 0.074300 0.165677
H64   H     H_    0.979082 0.859989 0.925700 0.165677
H65   H     H_    0.888454 0.513478 0.798622 0.173743
H66   H     H_    0.111546 0.513478 0.201378 0.173743
H67   H     H_    0.388455 0.013480 0.798618 0.173742
H68   H     H_    0.611546 0.013478 0.201378 0.173743
H69   H     H_    0.951230 0.548827 0.858537 0.166789
H70   H     H_    0.048770 0.548827 0.141463 0.166788
H71   H     H_    0.451230 0.048828 0.858536 0.166787
H72   H     H_    0.548771 0.048827 0.141463 0.166788
H73   H     H_    0.161451 0.420182 0.708735 0.173264
H74   H     H_    0.838549 0.420182 0.291264 0.173264
H75   H     H_    0.661450 0.920181 0.708736 0.173264
H76   H     H_    0.338549 0.920183 0.291265 0.173264
O1    O     O_R   0.065470 0.536950 0.434540 -0.621760
O2    O     O_R   0.934530 0.536950 0.565460 -0.621759
O3    O     O_R   0.565470 0.036950 0.434540 -0.621760
O4    O     O_R   0.434530 0.036950 0.565460 -0.621758
O5    O     O_R   0.434520 0.500000 0.117190 -0.603136
O6    O     O_R   0.565480 0.500000 0.882810 -0.603137
O7    O     O_R   0.934520 0.000000 0.117190 -0.603136
O8    O     O_R   0.065480 0.000000 0.882810 -0.603137
O9    O     O_R   0.434520 0.500010 0.013750 -0.618874
O10   O     O_R   0.565480 0.500010 0.986250 -0.618874
O11   O     O_R   0.934520 0.000010 0.013750 -0.618875
O12   O     O_R   0.065480 0.000010 0.986250 -0.618875
O13   O     O_R   0.500000 0.565470 0.051720 -0.619292
O14   O     O_R   0.500000 0.565470 0.948280 -0.619292
O15   O     O_R   0.000000 0.065470 0.051720 -0.619292
O16   O     O_R   0.000000 0.065470 0.948280 -0.619292
O17   O     O_R   0.065450 0.463030 0.434550 -0.599304
O18   O     O_R   0.934550 0.463030 0.565450 -0.599303
O19   O     O_R   0.565450 0.963030 0.434550 -0.599305
O20   O     O_R   0.434550 0.963030 0.565450 -0.599303
O21   O     O_R   0.000000 0.536950 0.591620 -0.606084
O22   O     O_R   0.000000 0.536950 0.408380 -0.606084
O23   O     O_R   0.500000 0.036950 0.591620 -0.606084
O24   O     O_R   0.500000 0.036950 0.408380 -0.606083
O25   O     O_R   0.999990 0.463030 0.591630 -0.590919
O26   O     O_R   0.000010 0.463030 0.408370 -0.590919
O27   O     O_R   0.499990 0.963030 0.591630 -0.590919
O28   O     O_R   0.500010 0.963030 0.408370 -0.590919
O29   O     O_R   0.963040 0.434500 0.036950 -0.625641
O30   O     O_R   0.036960 0.434500 0.963050 -0.625642
O31   O     O_R   0.463040 0.934500 0.036950 -0.625642
O32   O     O_R   0.536960 0.934500 0.963050 -0.625642
O33   O     O_R   0.963030 0.499970 0.945350 -0.629341
O34   O     O_R   0.036970 0.499970 0.054650 -0.629341
O35   O     O_R   0.463030 0.999970 0.945350 -0.629341
O36   O     O_R   0.536970 0.999970 0.054650 -0.629342
O37   O     O_R   0.036950 0.499990 0.871430 -0.596739
O38   O     O_R   0.963050 0.499990 0.128570 -0.596740
O39   O     O_R   0.536950 0.999990 0.871430 -0.596738
O40   O     O_R   0.463050 0.999990 0.128570 -0.596740
O41   O     O_R   0.963030 0.565430 0.036970 -0.615376
O42   O     O_R   0.036970 0.565430 0.963030 -0.615377
O43   O     O_R   0.463030 0.065430 0.036970 -0.615375
O44   O     O_R   0.536970 0.065430 0.963030 -0.615375
O45   O     O_R   0.499980 0.434540 0.051730 -0.626796
O46   O     O_R   0.500020 0.434540 0.948270 -0.626796
O47   O     O_R   0.999980 0.934540 0.051730 -0.626794
O48   O     O_R   0.000020 0.934540 0.948270 -0.626793
Zn1   Zn    Zn3+2 0.000000 0.549340 0.500000 1.018180
Zn2   Zn    Zn3+2 0.500000 0.049340 0.500000 1.018179
Zn3   Zn    Zn3+2 1.000000 0.450640 0.500000 1.063420
Zn4   Zn    Zn3+2 0.500000 0.950640 0.500000 1.063419
Zn5   Zn    Zn3+2 0.950630 0.499960 0.049360 1.011006
Zn6   Zn    Zn3+2 0.049370 0.499960 0.950640 1.011005
Zn7   Zn    Zn3+2 0.450630 0.999960 0.049360 1.011006
Zn8   Zn    Zn3+2 0.549370 0.999960 0.950640 1.011006
Zn9   Zn    Zn3+2 0.499990 0.500000 0.069080 0.994930
Zn10  Zn    Zn3+2 0.500010 0.500000 0.930920 0.994929
Zn11  Zn    Zn3+2 0.999990 0.000000 0.069080 0.994930
Zn12  Zn    Zn3+2 0.000010 0.000000 0.930920 0.994930
C193  C     C_3   0.130854 0.559178 0.458569 -0.678856
H77   H     H_    0.116237 0.586704 0.446420 0.247217
H78   H     H_    0.103996 0.540386 0.509343 0.242830
H79   H     H_    0.151169 0.573723 0.475156 0.278084
C194  C     C_3   0.869146 0.559178 0.541430 -0.678855
H80   H     H_    0.883763 0.586703 0.553579 0.247217
H81   H     H_    0.896004 0.540385 0.490657 0.242830
H82   H     H_    0.848831 0.573722 0.524844 0.278084
C195  C     C_3   0.630854 0.059179 0.458569 -0.678855
H83   H     H_    0.616237 0.086704 0.446420 0.247217
H84   H     H_    0.603995 0.040386 0.509343 0.242829
H85   H     H_    0.651169 0.073723 0.475156 0.278083
C196  C     C_3   0.369146 0.059178 0.541430 -0.678855
H86   H     H_    0.383763 0.086703 0.553578 0.247218
H87   H     H_    0.396004 0.040385 0.490656 0.242829
H88   H     H_    0.348831 0.073722 0.524843 0.278084
Br1   Br    Br    0.237232 0.567519 0.360436 -0.428385
Br2   Br    Br    0.762768 0.567518 0.639563 -0.428386
Br3   Br    Br    0.737231 0.067520 0.360435 -0.428386
Br4   Br    Br    0.262768 0.067518 0.639563 -0.428385
C197  C     C_3   0.367974 0.427325 0.205437 -0.784521
H89   H     H_    0.403512 0.425002 0.156860 0.225189
H90   H     H_    0.365036 0.433133 0.258954 0.271707
H91   H     H_    0.353472 0.394601 0.208840 0.254771
C198  C     C_3   0.632026 0.427324 0.794564 -0.784522
H92   H     H_    0.596488 0.425002 0.843141 0.225190
H93   H     H_    0.634964 0.433132 0.741047 0.271707
H94   H     H_    0.646527 0.394600 0.791163 0.254771
C199  C     C_3   0.867974 0.927326 0.205440 -0.784519
H95   H     H_    0.903512 0.925003 0.156861 0.225190
H96   H     H_    0.865037 0.933135 0.258955 0.271707
H97   H     H_    0.853472 0.894602 0.208844 0.254771
C200  C     C_3   0.132026 0.927324 0.794563 -0.784520
H98   H     H_    0.096488 0.925002 0.843140 0.225190
H99   H     H_    0.134964 0.933133 0.741047 0.271708
H100  H     H_    0.146528 0.894601 0.791161 0.254770
Br5   Br    Br    0.264595 0.424143 0.331281 -0.440711
Br6   Br    Br    0.735405 0.424142 0.668721 -0.440711
Br7   Br    Br    0.764595 0.924145 0.331284 -0.440709
Br8   Br    Br    0.235405 0.924142 0.668720 -0.440711
Br9   Br    Br    0.094122 0.266876 0.933793 -0.496617
Br10  Br    Br    0.905878 0.266876 0.066207 -0.496617
Br11  Br    Br    0.594123 0.766876 0.933788 -0.496620
Br12  Br    Br    0.405877 0.766876 0.066212 -0.496620
Br13  Br    Br    0.014942 0.623856 0.679630 -0.473886
Br14  Br    Br    0.985058 0.623856 0.320369 -0.473886
Br15  Br    Br    0.514944 0.123856 0.679632 -0.473888
Br16  Br    Br    0.485058 0.123856 0.320369 -0.473888
Br17  Br    Br    0.810436 0.559129 0.823148 -0.554958
Br18  Br    Br    0.189564 0.559129 0.176852 -0.554958
Br19  Br    Br    0.310438 0.059133 0.823142 -0.554957
Br20  Br    Br    0.689564 0.059129 0.176852 -0.554958
Br21  Br    Br    0.073752 0.435616 0.597506 -0.432281
Br22  Br    Br    0.926248 0.435616 0.402494 -0.432281
Br23  Br    Br    0.573752 0.935616 0.597506 -0.432281
Br24  Br    Br    0.426248 0.935616 0.402494 -0.432282
Br25  Br    Br    0.130341 0.500502 0.675432 -0.407657
Br26  Br    Br    0.869659 0.500502 0.324567 -0.407657
Br27  Br    Br    0.630340 0.000501 0.675434 -0.407655
Br28  Br    Br    0.369659 0.000502 0.324567 -0.407657

loop_
_geom_bond_atom_site_label_1
_geom_bond_atom_site_label_2
_ccdc_geom_bond_type
C4    O4    A    
C99   C103  A    
C120  C146  S    
C199  H95   S    
C55   C59   A    
C97   Br5   S    
C77   C101  A    
C47   O23   A    
C195  H83   S    
C89   C125  A    
C194  H80   S    
C150  C163  A    
C112  C158  S    
C152  H52   S    
C26   C50   A    
C59   H23   S    
C78   C102  A    
C128  Br16  S    
C29   C33   A    
C100  C104  A    
C9    C13   A    
C178  H66   S    
C54   C74   A    
C11   C15   A    
C152  C156  A    
C172  C174  A    
C70   C74   A    
C151  C155  A    
C22   C190  A    
C40   C44   A    
C125  Br13  S    
C141  C145  A    
C83   H31   S    
C73   C101  S    
C108  O38   A    
C155  C158  A    
C75   C103  S    
C21   C159  S    
O16   Zn12  S    
O35   Zn7   S    
C198  H93   S    
C165  C169  A    
C200  H100  S    
C27   C31   A    
C36   H8    S    
C28   C32   A    
C89   H33   S    
C62   C66   A    
C167  C171  A    
C90   C186  A    
C98   C102  A    
O2    Zn1   S    
C17   C21   A    
C3    O19   A    
C96   C200  S    
C192  H72   S    
C98   Br6   S    
C169  H61   S    
C27   Br27  S    
C115  O5    A    
C79   H27   S    
C16   C20   A    
C25   Br25  S    
C128  C162  A    
C90   C126  A    
C71   Br3   S    
C121  C135  A    
C160  C178  A    
C178  C182  A    
C91   C127  A    
C129  C133  A    
C58   H22   S    
C199  H97   S    
C126  C160  A    
C139  H43   S    
C72   Br4   S    
C195  H85   S    
C105  C133  S    
C5    C107  S    
C194  H82   S    
C172  H64   S    
C99   Br7   S    
C53   C73   A    
O19   Zn4   S    
C90   H34   S    
C154  H54   S    
C84   C88   A    
O43   Zn7   S    
C57   C61   A    
C82   H30   S    
C155  H55   S    
O17   Zn3   S    
C59   C63   A    
O28   Zn4   S    
O9    Zn10  S    
C60   C64   A    
C113  O45   A    
C156  C158  A    
C5    C189  A    
C77   H25   S    
C70   Br2   S    
C8    C192  A    
C116  O10   A    
C95   C99   A    
C151  H51   S    
C61   C65   A    
C114  C174  S    
O1    Zn1   S    
C132  C134  A    
C38   H10   S    
O48   Zn12  S    
O45   Zn9   S    
C180  C184  A    
O6    Zn10  S    
C197  H89   S    
C139  C143  A    
C117  O7    A    
C118  O8    A    
C35   H7    S    
C119  O13   A    
C66   C70   A    
C95   C199  S    
C16   Br24  S    
C166  H58   S    
C64   C68   A    
C17   C45   S    
C69   Br1   S    
C1    O1    A    
C112  O44   A    
C3    O3    A    
C124  C132  A    
C164  C175  S    
C149  C153  A    
C107  O33   A    
C85   C93   A    
C111  O42   A    
C40   H12   S    
C87   C95   A    
C33   H5    S    
C161  C179  A    
C47   O27   A    
O10   Zn9   S    
C162  C180  A    
C48   O28   A    
C55   C75   A    
C44   C52   A    
C82   C86   A    
O18   Zn3   S    
C193  H78   S    
C79   C103  A    
O4    Zn2   S    
O25   Zn3   S    
C27   C51   A    
C196  H87   S    
C139  C148  A    
C30   C34   A    
C31   H75   S    
C12   C16   A    
C9    C49   S    
C10   C14   A    
C179  H67   S    
C5    C9    A    
C8    C110  S    
C34   H6    S    
C21   C189  A    
C150  H50   S    
C8    C12   A    
C24   C192  A    
C42   C50   A    
O21   Zn1   S    
C57   H21   S    
C166  C170  A    
C197  H91   S    
O32   Zn8   S    
C105  O30   A    
C88   C118  S    
O34   Zn6   S    
C93   C97   A    
C65   C193  S    
C168  C172  A    
C131  H39   S    
C168  C176  A    
C91   C187  A    
C45   O21   A    
C18   C22   A    
C89   C185  A    
O11   Zn12  S    
C186  H2    S    
C83   C87   A    
C92   C188  A    
C26   C30   A    
C112  O43   A    
C109  O39   A    
C26   Br26  S    
C110  O40   A    
C60   H24   S    
C132  H40   S    
C22   C160  S    
C177  C181  A    
C96   C100  A    
O23   Zn2   S    
O39   Zn8   S    
C37   C41   A    
C54   H18   S    
C122  Br10  S    
C151  C164  A    
C19   C47   S    
O30   Zn6   S    
C169  C173  A    
C46   O26   A    
C94   C198  S    
C81   C85   A    
O12   Zn11  S    
O47   Zn11  S    
C58   C62   A    
C143  C146  A    
C121  Br9   S    
C88   C96   A    
C39   H11   S    
C124  Br12  S    
C29   H73   S    
C80   C84   A    
C131  C134  A    
C1    O17   A    
C198  H92   S    
C181  Br17  S    
C15   C19   A    
C200  H99   S    
C166  C175  A    
C80   C104  A    
C87   C117  S    
C94   C98   A    
C18   C46   S    
C182  C186  A    
C41   C49   A    
C149  H49   S    
C93   C197  S    
C195  H84   S    
O7    Zn11  S    
C153  H53   S    
C69   C73   A    
C126  Br14  S    
C106  O31   A    
C74   C102  S    
C199  H96   S    
C25   C29   A    
C142  C145  A    
C7    C191  A    
O24   Zn2   S    
C184  Br20  S    
C12   C52   S    
C194  H81   S    
C2    O2    A    
C171  C174  A    
C84   H32   S    
O37   Zn6   S    
C124  C136  A    
C43   H15   S    
C85   C115  S    
O20   Zn4   S    
C154  C157  A    
C144  C146  A    
C138  C142  A    
C53   C57   A    
O46   Zn10  S    
O44   Zn8   S    
O22   Zn1   S    
C33   C37   A    
C56   C60   A    
C35   C39   A    
C76   C104  S    
C48   O24   A    
C143  H47   S    
C77   C81   A    
C182  Br18  S    
C189  H69   S    
C130  H38   S    
C20   C48   S    
C156  H56   S    
C31   C35   A    
C138  H42   S    
C130  C133  A    
O13   Zn9   S    
C10   C50   S    
C32   C36   A    
C198  H94   S    
O15   Zn11  S    
C142  H46   S    
C137  C141  A    
C123  C131  A    
C137  C147  A    
C140  C144  A    
C121  C129  A    
C1    C61   S    
C6    C10   A    
O29   Zn5   S    
C125  C159  A    
C67   C195  S    
O42   Zn6   S    
C3    C63   S    
C119  C145  S    
C81   H29   S    
C4    C64   S    
C13   Br21  S    
C123  Br11  S    
C111  C157  S    
C15   Br23  S    
C78   H26   S    
C79   C83   A    
C68   C196  S    
C43   C51   A    
C65   C69   A    
C42   H14   S    
C67   C71   A    
C153  C157  A    
C25   C49   A    
C122  C135  A    
C13   C17   A    
C180  H68   S    
C111  O41   A    
C92   H36   S    
C53   H17   S    
C171  H63   S    
C140  H44   S    
C37   H9    S    
O8    Zn12  S    
C177  H65   S    
C28   Br28  S    
C170  C173  A    
C118  O12   A    
C109  O35   A    
O5    Zn9   S    
C56   C76   A    
C110  O36   A    
C193  H77   S    
C14   C18   A    
C19   C23   A    
C72   C76   A    
C140  C148  A    
C23   C191  A    
C196  H86   S    
C107  O37   A    
C7    C11   A    
O27   Zn4   S    
C144  H48   S    
C4    O20   A    
C91   H35   S    
C165  H57   S    
C113  O46   A    
C56   H20   S    
C183  C187  A    
C114  O48   A    
C129  H37   S    
C44   H16   S    
C167  H59   S    
C86   C116  S    
C46   O22   A    
C66   C194  S    
C78   C82   A    
C86   C94   A    
C20   C24   A    
C30   H74   S    
O41   Zn5   S    
C14   Br22  S    
C68   C72   A    
C2    O18   A    
C115  O9    A    
C127  C161  A    
C184  C188  A    
C105  O29   A    
C159  C177  A    
C163  C176  S    
C92   C128  A    
C119  O14   A    
C179  C183  A    
C120  O15   A    
C63   C67   A    
C127  Br15  S    
C170  H62   S    
C36   C40   A    
C181  C185  A    
C39   C43   A    
C7    C109  S    
C191  H71   S    
C106  C134  S    
C138  C147  A    
C6    C190  A    
O36   Zn8   S    
C116  O6    A    
C152  C164  A    
O40   Zn7   S    
C149  C163  A    
O31   Zn7   S    
O33   Zn5   S    
C193  H79   S    
C183  Br19  S    
C137  H41   S    
C113  C173  S    
O26   Zn3   S    
C54   C58   A    
C196  H88   S    
C141  H45   S    
C187  H3    S    
C34   C38   A    
C45   O25   A    
C24   C162  S    
C114  O47   A    
C185  H1    S    
C80   H28   S    
C165  C175  A    
C200  H98   S    
C123  C136  A    
C190  H70   S    
C120  O16   A    
C117  O11   A    
C71   C75   A    
C28   C52   A    
O14   Zn10  S    
O3    Zn2   S    
C32   H76   S    
C41   H13   S    
O38   Zn5   S    
C136  C147  S    
C11   C51   S    
C55   H19   S    
C38   C42   A    
C188  H4    S    
C197  H90   S    
C135  C148  S    
C150  C154  A    
C100  Br8   S    
C6    C108  S    
C106  O32   A    
C122  C130  A    
C97   C101  A    
C2    C62   S    
C168  H60   S    
C167  C176  A    
C23   C161  S    
C108  O34   A    
