data_mof_unit_20906.cif
_audit_creation_date              2012-12-10T19:12:17-0500
_audit_creation_method            fapswitch 2.2
_symmetry_space_group_name_H-M    P1
_symmetry_Int_Tables_number       1
_space_group_crystal_system       triclinic
_cell_length_a                    7.777518
_cell_length_b                    9.098058
_cell_length_c                    17.166309
_cell_angle_alpha                 89.569262
_cell_angle_beta                  89.921694
_cell_angle_gamma                 89.985355
_cell_volume                      1214.65784762

loop_
_atom_site_label
_atom_site_type_symbol
_atom_type_description
_atom_site_fract_x
_atom_site_fract_y
_atom_site_fract_z
_atom_type_partial_charge
C1    C     C_R   0.499994 0.219990 0.500004 0.849182
C2    C     C_R   0.500006 0.780010 0.499996 0.849182
C3    C     C_R   0.514220 0.497774 0.651214 0.809407
C4    C     C_R   0.485780 0.502226 0.348786 0.809407
C5    C     C_R   0.501820 0.497137 0.736541 -0.055943
C6    C     C_R   0.498180 0.502862 0.263459 -0.055943
C7    C     C_R   0.337231 0.489954 0.770810 -0.279982
C8    C     C_R   0.662769 0.510043 0.229190 -0.279982
C9    C     C_R   0.316564 0.492016 0.851287 0.240246
C10   C     C_R   0.683436 0.507979 0.148713 0.240246
C11   C     C_R   0.461609 0.502779 0.898915 0.360888
C12   C     C_R   0.538390 0.497217 0.101084 0.360887
C13   C     C_R   0.627374 0.510355 0.864845 -0.226429
C14   C     C_R   0.372625 0.489642 0.135155 -0.226430
C15   C     C_R   0.647035 0.506697 0.784076 -0.242200
C16   C     C_R   0.352964 0.493301 0.215923 -0.242200
C17   C     C_1   0.500013 0.065357 0.500001 -0.176748
C18   C     C_1   0.499987 0.934643 0.499999 -0.176749
Cu1   Cu    Cu3+1 0.669080 0.500010 0.500000 0.997993
Cu2   Cu    Cu3+1 0.330920 0.499990 0.500000 0.997993
H1    H     H_    0.777266 0.517820 0.264801 0.168593
H2    H     H_    0.222735 0.482176 0.735199 0.168593
H3    H     H_    0.741266 0.521609 0.900392 0.174741
H4    H     H_    0.258734 0.478388 0.099608 0.174740
H5    H     H_    0.774623 0.513408 0.758946 0.162655
H6    H     H_    0.225376 0.486592 0.241054 0.162655
N1    N     N_1   0.076820 0.499970 0.500010 -0.053225
N2    N     N_1   0.923180 0.500030 0.499990 -0.053225
N3    N     N_2   0.434181 0.510557 0.980295 -0.247314
N4    N     N_2   0.565819 0.489438 0.019705 -0.247311
O1    O     O_R   0.642760 0.288400 0.500000 -0.576699
O2    O     O_R   0.357240 0.711600 0.500000 -0.576699
O3    O     O_R   0.357190 0.288380 0.500000 -0.577125
O4    O     O_R   0.642810 0.711620 0.500000 -0.577124
O5    O     O_R   0.658410 0.498660 0.613920 -0.584072
O6    O     O_R   0.341590 0.501340 0.386080 -0.584073
O7    O     O_R   0.372840 0.498650 0.613930 -0.593584
O8    O     O_R   0.627160 0.501350 0.386070 -0.593584
N5    N     N_2   0.851425 0.512972 0.115583 -0.432151
H7    H     H_    0.945760 0.469393 0.151081 0.241182
C19   C     C_3   0.899812 0.654780 0.083734 -0.665746
H8    H     H_    0.908711 0.737094 0.131073 0.220678
H9    H     H_    0.805071 0.692806 0.039649 0.245609
H10   H     H_    0.026960 0.646071 0.054676 0.240043
N6    N     N_2   0.148575 0.487020 0.884417 -0.432152
H11   H     H_    0.054238 0.530597 0.848919 0.241182
C20   C     C_3   0.100191 0.345212 0.916268 -0.665744
H12   H     H_    0.091304 0.262894 0.868929 0.220678
H13   H     H_    0.973040 0.353918 0.945322 0.240041
H14   H     H_    0.194930 0.307194 0.960356 0.245610

loop_
_geom_bond_atom_site_label_1
_geom_bond_atom_site_label_2
_ccdc_geom_bond_type
C4    O6    A    
C9    N6    S    
N3    N4    D    
Cu2   O7    S    
Cu1   O8    S    
C2    C18   S    
C7    H2    S    
C9    C11   A    
C19   H8    S    
C1    C17   S    
C20   H12   S    
C3    O5    A    
Cu1   O1    S    
C2    O4    A    
N6    C20   S    
C17   C18   T    
C1    O3    A    
C20   H13   S    
Cu1   O5    S    
N6    H11   S    
Cu1   N2    S    
C19   H9    S    
C11   N3    S    
C10   C12   A    
Cu2   O3    S    
C2    O2    A    
Cu2   N1    S    
C12   C14   A    
C8    H1    S    
C20   H14   S    
C5    C7    A    
C13   C15   A    
C1    O1    A    
C16   H6    S    
C19   H10   S    
C14   C16   A    
C15   H5    S    
C4    C6    S    
C5    C15   A    
C6    C16   A    
Cu2   O6    S    
C3    C5    S    
C11   C13   A    
C13   H3    S    
N5    C19   S    
Cu2   O2    S    
C14   H4    S    
N5    H7    S    
C7    C9    A    
C6    C8    A    
C12   N4    S    
C8    C10   A    
Cu1   Cu2   S    
C3    O7    A    
C4    O8    A    
C10   N5    S    
N1    N2    T    
Cu1   O4    S    
