data_mof_unit_10213.cif
_audit_creation_date              2012-12-10T17:22:01-0500
_audit_creation_method            fapswitch 2.2
_symmetry_space_group_name_H-M    P1
_symmetry_Int_Tables_number       1
_space_group_crystal_system       triclinic
_cell_length_a                    10.162345
_cell_length_b                    10.509146
_cell_length_c                    15.746105
_cell_angle_alpha                 89.80001
_cell_angle_beta                  81.776668
_cell_angle_gamma                 94.094252
_cell_volume                      1659.94769481

loop_
_atom_site_label
_atom_site_type_symbol
_atom_type_description
_atom_site_fract_x
_atom_site_fract_y
_atom_site_fract_z
_atom_type_partial_charge
C1    C     C_R   0.554599 0.734669 0.497580 0.943169
C2    C     C_2   0.494385 0.930010 0.565045 -0.164206
C3    C     C_2   0.419924 0.130024 0.526735 -0.419485
C4    C     C_R   0.500639 0.499562 0.661628 0.867429
C5    C     C_2   0.502246 0.067804 0.569514 0.263540
C6    C     C_2   0.925508 0.513304 0.506509 -0.116097
C7    C     C_2   0.072916 0.500194 0.487703 -0.018426
C8    C     C_R   0.445756 0.265658 0.509306 0.917280
C9    C     C_R   0.499322 0.500376 0.338423 0.908782
C10   C     C_3   0.430941 0.610914 0.955237 -0.437061
C11   C     C_3   0.645024 0.498486 0.936577 -0.484298
C12   C     C_3   0.408367 0.600161 0.054018 0.226281
C13   C     C_3   0.648765 0.513479 0.034345 0.660583
C14   C     C_1   0.497051 0.498562 0.249947 -0.024414
C15   C     C_3   0.500409 0.492583 0.917232 0.051530
C16   C     C_3   0.727522 0.114714 0.604561 -0.689757
C17   C     C_3   0.150140 0.716002 0.635834 -0.666796
C18   C     C_3   0.222966 0.368701 0.180832 -0.665791
C19   C     C_3   0.495150 0.491356 0.083521 -0.192189
C20   C     C_3   0.414797 0.360471 0.057042 0.469552
C21   C     C_3   0.426967 0.366096 0.956066 -0.471306
C22   C     C_1   0.495679 0.495645 0.174810 0.169855
C23   C     C_1   0.501634 0.493908 0.825592 0.016215
C24   C     C_1   0.501666 0.496427 0.750334 -0.172889
C25   C     C_2   0.582237 0.870017 0.510692 -0.362569
H1    H     H_    0.333376 0.616714 0.931308 0.194227
H2    H     H_    0.691255 0.410613 0.911981 0.227064
H3    H     H_    0.704559 0.578033 0.898836 0.213203
H4    H     H_    0.326804 0.356746 0.934850 0.181032
H5    H     H_    0.479446 0.285419 0.925563 0.238254
H6    H     H_    0.231909 0.826942 0.197190 0.381938
H7    H     H_    0.354723 0.054107 0.171798 0.396358
H8    H     H_    0.564126 0.221857 0.643307 0.229254
H9    H     H_    0.781963 0.170197 0.650211 0.232401
H10   H     H_    0.765927 0.149478 0.538294 0.235190
H11   H     H_    0.746824 0.012840 0.611388 0.241400
H12   H     H_    0.301975 0.568296 0.067021 0.184800
H13   H     H_    0.111233 0.523065 0.661912 0.244704
H14   H     H_    0.086144 0.748332 0.693666 0.225136
H15   H     H_    0.145583 0.783500 0.582024 0.229647
H16   H     H_    0.253609 0.715922 0.650301 0.244097
H17   H     H_    0.790824 0.776240 0.157895 0.398734
H18   H     H_    0.819569 0.210993 0.048853 0.403264
H19   H     H_    0.212602 0.289699 0.061107 0.281431
H20   H     H_    0.278209 0.310686 0.220760 0.252342
H21   H     H_    0.115658 0.335525 0.194219 0.259366
H22   H     H_    0.230936 0.469889 0.200207 0.245181
H23   H     H_    0.406317 0.879368 0.599740 0.154073
H24   H     H_    0.343728 0.078175 0.495827 0.145972
H25   H     H_    0.671332 0.920272 0.476424 0.169426
H26   H     H_    0.111315 0.448773 0.430899 0.128416
H27   H     H_    0.886387 0.579913 0.554528 0.194227
H28   H     H_    0.491977 0.699257 0.932315 0.256012
H29   H     H_    0.882244 0.387037 0.419681 0.177638
N1    N     N_2   0.842720 0.448890 0.465540 -0.199560
N2    N     N_2   0.157250 0.551040 0.534500 -0.026727
N3    N     N_2   0.586400 0.131243 0.624279 -0.277821
N4    N     N_2   0.102741 0.589102 0.614769 -0.253891
N5    N     N_2   0.270613 0.356791 0.089752 -0.322017
O1    O     O_R   0.431050 0.692470 0.506940 -0.598321
O2    O     O_2   0.403626 0.859100 0.048351 -0.189689
O3    O     O_3   0.237455 0.743514 0.168281 -0.556461
O4    O     O_2   0.539686 0.134893 0.021210 -0.181196
O5    O     O_2   0.545955 0.222491 0.165221 -0.269822
O6    O     O_3   0.327255 0.112573 0.129193 -0.532397
O7    O     O_2   0.867471 0.684949 0.001343 -0.246866
O8    O     O_2   0.657764 0.779072 0.017974 -0.242609
O9    O     O_3   0.740066 0.692730 0.154946 -0.490430
O10   O     O_2   0.909231 0.458035 0.038827 -0.242766
O11   O     O_2   0.751049 0.390933 0.163248 -0.254541
O12   O     O_R   0.651130 0.659650 0.484820 -0.600111
O13   O     O_3   0.757634 0.261903 0.022137 -0.501729
O14   O     O_R   0.389910 0.516410 0.633920 -0.616236
O15   O     O_R   0.609990 0.483590 0.611800 -0.618501
O16   O     O_R   0.348870 0.340350 0.515180 -0.612185
O17   O     O_R   0.568950 0.307530 0.493060 -0.590158
O18   O     O_R   0.390010 0.516410 0.388200 -0.627475
O19   O     O_R   0.610090 0.483590 0.366080 -0.557504
O20   O     O_2   0.490379 0.772486 0.172445 -0.245334
S1    S     S_3+6 0.391047 0.749402 0.111208 0.070305
S2    S     S_3+6 0.465202 0.206698 0.092797 0.077769
S3    S     S_3+6 0.728675 0.672743 0.050228 0.102562
S4    S     S_3+6 0.768281 0.405571 0.067280 0.092498
Zn1   Zn    Zn3+2 0.353060 0.521920 0.514770 0.955714
Zn2   Zn    Zn3+2 0.646940 0.478080 0.485230 0.981776

loop_
_geom_bond_atom_site_label_1
_geom_bond_atom_site_label_2
_ccdc_geom_bond_type
C1    C25   S    
H18   O13   S    
O1    Zn1   S    
C19   C20   S    
C6    N1    D    
C18   H22   S    
C3    H24   S    
C1    O12   A    
O4    S2    D    
O3    S1    S    
C10   C15   S    
C16   H10   S    
C4    C24   S    
O16   Zn1   S    
H19   N5    S    
C8    O17   A    
C17   H14   S    
C12   H12   S    
C10   H28   S    
C25   H25   S    
C16   H9    S    
H13   N4    S    
C11   C15   S    
C23   C24   T    
O14   Zn1   S    
C4    O15   A    
C17   N4    S    
C9    O19   A    
C10   H1    S    
C15   C23   S    
O12   Zn2   S    
C20   S2    S    
H17   O9    S    
H6    O3    S    
C7    N2    D    
C18   H21   S    
N2    Zn1   S    
C13   C19   S    
C19   C22   S    
C3    C8    S    
C1    O1    A    
O18   Zn1   S    
C2    H23   S    
C21   H4    S    
C13   S3    S    
C8    O16   A    
C17   H15   S    
N1    Zn2   S    
C9    C14   S    
O10   S4    D    
O7    S3    D    
O6    S2    S    
C11   H2    S    
C9    O18   A    
C20   N5    S    
O11   S4    D    
C4    O14   A    
C10   C12   S    
O19   Zn2   S    
C2    C5    S    
C18   H20   S    
H29   N1    S    
H8    N3    S    
C3    C5    D    
C6    C7    S    
C21   H5    S    
C13   S4    S    
C5    N3    S    
O9    S3    S    
C14   C22   T    
C7    H26   S    
C16   H11   S    
C11   C13   S    
C11   H3    S    
C12   S1    S    
C12   C19   S    
N2    N4    S    
C2    C25   D    
C16   N3    S    
O15   Zn2   S    
C17   H16   S    
O5    S2    D    
O13   S4    S    
O20   S1    D    
C18   N5    S    
C15   C21   S    
C20   C21   S    
O8    S3    D    
O2    S1    D    
C6    H27   S    
O17   Zn2   S    
H7    O6    S    
