data_mof_unit_23150.cif
_audit_creation_date              2012-12-10T20:48:47-0500
_audit_creation_method            fapswitch 2.2
_symmetry_space_group_name_H-M    P1
_symmetry_Int_Tables_number       1
_space_group_crystal_system       triclinic
_cell_length_a                    15.785481
_cell_length_b                    8.932513
_cell_length_c                    8.111034
_cell_angle_alpha                 90.000245
_cell_angle_beta                  90.050386
_cell_angle_gamma                 90.000066
_cell_volume                      1143.68791142

loop_
_atom_site_label
_atom_site_type_symbol
_atom_type_description
_atom_site_fract_x
_atom_site_fract_y
_atom_site_fract_z
_atom_type_partial_charge
C1    C     C_R   0.500000 0.217994 0.500000 0.937682
C2    C     C_3   0.048934 0.422486 0.332563 -0.075692
C3    C     C_3   0.951067 0.417137 0.664467 -0.075898
C4    C     C_3   0.950148 0.407801 0.341213 -0.085728
C5    C     C_1   0.750718 0.496600 0.500312 -0.171916
C6    C     C_1   0.249281 0.496577 0.499664 -0.171922
C7    C     C_3   0.082947 0.488095 0.498999 0.293138
C8    C     C_3   0.917052 0.488107 0.500713 0.293027
C9    C     C_3   0.951081 0.651796 0.495981 -0.535998
C10   C     C_3   0.048937 0.651539 0.510195 -0.535812
C11   C     C_1   0.825767 0.492802 0.500585 -0.025062
C12   C     C_1   0.174234 0.492773 0.499299 -0.025025
C13   C     C_R   0.337882 0.499961 0.499921 0.899082
C14   C     C_R   0.662118 0.499967 0.500078 0.899105
C15   C     C_1   0.500000 0.934794 0.500000 -0.190407
C16   C     C_1   0.500000 0.065183 0.500000 -0.188490
C17   C     C_R   0.500000 0.781982 0.500000 0.929561
C18   C     C_3   0.049845 0.402616 0.655191 -0.085935
H1    H     H_    0.068113 0.703440 0.629345 0.188009
H2    H     H_    0.931294 0.243166 0.828036 0.170526
H3    H     H_    0.955688 0.176965 0.383452 0.177441
H4    H     H_    0.917369 0.225759 0.199082 0.175148
H5    H     H_    0.044050 0.173271 0.604081 0.177768
H6    H     H_    0.082829 0.216075 0.789874 0.174881
H7    H     H_    0.092275 0.200674 0.356985 0.203814
H8    H     H_    0.068836 0.254137 0.162086 0.170491
H9    H     H_    0.076203 0.722344 0.410449 0.189128
H10   H     H_    0.923826 0.719316 0.598462 0.189219
H11   H     H_    0.931913 0.707560 0.378963 0.187857
H12   H     H_    0.062008 0.509225 0.236862 0.136751
H13   H     H_    0.075709 0.463463 0.764554 0.125707
H14   H     H_    0.924330 0.472262 0.234353 0.125599
H15   H     H_    0.938053 0.500757 0.763509 0.136950
H16   H     H_    0.907378 0.196497 0.631236 0.203945
N1    N     N_1   0.500000 0.500030 0.073640 -0.030811
N2    N     N_1   0.500000 0.500030 0.926360 -0.030816
N3    N     N_3   0.905180 0.282214 0.717593 -0.458189
N4    N     N_3   0.917267 0.254611 0.324080 -0.454875
N5    N     N_3   0.082664 0.248912 0.666080 -0.454977
N6    N     N_3   0.094773 0.289280 0.274267 -0.457866
O1    O     O_R   0.500000 0.285340 0.636850 -0.614353
O2    O     O_R   0.500000 0.285340 0.363150 -0.614350
O3    O     O_R   0.377140 0.500000 0.636930 -0.615822
O4    O     O_R   0.377140 0.500000 0.363070 -0.613453
O5    O     O_R   0.622860 0.500000 0.636930 -0.613623
O6    O     O_R   0.622860 0.500000 0.363070 -0.615676
O7    O     O_R   0.500000 0.714650 0.636900 -0.616472
O8    O     O_R   0.500000 0.714650 0.363100 -0.616490
Zn1   Zn    Zn3+2 0.500000 0.499990 0.682780 0.995364
Zn2   Zn    Zn3+2 0.500000 0.499990 0.317220 0.995461

loop_
_geom_bond_atom_site_label_1
_geom_bond_atom_site_label_2
_ccdc_geom_bond_type
C10   H9    S    
C7    C10   S    
C2    C4    S    
C18   N5    S    
C9    H11   S    
H16   N3    S    
C17   O7    A    
C9    C10   S    
O6    Zn2   S    
N1    N2    T    
C17   O8    A    
O5    Zn1   S    
C10   H1    S    
C2    H12   S    
C7    C18   S    
N1    Zn2   S    
O8    Zn2   S    
O7    Zn1   S    
C1    C16   S    
C6    C13   S    
H2    N3    S    
H8    N6    S    
C5    C14   S    
C4    H14   S    
O2    Zn2   S    
C8    C11   S    
H5    N5    S    
O1    Zn1   S    
C4    N4    S    
C5    C11   T    
C14   O5    A    
H3    N4    S    
H7    N6    S    
C6    C12   T    
C7    C12   S    
C3    H15   S    
O4    Zn2   S    
C15   C16   T    
H4    N4    S    
C2    N6    S    
C1    O2    A    
C13   O3    A    
H6    N5    S    
C3    N3    S    
C3    C18   S    
C14   O6    A    
C3    C8    S    
C1    O1    A    
C4    C8    S    
C15   C17   S    
O3    Zn1   S    
C18   H13   S    
C13   O4    A    
N2    Zn1   S    
C2    C7    S    
C9    H10   S    
C8    C9    S    
