data_mof_unit_5018.cif
_audit_creation_date              2012-12-10T20:25:45-0500
_audit_creation_method            fapswitch 2.2
_symmetry_space_group_name_H-M    P1
_symmetry_Int_Tables_number       1
_space_group_crystal_system       triclinic
_cell_length_a                    8.572965
_cell_length_b                    10.711511
_cell_length_c                    9.951193
_cell_angle_alpha                 89.737947
_cell_angle_beta                  96.714794
_cell_angle_gamma                 90.96836
_cell_volume                      907.411148966

loop_
_atom_site_label
_atom_site_type_symbol
_atom_type_description
_atom_site_fract_x
_atom_site_fract_y
_atom_site_fract_z
_atom_type_partial_charge
C1    C     C_R   0.511169 0.260369 0.500764 0.986518
C2    C     C_R   0.363748 0.480214 0.915790 0.081581
C3    C     C_3   0.250956 0.371836 0.899331 -0.333609
C4    C     C_R   0.202661 0.497063 0.466614 0.998172
C5    C     C_3   0.254888 0.367607 0.053319 -0.350204
C6    C     C_R   0.507391 0.739556 0.500665 0.932939
C7    C     C_R   0.797070 0.507524 0.533142 0.920088
C8    C     C_2   0.041202 0.472862 0.457512 -0.193057
C9    C     C_2   0.958145 0.536467 0.540745 -0.181104
C10   C     C_R   0.531716 0.062135 0.622282 -0.000158
C11   C     C_R   0.543389 0.128939 0.503231 -0.155545
C12   C     C_R   0.577899 0.933738 0.389797 -0.149393
C13   C     C_R   0.586827 0.063311 0.389167 0.506599
C14   C     C_2   0.988931 0.353124 0.389858 0.491481
C15   C     C_2   0.091980 0.405781 0.831409 0.507731
C16   C     C_2   0.327785 0.250762 0.113596 0.564537
C17   C     C_2   0.010126 0.654924 0.612601 0.338630
C18   C     C_2   0.519316 0.870217 0.864482 0.525642
C19   C     C_2   0.255221 0.103292 0.687075 0.490926
C20   C     C_2   0.757975 0.607438 0.167892 0.533181
C21   C     C_R   0.538851 0.870372 0.504869 -0.158317
C22   C     C_R   0.538094 0.934956 0.625442 -0.092999
C23   C     C_3   0.434098 0.921943 0.735946 -0.259131
C24   C     C_3   0.422242 0.064401 0.730756 0.278038
C25   C     C_R   0.365459 0.476798 0.057171 0.154443
C26   C     C_R   0.626493 0.544748 0.084260 -0.055886
C27   C     C_R   0.626232 0.544929 0.940514 0.513235
H1    H     H_    0.301827 0.290994 0.853671 0.222049
H2    H     H_    0.684945 0.198206 0.298248 0.369659
H3    H     H_    0.642891 0.891955 0.893051 0.077684
H4    H     H_    0.169357 0.095059 0.758678 0.107217
H5    H     H_    0.603450 0.122496 0.857393 0.355432
H6    H     H_    0.734989 0.667623 0.250113 0.081534
H7    H     H_    0.142300 0.391604 0.091655 0.200907
H8    H     H_    0.596293 0.883666 0.298708 0.187190
H9    H     H_    0.322340 0.870892 0.702483 0.210812
H10   H     H_    0.027483 0.329733 0.293330 0.099443
H11   H     H_    0.704103 0.650872 0.808313 0.341391
H12   H     H_    0.041591 0.495111 0.851361 0.118337
H13   H     H_    0.442035 0.222952 0.089040 0.146863
H14   H     H_    0.949438 0.686395 0.695649 0.096698
N1    N     N_R   0.498950 0.499140 0.142680 -0.193879
N2    N     N_R   0.498950 0.499180 0.857030 -0.164401
O1    O     O_R   0.500020 0.316790 0.614690 -0.592417
O2    O     O_3   0.749803 0.602147 0.887325 -0.753237
O3    O     O_2   0.016331 0.331227 0.756568 -0.536437
O4    O     O_2   0.258252 0.185885 0.189110 -0.529767
O5    O     O_2   0.113654 0.721694 0.575317 -0.565022
O6    O     O_3   0.628127 0.119359 0.273313 -0.752995
O7    O     O_2   0.449057 0.804185 0.938392 -0.577712
O8    O     O_2   0.213639 0.141254 0.572881 -0.541374
O9    O     O_3   0.487022 0.124757 0.850633 -0.811335
O10   O     O_2   0.893413 0.594374 0.144429 -0.566135
O11   O     O_R   0.500000 0.316760 0.385350 -0.623985
O12   O     O_R   0.271760 0.500010 0.587850 -0.587992
O13   O     O_R   0.271740 0.499970 0.358500 -0.616405
O14   O     O_R   0.500000 0.683240 0.614650 -0.636704
O15   O     O_R   0.499980 0.683210 0.385310 -0.635585
O16   O     O_R   0.728260 0.500030 0.641500 -0.604419
O17   O     O_R   0.728240 0.499990 0.412150 -0.665694
O18   O     O_2   0.912134 0.276413 0.446394 -0.541961
Zn1   Zn    Zn3+2 0.500010 0.500020 0.653130 1.012003
Zn2   Zn    Zn3+2 0.499990 0.499980 0.346870 0.975899

loop_
_geom_bond_atom_site_label_1
_geom_bond_atom_site_label_2
_ccdc_geom_bond_type
C25   N1    A    
C24   O9    S    
C1    O11   A    
C18   H3    S    
C19   O8    D    
C6    O15   A    
C1    O1    A    
C1    C11   S    
C17   O5    D    
C2    N2    A    
C4    C8    S    
C19   H4    S    
C5    H7    S    
C27   O2    S    
C2    C3    S    
C8    C9    D    
O13   Zn2   S    
O14   Zn1   S    
H2    O6    S    
C21   C22   A    
C4    O13   A    
C12   H8    S    
C11   C13   A    
C6    O14   A    
C15   H12   S    
C26   C27   A    
C20   C26   S    
C16   H13   S    
O17   Zn2   S    
C13   O6    S    
C20   H6    S    
N1    Zn2   S    
C16   O4    D    
C7    O16   A    
C3    H1    S    
O1    Zn1   S    
C19   C24   S    
C2    C25   A    
C7    C9    S    
C4    O12   A    
C17   H14   S    
C10   C11   A    
C23   C24   S    
C18   C23   S    
C3    C5    S    
O12   Zn1   S    
C27   N2    A    
C7    O17   A    
C14   O18   D    
C3    C15   S    
C12   C13   A    
C18   O7    D    
C14   H10   S    
C23   H9    S    
O11   Zn2   S    
C9    C17   S    
O15   Zn2   S    
C26   N1    A    
C22   C23   S    
H5    O9    S    
C5    C16   S    
C8    C14   S    
O16   Zn1   S    
C15   O3    D    
C10   C24   S    
C6    C21   S    
C12   C21   A    
C10   C22   A    
N2    Zn1   S    
C20   O10   D    
H11   O2    S    
C5    C25   S    
