data_mof_unit_6135.cif
_audit_creation_date              2012-12-11T14:01:35-0500
_audit_creation_method            fapswitch 2.2
_symmetry_space_group_name_H-M    P1
_symmetry_Int_Tables_number       1
_space_group_crystal_system       triclinic
_cell_length_a                    19.019468
_cell_length_b                    11.000696
_cell_length_c                    18.749605
_cell_angle_alpha                 90.002657
_cell_angle_beta                  90.056716
_cell_angle_gamma                 89.999401
_cell_volume                      3922.92890784

loop_
_atom_site_label
_atom_site_type_symbol
_atom_type_description
_atom_site_fract_x
_atom_site_fract_y
_atom_site_fract_z
_atom_type_partial_charge
C1    C     C_R   0.272949 0.040791 0.854068 0.556422
C2    C     C_R   0.042390 0.650075 0.957630 -0.138897
C3    C     C_R   0.457495 0.150026 0.042454 -0.139130
C4    C     C_R   0.472451 0.163380 0.970280 -0.134030
C5    C     C_2   0.245245 0.572691 0.917729 -0.092702
C6    C     C_2   0.755530 0.572655 0.082311 -0.097719
C7    C     C_2   0.744486 0.072701 0.917705 -0.097919
C8    C     C_2   0.254772 0.072651 0.082286 -0.092540
C9    C     C_2   0.247950 0.577223 0.074612 -0.126974
C10   C     C_2   0.751652 0.574376 0.926286 -0.134313
C11   C     C_2   0.748366 0.074415 0.073734 -0.133807
C12   C     C_R   0.727115 0.040355 0.145666 0.549563
C13   C     C_2   0.252066 0.077179 0.925408 -0.127367
C14   C     C_2   0.281546 0.496132 0.033196 -0.142328
C15   C     C_2   0.720741 0.489610 0.967900 -0.136093
C16   C     C_2   0.779279 0.989658 0.032112 -0.135552
C17   C     C_2   0.218467 0.996080 0.966817 -0.142908
C18   C     C_2   0.295398 0.519262 0.957440 0.102178
C19   C     C_2   0.708091 0.507580 0.044965 0.110345
C20   C     C_2   0.791932 0.007640 0.955051 0.109720
C21   C     C_2   0.204628 0.019181 0.042582 0.102771
C22   C     C_2   0.484962 0.829124 0.571034 -0.104532
C23   C     C_R   0.772891 0.540340 0.854342 0.552560
C24   C     C_2   0.486841 0.839639 0.414909 -0.107862
C25   C     C_2   0.984960 0.329124 0.571034 -0.105283
C26   C     C_2   0.986841 0.339640 0.414909 -0.107328
C27   C     C_2   0.466734 0.742348 0.451699 -0.162550
C28   C     C_2   0.452076 0.749937 0.527397 -0.150231
C29   C     C_2   0.966730 0.242350 0.451698 -0.162404
C30   C     C_2   0.952072 0.249940 0.527396 -0.150418
C31   C     C_2   0.255254 0.613480 0.568978 -0.104359
C32   C     C_2   0.753801 0.564993 0.416477 -0.106893
C33   C     C_2   0.755255 0.113481 0.568977 -0.104679
C34   C     C_R   0.227056 0.540805 0.145940 0.553359
C35   C     C_2   0.253802 0.064993 0.416477 -0.106380
C36   C     C_2   0.257221 0.604895 0.413529 -0.106269
C37   C     C_2   0.762300 0.568147 0.571763 -0.103075
C38   C     C_2   0.757223 0.104898 0.413528 -0.106730
C39   C     C_2   0.262301 0.068143 0.571762 -0.102864
C40   C     C_R   0.472877 0.823430 0.851966 0.544537
C41   C     C_R   0.531442 0.821281 0.145039 0.534166
C42   C     C_R   0.968546 0.321284 0.854970 0.537121
C43   C     C_R   0.027111 0.323426 0.148042 0.541226
C44   C     C_2   0.218046 0.682591 0.450403 -0.163462
C45   C     C_R   0.468135 0.038292 0.075671 -0.092872
C46   C     C_2   0.817913 0.557176 0.527791 -0.150283
C47   C     C_2   0.718049 0.182596 0.450401 -0.163555
C48   C     C_2   0.317915 0.057176 0.527790 -0.150386
C49   C     C_2   0.230322 0.701609 0.525788 -0.149986
C50   C     C_2   0.813422 0.582595 0.452167 -0.161892
C51   C     C_2   0.730324 0.201611 0.525787 -0.149957
C52   C     C_2   0.313424 0.082594 0.452166 -0.161836
C53   C     C_R   0.260280 0.634427 0.850584 0.558910
C54   C     C_R   0.739894 0.634015 0.149561 0.543689
C55   C     C_R   0.760110 0.134029 0.850444 0.546917
C56   C     C_R   0.493239 0.063272 0.930111 -0.074069
C57   C     C_R   0.239725 0.134412 0.149422 0.555706
C58   C     C_R   0.273977 0.042033 0.646154 0.549197
C59   C     C_R   0.729102 0.048470 0.350165 0.557305
C60   C     C_R   0.773975 0.542036 0.646155 0.548368
C61   C     C_R   0.229101 0.548468 0.350167 0.558044
C62   C     C_R   0.467512 0.823230 0.645935 0.545065
C63   C     C_R   0.527539 0.824576 0.350442 0.555566
C64   C     C_R   0.967512 0.323230 0.645936 0.547335
C65   C     C_R   0.027541 0.324576 0.350445 0.553098
C66   C     C_R   0.261802 0.642442 0.643738 0.545902
C67   C     C_R   0.006644 0.563266 0.069951 -0.074027
C68   C     C_R   0.740102 0.633946 0.352452 0.554644
C69   C     C_R   0.761802 0.142441 0.643738 0.546587
C70   C     C_R   0.240102 0.133947 0.352453 0.553864
C71   C     C_R   0.513262 0.827445 0.069520 0.001230
C72   C     C_R   0.508369 0.838886 0.920779 -0.003890
C73   C     C_R   0.991590 0.338869 0.079244 -0.003384
C74   C     C_R   0.986706 0.327459 0.930499 0.000246
C75   C     C_R   0.493087 0.937396 0.036463 0.024133
C76   C     C_R   0.498657 0.946840 0.961541 0.030266
C77   C     C_R   0.001261 0.446841 0.038500 0.031013
C78   C     C_R   0.031775 0.538348 0.924391 -0.092644
C79   C     C_R   0.006842 0.437423 0.963577 0.023696
C80   C     C_R   0.532309 0.734020 0.954134 -0.164577
C81   C     C_R   0.535181 0.728647 0.027370 -0.162391
C82   C     C_R   0.964816 0.228632 0.972636 -0.162726
C83   C     C_R   0.967679 0.233993 0.045874 -0.164618
C84   C     C_3   0.421907 0.489967 0.972756 -0.289607
C85   C     C_3   0.599350 0.382953 0.037683 -0.315972
C86   C     C_3   0.900688 0.883052 0.962339 -0.315796
C87   C     C_3   0.078114 0.989911 0.027325 -0.289055
C88   C     C_R   0.027416 0.663400 0.029803 -0.134146
Cr1   Cr    Cr6+3 0.230530 0.836340 0.748870 1.014951
Cr2   Cr    Cr6+3 0.614360 0.677860 0.250770 1.022904
Cr3   Cr    Cr6+3 0.885640 0.177860 0.749230 1.024529
Cr4   Cr    Cr6+3 0.114360 0.177860 0.250770 1.031601
Cr5   Cr    Cr6+3 0.769470 0.836340 0.251130 1.012171
Cr6   Cr    Cr6+3 0.730530 0.336340 0.748870 1.013999
Cr7   Cr    Cr6+3 0.269470 0.336340 0.251130 1.013172
Cr8   Cr    Cr6+3 0.387420 0.989430 0.750820 1.011920
Cr9   Cr    Cr6+3 0.612580 0.989430 0.249180 1.016917
Cr10  Cr    Cr6+3 0.887420 0.489430 0.750820 1.018691
Cr11  Cr    Cr6+3 0.112580 0.489430 0.249180 1.010165
Cr12  Cr    Cr6+3 0.385640 0.677860 0.749230 1.033142
H1    H     H_    0.544537 0.653096 0.923657 0.134499
H2    H     H_    0.858199 0.627554 0.427705 0.151833
H3    H     H_    0.712546 0.288176 0.547201 0.159649
H4    H     H_    0.358200 0.127553 0.427704 0.151929
H5    H     H_    0.305936 0.569007 0.435435 0.102291
H6    H     H_    0.709464 0.586942 0.552821 0.092653
H7    H     H_    0.805937 0.069009 0.435433 0.102289
H8    H     H_    0.209465 0.086936 0.552819 0.092782
H9    H     H_    0.273634 0.526284 0.549351 0.092746
H10   H     H_    0.710824 0.513107 0.439557 0.101789
H11   H     H_    0.773634 0.026285 0.549350 0.092655
H12   H     H_    0.554497 0.645287 0.050912 0.179497
H13   H     H_    0.210825 0.013108 0.439557 0.101823
H14   H     H_    0.455846 0.031570 0.131828 0.126738
H15   H     H_    0.506647 0.078913 0.874853 0.132779
H16   H     H_    0.993231 0.578867 0.125214 0.131035
H17   H     H_    0.044079 0.531654 0.868237 0.128723
H18   H     H_    0.032461 0.750961 0.055286 0.106089
H19   H     H_    0.060822 0.726833 0.926820 0.108621
H20   H     H_    0.439056 0.226767 0.073280 0.107947
H21   H     H_    0.467385 0.250944 0.944811 0.106754
H22   H     H_    0.300140 0.410376 0.054972 0.153012
H23   H     H_    0.945534 0.145257 0.949082 0.179328
H24   H     H_    0.705846 0.402405 0.945309 0.154278
H25   H     H_    0.794172 0.902447 0.054692 0.154708
H26   H     H_    0.199862 0.910339 0.945027 0.152614
H27   H     H_    0.228728 0.662802 0.053169 0.097309
H28   H     H_    0.768214 0.661643 0.947508 0.095816
H29   H     H_    0.731807 0.161689 0.052522 0.095470
H30   H     H_    0.271295 0.162746 0.946864 0.097670
H31   H     H_    0.193563 0.588585 0.940626 0.086168
H32   H     H_    0.805187 0.597505 0.057538 0.079581
H33   H     H_    0.694830 0.097554 0.942481 0.079690
H34   H     H_    0.955478 0.153050 0.076340 0.133811
H35   H     H_    0.306447 0.088572 0.059385 0.086167
H36   H     H_    0.467093 0.652222 0.427964 0.151846
H37   H     H_    0.417160 0.680551 0.548613 0.158943
H38   H     H_    0.967088 0.152224 0.427963 0.151591
H39   H     H_    0.917154 0.180556 0.548612 0.158903
H40   H     H_    0.482311 0.930402 0.437379 0.101595
H41   H     H_    0.519827 0.899861 0.551646 0.092713
H42   H     H_    0.982311 0.430403 0.437379 0.101828
H43   H     H_    0.019827 0.399858 0.551645 0.092758
H44   H     H_    0.358137 0.407191 0.895472 0.247588
H45   H     H_    0.171550 0.724486 0.427321 0.151894
H46   H     H_    0.469913 0.478367 0.940038 0.129275
H47   H     H_    0.420053 0.417272 0.013601 0.113225
H48   H     H_    0.423831 0.579464 0.999862 0.178783
H49   H     H_    0.658110 0.418503 0.129297 0.264520
H50   H     H_    0.552056 0.363000 0.070245 0.142700
H51   H     H_    0.623957 0.295563 0.021657 0.144242
H52   H     H_    0.582331 0.434180 0.989720 0.138433
H53   H     H_    0.841919 0.918545 0.870725 0.265987
H54   H     H_    0.947987 0.863120 0.929779 0.143495
H55   H     H_    0.876095 0.795651 0.978363 0.144137
H56   H     H_    0.870141 0.537803 0.548536 0.157827
H57   H     H_    0.917695 0.934295 0.010303 0.137923
H58   H     H_    0.141933 0.906981 0.104507 0.246384
H59   H     H_    0.030127 0.978292 0.060068 0.128553
H60   H     H_    0.079934 0.917268 0.986443 0.113476
H61   H     H_    0.076184 0.079446 0.000267 0.179380
H62   H     H_    0.671554 0.224493 0.427319 0.151787
H63   H     H_    0.370143 0.037804 0.548536 0.158004
H64   H     H_    0.212543 0.788173 0.547202 0.159710
N1    N     N_2   0.360949 0.483900 0.926962 -0.469285
N2    N     N_2   0.648175 0.454451 0.079474 -0.492090
N3    N     N_2   0.851853 0.954518 0.920543 -0.491949
N4    N     N_2   0.139099 0.983756 0.073077 -0.469428
O1    O     O_R   0.215090 0.709860 0.828130 -0.536788
O2    O     O_R   0.543740 0.718170 0.330000 -0.512639
O3    O     O_R   0.956260 0.218170 0.670000 -0.511698
O4    O     O_R   0.043740 0.218170 0.330000 -0.515431
O5    O     O_R   0.320940 0.626760 0.674370 -0.506161
O6    O     O_R   0.679060 0.626760 0.325630 -0.502060
O7    O     O_R   0.820940 0.126760 0.674370 -0.505577
O8    O     O_R   0.179060 0.126760 0.325630 -0.502662
O9    O     O_3   0.334530 0.834540 0.749640 -0.252071
O10   O     O_3   0.665470 0.834540 0.250360 -0.245092
O11   O     O_3   0.834530 0.334540 0.749640 -0.251845
O12   O     O_R   0.784910 0.709860 0.171870 -0.533498
O13   O     O_3   0.165470 0.334540 0.250360 -0.245316
O14   O     O_R   0.236990 0.958390 0.823710 -0.498805
O15   O     O_R   0.763010 0.958390 0.176290 -0.503300
O16   O     O_R   0.736990 0.458390 0.823710 -0.500413
O17   O     O_R   0.263010 0.458390 0.176290 -0.501678
O18   O     O_R   0.332380 0.074750 0.830850 -0.512538
O19   O     O_R   0.667620 0.074750 0.169150 -0.510510
O20   O     O_R   0.832380 0.574750 0.830850 -0.507863
O21   O     O_R   0.167620 0.574750 0.169150 -0.515158
O22   O     O_R   0.445800 0.917770 0.825070 -0.512620
O23   O     O_R   0.715090 0.209860 0.828130 -0.530483
O24   O     O_R   0.554200 0.917770 0.174930 -0.506378
O25   O     O_R   0.945800 0.417770 0.825070 -0.504119
O26   O     O_R   0.054200 0.417770 0.174930 -0.514772
O27   O     O_R   0.456410 0.716580 0.829970 -0.501140
O28   O     O_R   0.543590 0.716580 0.170030 -0.517515
O29   O     O_R   0.956410 0.216580 0.829970 -0.514373
O30   O     O_R   0.043590 0.216580 0.170030 -0.503871
O31   O     O_R   0.321080 0.625290 0.822650 -0.455277
O32   O     O_R   0.678920 0.625290 0.177350 -0.480459
O33   O     O_R   0.821080 0.125290 0.822650 -0.478053
O34   O     O_R   0.284910 0.209860 0.171870 -0.539674
O35   O     O_R   0.178920 0.125290 0.177350 -0.457811
O36   O     O_R   0.214930 0.711450 0.668160 -0.514500
O37   O     O_R   0.785070 0.711450 0.331840 -0.514427
O38   O     O_R   0.714930 0.211450 0.668160 -0.513771
O39   O     O_R   0.285070 0.211450 0.331840 -0.515160
O40   O     O_R   0.236850 0.959870 0.675420 -0.501406
O41   O     O_R   0.763150 0.959870 0.324580 -0.498880
O42   O     O_R   0.736850 0.459870 0.675420 -0.501712
O43   O     O_R   0.263150 0.459870 0.324580 -0.498606
O44   O     O_R   0.332230 0.076350 0.670880 -0.513497
O45   O     O_R   0.445660 0.919250 0.676780 -0.504953
O46   O     O_R   0.667770 0.076350 0.329120 -0.514838
O47   O     O_R   0.832230 0.576350 0.670880 -0.513417
O48   O     O_R   0.167770 0.576350 0.329120 -0.514966
O49   O     O_R   0.554340 0.919250 0.323220 -0.500888
O50   O     O_R   0.945660 0.419250 0.676780 -0.503490
O51   O     O_R   0.054340 0.419250 0.323220 -0.502249
O52   O     O_R   0.456260 0.718170 0.670000 -0.514721

loop_
_geom_bond_atom_site_label_1
_geom_bond_atom_site_label_2
_ccdc_geom_bond_type
C44   C49   S    
C43   C73   S    
C31   C66   S    
Cr10  O47   S    
Cr2   O10   S    
C75   C76   A    
C14   H22   S    
C34   O17   A    
Cr5   O15   S    
C14   C18   S    
C80   H1    S    
C67   C77   A    
C24   C27   D    
C7    C55   S    
C9    C14   D    
Cr5   O37   S    
C59   O46   A    
H58   N4    S    
C48   H63   S    
C32   C68   S    
C24   H40   S    
Cr7   O34   S    
C15   C19   S    
C6    C19   D    
Cr11  O26   S    
C67   C88   A    
C9    H27   S    
C21   N4    S    
C32   H10   S    
C43   O26   A    
Cr8   O44   S    
C27   H36   S    
C5    C53   S    
C68   O37   A    
C60   O47   A    
C6    C54   S    
C7    H33   S    
C41   O28   A    
C10   C15   D    
C23   O20   A    
Cr4   O30   S    
C17   H26   S    
Cr12  O27   S    
C12   O15   A    
Cr2   O32   S    
Cr11  O48   S    
C51   H3    S    
C55   O33   A    
C54   O32   A    
C87   H60   S    
C22   H41   S    
C61   O43   A    
Cr8   O22   S    
C38   H7    S    
Cr6   O23   S    
C49   H64   S    
Cr10  O20   S    
C84   N1    S    
C85   H50   S    
C47   H62   S    
C45   H14   S    
C18   N1    S    
Cr9   O24   S    
C35   C70   S    
C54   O12   A    
C83   H34   S    
Cr6   O38   S    
C57   O34   A    
C13   H30   S    
C66   O5    A    
C2    C88   A    
C33   H11   S    
C61   O48   A    
Cr1   O9    S    
Cr8   O9    S    
C16   H25   S    
C3    C4    A    
C33   C69   S    
C41   C71   S    
C27   C28   S    
C66   O36   A    
C77   C79   A    
C22   C28   D    
H53   N3    S    
C8    H35   S    
C57   O35   A    
C25   H43   S    
Cr6   O16   S    
C31   C49   D    
C10   H28   S    
Cr12  O9    S    
C11   H29   S    
Cr5   O12   S    
C8    C21   D    
C84   H48   S    
Cr7   O39   S    
C39   H8    S    
C42   C74   S    
C15   H24   S    
C86   N3    S    
C65   O4    A    
C53   O31   A    
Cr8   O18   S    
C78   H17   S    
C6    H32   S    
Cr11  O21   S    
C68   O6    A    
C78   C79   A    
Cr7   O13   S    
C63   O2    A    
C47   C51   S    
C5    C18   D    
C70   O39   A    
C1    O18   A    
C39   C58   S    
C3    C45   A    
C17   C21   S    
Cr8   O45   S    
Cr10  O25   S    
Cr3   O11   S    
C25   C64   S    
C62   O52   A    
C42   O25   A    
C67   H16   S    
C85   H51   S    
C29   C30   S    
C2    C78   A    
C8    C57   S    
C22   C62   S    
C11   C16   D    
C64   O50   A    
C87   N4    S    
C81   H12   S    
C48   C52   S    
C16   C20   S    
Cr2   O2    S    
C44   H45   S    
C31   H9    S    
Cr3   O7    S    
C72   C76   A    
C86   H55   S    
C69   O38   A    
C32   C50   D    
C38   C47   D    
Cr3   O33   S    
Cr4   O35   S    
C19   N2    S    
Cr11  O51   S    
C50   H2    S    
C24   C63   S    
C58   O44   A    
C74   C79   A    
Cr10  O50   S    
Cr5   O41   S    
C9    C34   S    
C62   O45   A    
Cr9   O49   S    
C36   C44   D    
C1    C13   S    
C85   N2    S    
C88   H18   S    
C36   C61   S    
C82   H23   S    
C35   C52   D    
C53   O1    A    
Cr7   O17   S    
Cr3   O29   S    
C65   O51   A    
C74   C82   A    
C84   H47   S    
C25   C30   D    
Cr9   O19   S    
C20   N3    S    
Cr2   O6    S    
C52   H4    S    
C30   H39   S    
C40   C72   S    
C41   O24   A    
C87   H61   S    
C36   H5    S    
C26   C65   S    
Cr4   O8    S    
C34   O21   A    
C28   H37   S    
C80   C81   A    
C29   H38   S    
C42   O29   A    
Cr5   O10   S    
Cr6   O42   S    
Cr3   O3    S    
C10   C23   S    
C33   C51   D    
Cr9   O46   S    
C46   H56   S    
C46   C50   S    
C13   C17   D    
H44   N1    S    
C45   C75   A    
Cr7   O43   S    
Cr1   O14   S    
C63   O49   A    
C64   O3    A    
C37   C46   D    
C85   H52   S    
C58   O40   A    
C37   H6    S    
C72   C80   A    
C56   C76   A    
Cr2   O28   S    
C71   C75   A    
C12   O19   A    
Cr9   O10   S    
C70   O8    A    
Cr4   O4    S    
C2    H19   S    
C23   O16   A    
C56   H15   S    
C87   H59   S    
C4    H21   S    
C35   H13   S    
C43   O30   A    
Cr6   O11   S    
C86   H54   S    
C86   H57   S    
C1    O14   A    
Cr11  O13   S    
C37   C60   S    
C3    H20   S    
Cr1   O1    S    
C38   C59   S    
Cr1   O40   S    
Cr12  O31   S    
C5    H31   S    
Cr1   O36   S    
C40   O22   A    
Cr12  O52   S    
C26   C29   D    
C7    C20   D    
Cr12  O5    S    
C73   C77   A    
H49   N2    S    
C84   H46   S    
C69   O7    A    
C82   C83   A    
Cr4   O13   S    
C26   H42   S    
C60   O42   A    
C73   C83   A    
C4    C56   A    
C59   O41   A    
C11   C12   S    
C55   O23   A    
C39   C48   D    
C71   C81   A    
C40   O27   A    
Cr10  O11   S    
