data_mof_unit_52765.cif
_audit_creation_date              2012-12-10T17:56:44-0500
_audit_creation_method            fapswitch 2.2
_symmetry_space_group_name_H-M    P1
_symmetry_Int_Tables_number       1
_space_group_crystal_system       triclinic
_cell_length_a                    10.855866
_cell_length_b                    9.521904
_cell_length_c                    10.983583
_cell_angle_alpha                 90.000083
_cell_angle_beta                  92.368738
_cell_angle_gamma                 90.000044
_cell_volume                      1134.38652343

loop_
_atom_site_label
_atom_site_type_symbol
_atom_type_description
_atom_site_fract_x
_atom_site_fract_y
_atom_site_fract_z
_atom_type_partial_charge
C1    C     C_R   0.262426 0.499854 0.506077 0.784161
C2    C     C_R   0.737574 0.499854 0.493922 0.784161
C3    C     C_R   0.936151 0.626618 0.498115 -0.201763
C4    C     C_R   0.063849 0.626618 0.501886 -0.201764
C5    C     C_R   0.413233 0.074728 0.430363 0.577675
C6    C     C_R   0.586767 0.074728 0.569636 0.577673
C7    C     C_R   0.417846 0.924460 0.427656 -0.169564
C8    C     C_R   0.582154 0.924460 0.572345 -0.169564
C9    C     C_R   0.504238 0.500850 0.262281 0.847217
C10   C     C_R   0.495762 0.500850 0.737719 0.847217
C11   C     C_R   0.554270 0.762100 0.116640 -0.114355
C12   C     C_R   0.445732 0.762100 0.883361 -0.114356
C13   C     C_R   0.530670 0.888654 0.056739 -0.171745
C14   C     C_R   0.469333 0.888654 0.943262 -0.171747
C15   C     C_R   0.483083 0.632811 0.937225 0.029986
C16   C     C_R   0.516920 0.632811 0.062775 0.029987
C17   C     C_R   0.508533 0.504209 0.128374 -0.294548
C18   C     C_R   0.491468 0.504209 0.871626 -0.294548
C19   C     C_R   0.491709 0.378493 0.062571 0.366033
C20   C     C_R   0.508293 0.378493 0.937428 0.366032
C21   C     C_R   0.062632 0.371798 0.515570 -0.060933
C22   C     C_R   0.937368 0.371798 0.484426 -0.060935
C23   C     C_R   0.871670 0.499172 0.489287 -0.081503
C24   C     C_R   0.128329 0.499171 0.510712 -0.081504
Cu1   Cu    Cu3+1 0.500000 0.640660 0.500000 0.929972
Cu2   Cu    Cu3+1 0.500000 0.359340 0.500000 1.080379
H1    H     H_    0.604896 0.768046 0.203083 0.165528
H2    H     H_    0.395106 0.768047 0.796918 0.165528
H3    H     H_    0.557004 0.986655 0.100223 0.187949
H4    H     H_    0.442999 0.986655 0.899779 0.187950
H5    H     H_    0.888240 0.726402 0.499066 0.160937
H6    H     H_    0.111760 0.726401 0.500937 0.160938
H7    H     H_    0.355723 0.864269 0.368743 0.155064
H8    H     H_    0.644277 0.864270 0.631258 0.155064
N1    N     N_R   0.500000 0.852070 0.500000 -0.205150
N2    N     N_R   0.500000 0.147940 0.500000 -0.237827
O1    O     O_R   0.319640 0.618740 0.499990 -0.599651
O2    O     O_R   0.680360 0.618740 0.500010 -0.599652
O3    O     O_R   0.319620 0.381170 0.499990 -0.535116
O4    O     O_R   0.680380 0.381170 0.500010 -0.535116
O5    O     O_R   0.500000 0.618810 0.319650 -0.607777
O6    O     O_R   0.500000 0.618810 0.680350 -0.607777
O7    O     O_R   0.499970 0.381240 0.319640 -0.496047
O8    O     O_R   0.500030 0.381240 0.680360 -0.496046
O9    O     O_3   0.470386 0.252262 0.120273 -0.552546
C25   C     C_3   0.349851 0.206668 0.086741 -0.220508
H9    H     H_    0.328712 0.208752 0.986781 0.151468
H10   H     H_    0.280633 0.270657 0.133857 0.172523
H11   H     H_    0.340943 0.095715 0.114310 0.185097
O10   O     O_3   0.529616 0.252262 0.879726 -0.552546
C26   C     C_3   0.650150 0.206667 0.913257 -0.220504
H12   H     H_    0.671289 0.208747 0.013217 0.151469
H13   H     H_    0.719369 0.270658 0.866143 0.172521
H14   H     H_    0.659058 0.095715 0.885685 0.185099
C27   C     C_1   0.116609 0.246690 0.570740 0.256683
N3    N     N_1   0.159041 0.148046 0.617609 -0.319629
C28   C     C_1   0.883390 0.246692 0.429253 0.256679
N4    N     N_1   0.840957 0.148049 0.382382 -0.319629
O11   O     O_3   0.327418 0.151475 0.359946 -0.529990
C29   C     C_3   0.215518 0.078316 0.335273 -0.380313
H15   H     H_    0.143074 0.155664 0.308128 0.194300
H16   H     H_    0.183398 0.020163 0.415701 0.175191
H17   H     H_    0.224133 0.004242 0.258211 0.142492
O12   O     O_3   0.672582 0.151476 0.640054 -0.529991
C30   C     C_3   0.784484 0.078320 0.664721 -0.380313
H18   H     H_    0.856929 0.155669 0.691858 0.194302
H19   H     H_    0.816599 0.020165 0.584291 0.175188
H20   H     H_    0.775876 0.004248 0.741784 0.142493

loop_
_geom_bond_atom_site_label_1
_geom_bond_atom_site_label_2
_ccdc_geom_bond_type
Cu1   O6    S    
C15   C18   A    
C20   O10   S    
C27   N3    T    
C19   O9    S    
C1    O1    A    
Cu1   O2    S    
C10   O6    A    
C11   C13   A    
C11   C16   A    
C2    O2    A    
C9    O5    A    
C19   C20   A    
C30   H19   S    
C12   C15   A    
C11   H1    S    
C26   H14   S    
O12   C30   S    
C30   H20   S    
C22   C28   S    
O10   C26   S    
C12   C14   A    
Cu2   O8    S    
O11   C29   S    
C8    H8    S    
C21   C22   A    
C9    C17   S    
C3    H5    S    
C7    H7    S    
C25   H11   S    
Cu2   O4    S    
C28   N4    T    
C4    H6    S    
C7    N1    A    
C14   H4    S    
C29   H17   S    
C13   H3    S    
C17   C19   A    
C10   C18   S    
Cu2   O7    S    
C18   C20   A    
C4    C24   A    
C25   H10   S    
Cu2   O3    S    
C9    O7    A    
Cu1   N1    S    
C1    O3    A    
C10   O8    A    
C15   C16   A    
C5    N2    A    
C2    O4    A    
Cu2   N2    S    
C26   H12   S    
C12   H2    S    
C1    C24   S    
C29   H16   S    
C30   H18   S    
C21   C24   A    
C6    O12   S    
C2    C23   S    
C5    C7    A    
C5    O11   S    
C25   H9    S    
Cu1   O5    S    
C21   C27   S    
C6    C8    A    
C13   C14   A    
Cu1   O1    S    
Cu1   Cu2   S    
C22   C23   A    
C3    C23   A    
C3    C4    A    
C16   C17   A    
C6    N2    A    
C29   H15   S    
C26   H13   S    
C8    N1    A    
O9    C25   S    
