data_mof_unit_34084.cif
_audit_creation_date              2012-12-10T17:50:13-0500
_audit_creation_method            fapswitch 2.2
_symmetry_space_group_name_H-M    P1
_symmetry_Int_Tables_number       1
_space_group_crystal_system       triclinic
_cell_length_a                    10.626662
_cell_length_b                    14.776247
_cell_length_c                    14.665399
_cell_angle_alpha                 64.742637
_cell_angle_beta                  104.154458
_cell_angle_gamma                 103.37526
_cell_volume                      1998.13268815

loop_
_atom_site_label
_atom_site_type_symbol
_atom_type_description
_atom_site_fract_x
_atom_site_fract_y
_atom_site_fract_z
_atom_type_partial_charge
C1    C     C_R   0.478624 0.119625 0.311841 0.823111
C2    C     C_R   0.519250 0.880434 0.687927 0.814873
C3    C     C_R   0.466559 0.289461 0.174808 -0.263660
C4    C     C_R   0.521528 0.710809 0.824936 -0.256433
C5    C     C_R   0.461231 0.358092 0.072638 0.054781
C6    C     C_R   0.489062 0.638097 0.918926 0.040703
C7    C     C_R   0.464403 0.321769 0.997911 0.080839
C8    C     C_R   0.463967 0.672263 0.988959 0.121992
C9    C     C_R   0.458675 0.462736 0.044045 0.090757
C10   C     C_R   0.479066 0.532501 0.944261 0.086943
C11   C     C_R   0.483734 0.494153 0.871956 -0.221910
C12   C     C_R   0.432350 0.499260 0.111218 -0.242955
C13   C     C_R   0.474601 0.391297 0.897921 -0.226025
C14   C     C_R   0.433759 0.601497 0.083751 -0.213388
C15   C     C_R   0.721600 0.287003 0.667624 -0.351743
C16   C     C_R   0.288749 0.716828 0.325897 -0.350469
C17   C     C_R   0.686578 0.204325 0.639093 0.462176
C18   C     C_R   0.317491 0.797025 0.357921 0.457987
C19   C     C_R   0.517779 0.285076 0.509061 -0.058492
C20   C     C_R   0.481488 0.714427 0.492110 -0.057437
C21   C     C_R   0.549544 0.371583 0.534845 -0.022864
C22   C     C_R   0.453353 0.629177 0.464387 -0.023142
C23   C     C_R   0.259473 0.000037 0.499728 0.812011
C24   C     C_R   0.740568 0.999534 0.501240 0.828120
C25   C     C_R   0.652432 0.369472 0.617334 0.121712
C26   C     C_R   0.354775 0.633016 0.378930 0.124934
C27   C     C_R   0.483792 0.459380 0.482571 0.093705
C28   C     C_R   0.519538 0.541490 0.516631 0.088942
C29   C     C_R   0.620549 0.533245 0.601237 -0.243269
C30   C     C_R   0.384908 0.468461 0.396583 -0.237059
C31   C     C_R   0.686163 0.449491 0.649607 -0.183602
C32   C     C_R   0.322276 0.553527 0.346022 -0.192825
C33   C     C_3   0.007159 0.923897 0.475024 -0.234420
C34   C     C_3   0.992797 0.076053 0.527332 -0.220273
C35   C     C_3   0.931722 0.013955 0.409750 0.318782
C36   C     C_3   0.068330 0.986053 0.592453 0.321869
C37   C     C_3   0.877604 0.999838 0.502669 -0.066722
C38   C     C_3   0.122639 0.999809 0.499612 -0.073522
C39   C     C_3   0.952763 0.909723 0.570190 -0.224080
C40   C     C_3   0.047500 0.090322 0.432169 -0.224903
C41   C     C_R   0.467895 0.186939 0.202954 -0.104187
C42   C     C_R   0.514522 0.812780 0.795161 -0.083316
C43   C     C_R   0.460799 0.216976 0.024894 0.265936
C44   C     C_R   0.464770 0.776567 0.961317 0.265998
C45   C     C_R   0.462498 0.150480 0.128193 -0.217918
C46   C     C_R   0.486509 0.845667 0.863360 -0.252487
Cu1   Cu    Cu3+1 0.465750 0.918270 0.475680 0.955568
Cu2   Cu    Cu3+1 0.534250 0.081730 0.524320 0.950794
H1    H     H_    0.652322 0.590985 0.631704 0.127772
H2    H     H_    0.354218 0.411249 0.365418 0.123263
H3    H     H_    0.912230 0.837060 0.627130 0.138420
H4    H     H_    0.089420 0.162984 0.376062 0.138144
N1    N     N_R   0.585750 0.204560 0.560800 -0.192720
N2    N     N_R   0.414250 0.795440 0.439200 -0.192964
O1    O     O_R   0.454850 0.022100 0.338110 -0.579548
O2    O     O_R   0.545150 0.977900 0.661890 -0.553596
O3    O     O_R   0.512700 0.160150 0.379180 -0.590416
O4    O     O_R   0.487300 0.839850 0.620820 -0.592315
O5    O     O_R   0.287930 0.931000 0.479440 -0.544471
O6    O     O_R   0.712070 0.069000 0.520560 -0.569765
O7    O     O_R   0.345780 0.069050 0.520520 -0.603083
O8    O     O_R   0.654220 0.930950 0.479480 -0.590920
N3    N     N_2   0.847987 0.026320 0.312230 -0.431323
H5    H     H_    0.803400 0.958911 0.306020 0.250610
C47   C     C_3   0.899602 0.101137 0.222467 -0.708010
H6    H     H_    0.828482 0.101506 0.152841 0.228173
H7    H     H_    0.994183 0.084003 0.218929 0.219012
H8    H     H_    0.914282 0.177487 0.223768 0.239966
N4    N     N_2   0.148486 0.971019 0.691617 -0.430805
H9    H     H_    0.230990 0.024473 0.688349 0.254723
C48   C     C_3   0.077822 0.954782 0.771145 -0.708307
H10   H     H_    0.146179 0.938034 0.845069 0.224824
H11   H     H_    0.998358 0.889425 0.779339 0.235404
H12   H     H_    0.035198 0.023560 0.753263 0.220379
H13   H     H_    0.557341 0.718763 0.554530 0.133203
H14   H     H_    0.438504 0.279206 0.449212 0.134408
N5    N     N_2   0.249348 0.881885 0.303406 -0.375371
H15   H     H_    0.285278 0.931391 0.237519 0.235352
C49   C     C_3   0.107622 0.859535 0.285882 -0.735643
H16   H     H_    0.072894 0.838929 0.218424 0.209782
H17   H     H_    0.065432 0.927476 0.270568 0.236813
H18   H     H_    0.072028 0.796465 0.353880 0.231274
N6    N     N_2   0.758733 0.121523 0.689266 -0.376716
H19   H     H_    0.851170 0.139363 0.670342 0.223137
C50   C     C_3   0.760927 0.070051 0.798511 -0.706997
H20   H     H_    0.827911 0.115853 0.839140 0.204760
H21   H     H_    0.796612 0.996384 0.826065 0.229259
H22   H     H_    0.660997 0.055522 0.816892 0.234147
H23   H     H_    0.802709 0.286740 0.729121 0.148120
H24   H     H_    0.214819 0.720005 0.259368 0.154185
H25   H     H_    0.013299 0.861858 0.453753 0.157735
H26   H     H_    0.985485 0.136846 0.550380 0.143950
H27   H     H_    0.479260 0.367354 0.838743 0.167576
H28   H     H_    0.409890 0.624528 0.137641 0.186135
H29   H     H_    0.551285 0.690251 0.772040 0.143967
H30   H     H_    0.475503 0.314993 0.235072 0.157617
H31   H     H_    0.477828 0.924380 0.839821 0.145293
H32   H     H_    0.461871 0.070445 0.151529 0.155710
N7    N     N_2   0.454562 0.180881 0.947156 -0.433528
H33   H     H_    0.379041 0.202446 0.886519 0.245008
C51   C     C_3   0.481534 0.079979 0.975470 -0.723279
H34   H     H_    0.486555 0.069788 0.905762 0.225508
H35   H     H_    0.401594 0.023331 0.013000 0.218578
H36   H     H_    0.577453 0.068386 0.027093 0.240301
N8    N     N_2   0.435476 0.811585 0.029285 -0.447642
H37   H     H_    0.382007 0.871029 0.992981 0.247417
C52   C     C_3   0.547466 0.829787 0.101667 -0.727937
H38   H     H_    0.515169 0.852578 0.154369 0.229831
H39   H     H_    0.621245 0.891293 0.060780 0.228105
H40   H     H_    0.593532 0.760153 0.147996 0.242994
H41   H     H_    0.489627 0.541289 0.792880 0.145219
H42   H     H_    0.403860 0.450042 0.184323 0.139134
H43   H     H_    0.764223 0.447174 0.713636 0.144453
H44   H     H_    0.247081 0.557070 0.280017 0.140267

loop_
_geom_bond_atom_site_label_1
_geom_bond_atom_site_label_2
_ccdc_geom_bond_type
C25   C31   A    
C39   H3    S    
N3    C47   S    
C26   C32   A    
C51   H34   S    
C34   C37   S    
Cu1   O8    S    
Cu2   O3    S    
C29   H1    S    
C50   H20   S    
C23   O5    A    
N8    C52   S    
C33   C39   S    
C34   C40   S    
C16   H24   S    
C28   C29   A    
C35   C37   S    
C43   N7    S    
C45   H32   S    
C33   H25   S    
C15   C25   A    
C15   C17   A    
C42   C46   A    
N4    C48   S    
C48   H12   S    
C3    C41   A    
N6    H19   S    
C47   H7    S    
C8    C14   A    
C52   H38   S    
C3    H30   S    
C7    C43   A    
C9    C10   A    
N5    H15   S    
C19   N1    A    
C50   H21   S    
C30   H2    S    
C51   H35   S    
C38   C40   S    
C22   C28   A    
C27   C30   A    
C52   H39   S    
C44   C46   A    
Cu2   O6    S    
N5    C49   S    
C16   C26   A    
Cu2   N1    S    
C11   H41   S    
Cu1   Cu2   S    
C20   N2    A    
C5    C7    A    
C6    C8    A    
C40   H4    S    
C49   H16   S    
C20   H13   S    
C13   H27   S    
C17   N6    S    
C5    C9    A    
C1    O3    A    
C15   H23   S    
C4    H29   S    
N7    H33   S    
C7    C13   A    
C24   O6    A    
C47   H8    S    
C24   C37   S    
C16   C18   A    
C43   C45   A    
Cu1   N2    S    
C1    C41   S    
N6    C50   S    
C46   H31   S    
C12   C14   A    
C51   H36   S    
C52   H40   S    
C4    C6    A    
C17   N1    A    
C12   H42   S    
C36   N4    S    
C44   N8    S    
Cu1   O1    S    
C50   H22   S    
Cu2   O2    S    
C21   C25   A    
C19   H14   S    
C24   O8    A    
N7    C51   S    
C36   C39   S    
C8    C44   A    
C20   C22   A    
C3    C5    A    
C6    C10   A    
C49   H18   S    
C2    O4    A    
C23   C38   S    
N8    H37   S    
C49   H17   S    
C33   C38   S    
C36   C38   S    
C35   C40   S    
C1    O1    A    
C48   H10   S    
C37   C39   S    
C2    O2    A    
Cu1   O4    S    
C30   C32   A    
C11   C13   A    
Cu2   O7    S    
C4    C42   A    
C2    C42   S    
C18   N5    S    
C33   C35   S    
C31   H43   S    
C34   C36   S    
C21   C27   A    
N4    H9    S    
C9    C12   A    
C34   H26   S    
C10   C11   A    
C18   N2    A    
Cu1   O5    S    
N3    H5    S    
C23   O7    A    
C29   C31   A    
C47   H6    S    
C22   C26   A    
C48   H11   S    
C27   C28   A    
C41   C45   A    
C35   N3    S    
C32   H44   S    
C14   H28   S    
C19   C21   A    
