data_mof_unit_61356.cif
_audit_creation_date              2012-12-10T19:30:56-0500
_audit_creation_method            fapswitch 2.2
_symmetry_space_group_name_H-M    P1
_symmetry_Int_Tables_number       1
_space_group_crystal_system       triclinic
_cell_length_a                    17.694814
_cell_length_b                    16.464254
_cell_length_c                    23.543103
_cell_angle_alpha                 89.983474
_cell_angle_beta                  90.156704
_cell_angle_gamma                 89.998858
_cell_volume                      6858.83127594

loop_
_atom_site_label
_atom_site_type_symbol
_atom_type_description
_atom_site_fract_x
_atom_site_fract_y
_atom_site_fract_z
_atom_type_partial_charge
Br1   Br    Br    0.277616 0.406175 0.938810 -0.326825
Br2   Br    Br    0.722622 0.593004 0.061083 -0.325316
Br3   Br    Br    0.716850 0.607650 0.401092 -0.442944
Br4   Br    Br    0.282211 0.392908 0.400762 -0.469112
Br5   Br    Br    0.283106 0.607609 0.598863 -0.450644
Br6   Br    Br    0.717827 0.392837 0.599220 -0.474001
C1    C     C_R   0.355475 0.500012 0.499937 0.888583
C2    C     C_R   0.501839 0.426079 0.701828 -0.165402
C3    C     C_R   0.501742 0.573492 0.238857 -0.075970
C4    C     C_R   0.501665 0.426007 0.761040 -0.072910
C5    C     C_R   0.500211 0.499887 0.209072 0.321426
C6    C     C_R   0.499953 0.499514 0.790896 0.324252
C7    C     C_R   0.845957 0.546022 0.459786 -0.140128
C8    C     C_R   0.153664 0.454443 0.459627 -0.136992
C9    C     C_R   0.154025 0.546008 0.540154 -0.139560
C10   C     C_R   0.846352 0.454412 0.540324 -0.136740
C11   C     C_R   0.767117 0.546315 0.459497 0.219416
C12   C     C_R   0.644524 0.500010 0.500057 0.888301
C13   C     C_R   0.232504 0.454024 0.459311 0.219258
C14   C     C_R   0.232865 0.546299 0.540460 0.220754
C15   C     C_R   0.767512 0.453993 0.540657 0.220107
C16   C     C_R   0.727239 0.500075 0.500062 -0.171148
C17   C     C_R   0.272761 0.500079 0.499912 -0.170748
C18   C     C_R   0.885349 0.500228 0.500033 0.013266
C19   C     C_R   0.114650 0.500236 0.499905 0.013565
C20   C     C_R   0.499886 0.500000 0.390740 0.843521
C21   C     C_R   0.500120 0.499974 0.609260 0.844361
C22   C     C_1   0.966108 0.500250 0.499985 0.020665
C23   C     C_R   0.498354 0.426318 0.238917 -0.072159
C24   C     C_1   0.033891 0.500252 0.499943 0.020724
C25   C     C_R   0.558535 0.828562 0.526419 0.063740
C26   C     C_R   0.465782 0.171439 0.455596 0.065297
C27   C     C_R   0.441464 0.828587 0.473585 0.063697
C28   C     C_R   0.534216 0.171404 0.544408 0.065644
C29   C     C_R   0.556871 0.742899 0.526260 0.062070
C30   C     C_R   0.466018 0.257090 0.456829 0.053921
C31   C     C_R   0.443129 0.742924 0.473741 0.061658
C32   C     C_R   0.533980 0.257057 0.543173 0.054610
C33   C     C_R   0.499999 0.873069 0.500003 0.007665
C34   C     C_R   0.498497 0.573190 0.761194 -0.075768
C35   C     C_R   0.500000 0.126921 0.500003 0.003851
C36   C     C_1   0.500000 0.962743 0.500003 0.104264
C37   C     C_1   0.500000 0.037249 0.500003 0.103714
C38   C     C_R   0.562327 0.525306 0.880331 0.571365
C39   C     C_R   0.437809 0.474150 0.119572 0.569994
C40   C     C_R   0.436386 0.473254 0.879833 0.580417
C41   C     C_R   0.563978 0.525559 0.120068 0.578912
C42   C     C_R   0.434443 0.472179 0.939914 -0.085977
C43   C     C_R   0.565857 0.526798 0.059986 -0.086117
C44   C     C_R   0.499498 0.499276 0.969873 -0.050986
C45   C     C_R   0.498119 0.426271 0.298131 -0.168084
C46   C     C_R   0.500768 0.499815 0.030029 -0.050693
C47   C     C_R   0.563507 0.525941 0.939780 -0.055113
C48   C     C_R   0.436713 0.473296 0.060122 -0.055373
C49   C     C_R   0.370652 0.445557 0.971353 0.296517
C50   C     C_R   0.629626 0.553496 0.028546 0.296264
C51   C     C_R   0.372658 0.446578 0.030522 -0.166233
C52   C     C_R   0.627561 0.552653 0.969378 -0.166595
C53   C     C_R   0.498603 0.573446 0.701978 -0.166025
C54   C     C_R   0.499830 0.499968 0.328239 -0.041408
C55   C     C_R   0.500213 0.499847 0.671762 -0.041215
C56   C     C_R   0.501579 0.573619 0.298069 -0.165247
Cu1   Cu    Cu3+1 0.500000 0.580420 0.500000 1.010833
Cu2   Cu    Cu3+1 0.500000 0.419580 0.500000 1.008353
H1    H     H_    0.601634 0.709633 0.547234 0.158147
H2    H     H_    0.497286 0.631167 0.679925 0.178112
H3    H     H_    0.502888 0.631298 0.320153 0.178509
H4    H     H_    0.503265 0.368464 0.679667 0.171815
H5    H     H_    0.502958 0.630584 0.216030 0.160227
H6    H     H_    0.503001 0.368867 0.783809 0.159425
H7    H     H_    0.876491 0.581159 0.428397 0.186684
H8    H     H_    0.122833 0.419410 0.428233 0.186816
H9    H     H_    0.123478 0.581128 0.571532 0.186241
H10   H     H_    0.877194 0.419360 0.571716 0.186938
H11   H     H_    0.438906 0.290310 0.422813 0.177241
H12   H     H_    0.398365 0.709678 0.452768 0.157598
H13   H     H_    0.561088 0.290252 0.577189 0.176749
H14   H     H_    0.323225 0.425995 0.053454 0.220797
H15   H     H_    0.676950 0.573352 0.946443 0.220321
H16   H     H_    0.497339 0.369194 0.216142 0.159472
H17   H     H_    0.497005 0.630203 0.784084 0.157938
H18   H     H_    0.496662 0.368615 0.320263 0.171451
I1    I     I_    0.651223 0.886254 0.566738 -0.224980
I2    I     I_    0.413500 0.113861 0.385314 -0.217686
I3    I     I_    0.348772 0.886318 0.433272 -0.227369
I4    I     I_    0.586499 0.113768 0.614691 -0.218989
N1    N     N_R   0.499560 0.499332 0.851825 -0.477926
N2    N     N_R   0.500668 0.499867 0.148108 -0.477854
N3    N     N_R   0.500000 0.701220 0.500000 -0.200906
N4    N     N_R   0.500000 0.298780 0.500000 -0.206995
O1    O     O_R   0.391260 0.567930 0.500000 -0.566510
O2    O     O_2   0.376245 0.450008 0.148819 -0.502117
O3    O     O_2   0.376031 0.449347 0.849146 -0.453358
O4    O     O_2   0.624573 0.548855 0.150718 -0.451199
O5    O     O_R   0.608740 0.432070 0.500000 -0.551090
O6    O     O_R   0.608740 0.567930 0.500000 -0.566247
O7    O     O_R   0.391260 0.432070 0.500000 -0.550415
O8    O     O_R   0.499980 0.567930 0.417880 -0.575502
O9    O     O_R   0.500020 0.432070 0.582120 -0.590181
O10   O     O_R   0.500020 0.567930 0.582120 -0.575350
O11   O     O_R   0.499980 0.432070 0.417880 -0.590618
O12   O     O_2   0.623680 0.549965 0.851046 -0.504736

loop_
_geom_bond_atom_site_label_1
_geom_bond_atom_site_label_2
_ccdc_geom_bond_type
C42   C49   A    
C10   C15   A    
C12   O6    A    
Cu2   N4    S    
C41   C43   A    
Br5   C14   S    
C23   H16   S    
C21   O9    A    
C27   C33   A    
C56   H3    S    
C10   H10   S    
C26   C30   A    
C3    H5    S    
Cu1   O8    S    
C53   H2    S    
C9    C19   A    
C29   H1    S    
C25   I1    S    
C54   C56   A    
C28   I4    S    
C39   O2    S    
C27   I3    S    
C21   C55   S    
Br4   C13   S    
C38   C47   A    
Cu2   O9    S    
C50   C52   A    
C44   C46   A    
C26   C35   A    
C38   N1    A    
C2    C55   A    
C42   C44   A    
C10   C18   A    
C34   C53   A    
C28   C32   A    
C15   C16   A    
C12   O5    A    
C35   C37   S    
Cu2   O11   S    
C28   C35   A    
C51   H14   S    
C46   C48   A    
C33   C36   S    
C9    C14   A    
C26   I2    S    
C40   C42   A    
C21   O10   A    
C53   C55   A    
C44   C47   A    
C3    C56   A    
C39   N2    A    
C38   O12   S    
C7    H7    S    
Br6   C15   S    
Cu1   O6    S    
C27   C31   A    
C7    C18   A    
C6    C34   A    
C13   C17   A    
Cu1   O10   S    
C30   H11   S    
C14   C17   A    
C5    N2    S    
C43   C46   A    
C1    O1    A    
Cu1   N3    S    
C3    C5    A    
C45   H18   S    
C4    C6    A    
C52   H15   S    
C20   O8    A    
C29   N3    A    
Cu2   O7    S    
C9    H9    S    
C31   H12   S    
C39   C48   A    
C2    H4    S    
C49   C51   A    
C25   C29   A    
C36   C37   T    
C4    H6    S    
C40   N1    A    
C23   C45   A    
C30   N4    A    
C19   C24   S    
C1    O7    A    
C6    N1    S    
C12   C16   S    
C8    H8    S    
C8    C13   A    
C18   C22   S    
Cu2   O5    S    
C47   C52   A    
C32   H13   S    
C31   N3    A    
C43   C50   A    
C32   N4    A    
C11   C16   A    
C7    C11   A    
C34   H17   S    
C41   N2    A    
C22   C24   T    
Br1   C49   S    
C20   O11   A    
Br2   C50   S    
C40   O3    S    
C1    C17   S    
C41   O4    S    
C25   C33   A    
Br3   C11   S    
C8    C19   A    
Cu1   Cu2   S    
C5    C23   A    
C2    C4    A    
Cu1   O1    S    
C45   C54   A    
C20   C54   S    
C48   C51   A    
