data_mof_unit_41289.cif
_audit_creation_date              2012-12-10T21:00:43-0500
_audit_creation_method            fapswitch 2.2
_symmetry_space_group_name_H-M    P1
_symmetry_Int_Tables_number       1
_space_group_crystal_system       triclinic
_cell_length_a                    18.074298
_cell_length_b                    18.201423
_cell_length_c                    18.360248
_cell_angle_alpha                 119.838983
_cell_angle_beta                  90.179584
_cell_angle_gamma                 119.733864
_cell_volume                      4291.81981357

loop_
_atom_site_label
_atom_site_type_symbol
_atom_type_description
_atom_site_fract_x
_atom_site_fract_y
_atom_site_fract_z
_atom_type_partial_charge
C1    C     C_R   0.111371 0.220250 0.609730 0.503557
C2    C     C_3   0.450338 0.896976 0.947519 0.025694
C3    C     C_3   0.695119 0.714831 0.686761 -0.086024
C4    C     C_1   0.589625 0.688851 0.518382 0.188553
C5    C     C_1   0.410380 0.311176 0.481636 0.188491
C6    C     C_3   0.444945 0.031936 0.016423 -0.123481
C7    C     C_3   0.555056 0.968064 0.983576 -0.123477
C8    C     C_3   0.439360 0.514698 0.476937 -0.177345
C9    C     C_3   0.560639 0.485317 0.523064 -0.177378
C10   C     C_3   0.447143 0.423888 0.416055 0.271568
C11   C     C_3   0.552855 0.576126 0.583943 0.271576
C12   C     C_3   0.550284 0.499986 0.448267 0.025648
C13   C     C_3   0.449716 0.500028 0.551733 0.025649
C14   C     C_3   0.543314 0.590729 0.509846 -0.048679
C15   C     C_R   0.888630 0.779750 0.390269 0.503555
C16   C     C_3   0.456685 0.409285 0.490154 -0.048699
C17   C     C_R   0.046637 0.154136 0.831014 -0.094796
C18   C     C_R   0.953335 0.845853 0.168981 -0.094804
C19   C     C_R   0.392894 0.781082 0.888427 0.507992
C20   C     C_R   0.607105 0.218918 0.111573 0.507994
C21   C     C_R   0.050006 0.111364 0.744499 -0.056853
C22   C     C_R   0.949977 0.888632 0.255500 -0.056847
C23   C     C_R   0.999671 0.105784 0.681207 0.071084
C24   C     C_R   0.000321 0.894215 0.318788 0.071082
C25   C     C_R   0.946266 0.143866 0.705453 -0.061855
C26   C     C_3   0.983877 0.430766 0.414389 -0.111669
C27   C     C_R   0.053725 0.856133 0.294534 -0.061856
C28   C     C_R   0.942931 0.186435 0.792165 -0.098426
C29   C     C_R   0.057048 0.813557 0.207818 -0.098426
C30   C     C_R   0.992610 0.190824 0.854588 -0.099059
C31   C     C_R   0.007359 0.809163 0.145399 -0.099076
C32   C     C_R   0.941901 0.945726 0.532392 -0.049582
C33   C     C_R   0.058097 0.054275 0.467604 -0.049583
C34   C     C_R   0.944263 0.892173 0.445425 -0.007148
C35   C     C_R   0.055738 0.107828 0.554574 -0.007147
C36   C     C_R   0.001049 0.946774 0.412235 -0.062087
C37   C     C_3   0.016124 0.569233 0.585609 -0.111684
C38   C     C_R   0.998950 0.053227 0.587762 -0.062085
C39   C     C_R   0.561947 0.457275 0.713483 -0.102509
C40   C     C_R   0.437993 0.542653 0.286497 -0.102399
C41   C     C_R   0.521892 0.451850 0.777231 -0.068544
C42   C     C_R   0.478081 0.548087 0.222764 -0.068489
C43   C     C_R   0.111203 0.501221 0.890035 0.504320
C44   C     C_R   0.888795 0.498777 0.109964 0.504317
C45   C     C_R   0.570767 0.529616 0.868244 0.040417
C46   C     C_R   0.429208 0.470359 0.131751 0.040443
C47   C     C_R   0.659812 0.613415 0.894187 -0.093370
C48   C     C_3   0.449713 0.966792 0.924333 0.279498
C49   C     C_R   0.340120 0.386595 0.105796 -0.093393
C50   C     C_R   0.699910 0.618233 0.830180 0.012792
C51   C     C_R   0.299975 0.381780 0.169785 0.012690
C52   C     C_R   0.650974 0.539628 0.739816 -0.076931
C53   C     C_R   0.348919 0.460340 0.260149 -0.076943
C54   C     C_R   0.583908 0.519290 0.995258 -0.147534
C55   C     C_R   0.416091 0.480722 0.004754 -0.147535
C56   C     C_R   0.550862 0.502001 0.057747 0.029721
C57   C     C_R   0.449135 0.498004 0.942262 0.029723
C58   C     C_R   0.466110 0.482565 0.063393 -0.028663
C59   C     C_3   0.550288 0.033208 0.075666 0.279496
C60   C     C_R   0.533883 0.517434 0.936614 -0.028672
C61   C     C_R   0.136457 0.786601 0.949062 -0.081675
C62   C     C_R   0.863507 0.213380 0.050921 -0.081678
C63   C     C_R   0.117055 0.725424 0.980557 -0.113736
C64   C     C_R   0.882904 0.274575 0.019446 -0.113695
C65   C     C_R   0.035074 0.627394 0.936976 0.036193
C66   C     C_R   0.964910 0.372580 0.063002 0.036183
C67   C     C_R   0.392500 0.499848 0.608108 0.521227
C68   C     C_R   0.607500 0.500158 0.391892 0.521215
C69   C     C_R   0.971132 0.592972 0.863911 -0.142599
C70   C     C_3   0.554000 0.038731 0.959673 -0.158289
C71   C     C_R   0.028883 0.406950 0.136013 -0.142666
C72   C     C_R   0.990356 0.654377 0.832635 -0.062229
C73   C     C_R   0.009665 0.345524 0.167266 -0.062157
C74   C     C_R   0.073977 0.750028 0.872848 0.317128
C75   C     C_R   0.926020 0.249906 0.127086 0.317170
C76   C     C_R   0.960946 0.554112 0.017885 -0.163064
C77   C     C_R   0.039049 0.445880 0.982109 -0.163062
C78   C     C_R   0.944304 0.496256 0.052451 0.017266
C79   C     C_R   0.055690 0.503736 0.947544 0.017269
C80   C     C_R   0.982734 0.439845 0.033005 -0.025492
C81   C     C_3   0.446001 0.961269 0.040327 -0.158295
C82   C     C_R   0.017258 0.560143 0.966986 -0.025499
C83   C     C_R   0.393853 0.498275 0.886845 0.499384
C84   C     C_R   0.606146 0.501727 0.113158 0.499366
C85   C     C_R   0.109014 0.500360 0.607935 0.500420
C86   C     C_R   0.890987 0.499640 0.392065 0.500425
C87   C     C_3   0.078392 0.526090 0.483503 -0.125902
C88   C     C_3   0.921610 0.473909 0.516495 -0.125911
C89   C     C_3   0.042429 0.594525 0.516896 -0.121713
C90   C     C_3   0.957572 0.405474 0.483102 -0.121717
C91   C     C_3   0.948751 0.499220 0.448631 0.063478
C92   C     C_3   0.549662 0.103024 0.052481 0.025694
C93   C     C_3   0.051250 0.500779 0.551367 0.063471
C94   C     C_1   0.878595 0.891875 0.565412 0.248823
C95   C     C_1   0.121394 0.108127 0.434576 0.248824
C96   C     C_1   0.792202 0.702108 0.857431 0.157451
C97   C     C_1   0.207589 0.297993 0.142517 0.157318
C98   C     C_3   0.174672 0.844608 0.827304 -0.092814
C99   C     C_3   0.825359 0.155360 0.172674 -0.092826
C100  C     C_3   0.420888 0.892705 0.773716 -0.117479
C101  C     C_3   0.579113 0.107293 0.226283 -0.117471
C102  C     C_3   0.304905 0.285123 0.313232 -0.086080
H1    H     H_    0.076408 0.672120 0.529879 0.113358
H2    H     H_    0.093371 0.860718 0.342920 0.096292
H3    H     H_    0.901406 0.215345 0.810847 0.104111
H4    H     H_    0.098571 0.784645 0.189131 0.104104
H5    H     H_    0.682089 0.541523 0.689965 0.102254
H6    H     H_    0.317774 0.458440 0.309987 0.102268
H7    H     H_    0.524790 0.396163 0.643679 0.123993
H8    H     H_    0.475150 0.603739 0.356300 0.123954
H9    H     H_    0.454051 0.385428 0.755766 0.102749
H10   H     H_    0.545950 0.614489 0.244243 0.102724
H11   H     H_    0.698557 0.673341 0.964275 0.109078
H12   H     H_    0.923593 0.327880 0.470118 0.113352
H13   H     H_    0.301368 0.326703 0.035709 0.109070
H14   H     H_    0.143646 0.547550 0.470860 0.106226
H15   H     H_    0.856356 0.452450 0.529138 0.106226
H16   H     H_    0.648109 0.530816 0.990054 0.133689
H17   H     H_    0.351891 0.469203 0.009958 0.133676
H18   H     H_    0.199942 0.862090 0.984191 0.102462
H19   H     H_    0.800001 0.137913 0.015814 0.102477
H20   H     H_    0.166325 0.753636 0.038097 0.103719
H21   H     H_    0.833613 0.246398 0.961942 0.103734
H22   H     H_    0.907093 0.518038 0.830435 0.106837
H23   H     H_    0.989441 0.222595 0.921316 0.121348
H24   H     H_    0.092943 0.481859 0.169464 0.106851
H25   H     H_    0.940674 0.626609 0.775703 0.125159
H26   H     H_    0.059372 0.373252 0.224156 0.125276
H27   H     H_    0.930286 0.595654 0.030887 0.144331
H28   H     H_    0.069709 0.404338 0.969106 0.144335
H29   H     H_    0.969983 0.373922 0.343396 0.146266
H30   H     H_    0.030020 0.626080 0.656601 0.146327
H31   H     H_    0.598419 0.070940 0.927064 0.101629
H32   H     H_    0.401582 0.929060 0.072936 0.101632
H33   H     H_    0.399433 0.057928 0.028516 0.134029
H34   H     H_    0.010518 0.777386 0.078667 0.121310
H35   H     H_    0.600568 0.942073 0.971484 0.134042
H36   H     H_    0.389311 0.527075 0.460334 0.098809
H37   H     H_    0.610687 0.472938 0.539664 0.098781
H38   H     H_    0.188969 0.784651 0.797758 0.154606
H39   H     H_    0.229067 0.915474 0.891078 0.148731
H40   H     H_    0.175126 0.866060 0.780278 0.147701
H41   H     H_    0.770928 0.084510 0.108919 0.148755
H42   H     H_    0.811103 0.215349 0.202263 0.154533
H43   H     H_    0.824924 0.133897 0.219689 0.147687
H44   H     H_    0.429206 0.833243 0.766952 0.119952
H45   H     H_    0.085220 0.157959 0.879557 0.123734
H46   H     H_    0.484775 0.956478 0.779747 0.120785
H47   H     H_    0.368954 0.855103 0.711566 0.131913
H48   H     H_    0.515228 0.043518 0.220252 0.120773
H49   H     H_    0.570791 0.166753 0.233046 0.119943
H50   H     H_    0.631048 0.144897 0.288433 0.131918
H51   H     H_    0.279372 0.332455 0.351024 0.120489
H52   H     H_    0.291985 0.231286 0.331496 0.166606
H53   H     H_    0.265613 0.237125 0.241714 0.158018
H54   H     H_    0.708117 0.768655 0.668456 0.166641
H55   H     H_    0.720581 0.667413 0.648996 0.120398
H56   H     H_    0.914744 0.842027 0.120440 0.123716
H57   H     H_    0.734428 0.762860 0.758286 0.158057
H58   H     H_    0.090945 0.081539 0.726367 0.107691
H59   H     H_    0.909039 0.918458 0.273637 0.107687
H60   H     H_    0.906626 0.139283 0.657064 0.096291
N1    N     N_1   0.828712 0.849532 0.592180 -0.282309
N2    N     N_1   0.171268 0.150470 0.407802 -0.282319
N3    N     N_1   0.866389 0.769488 0.879346 -0.277875
N4    N     N_1   0.133317 0.230692 0.120594 -0.277763
N5    N     N_1   0.625810 0.766129 0.524958 -0.306169
N6    N     N_1   0.374197 0.233907 0.475073 -0.306216
O1    O     O_3   0.251620 0.500000 0.748430 -0.450184
O2    O     O_R   0.570330 0.268390 0.136490 -0.540832
O3    O     O_R   0.134680 0.268390 0.572240 -0.529292
O4    O     O_R   0.865320 0.731610 0.427760 -0.529293
O5    O     O_R   0.306670 0.731630 0.863510 -0.539429
O6    O     O_R   0.693330 0.268370 0.136490 -0.539415
O7    O     O_R   0.135450 0.439270 0.865360 -0.547532
O8    O     O_R   0.864550 0.560730 0.134640 -0.547525
O9    O     O_R   0.429670 0.560710 0.692610 -0.492374
O10   O     O_R   0.570330 0.439290 0.307390 -0.492377
O11   O     O_R   0.308540 0.439240 0.865360 -0.555796
O12   O     O_3   0.748380 0.500000 0.251570 -0.450183
O13   O     O_R   0.691460 0.560760 0.134640 -0.555793
O14   O     O_R   0.133580 0.439310 0.571150 -0.539646
O15   O     O_R   0.866420 0.560690 0.428850 -0.539642
O16   O     O_R   0.430770 0.560690 0.864590 -0.529065
O17   O     O_R   0.569230 0.439310 0.135410 -0.529075
O18   O     O_R   0.133580 0.560760 0.692610 -0.556065
O19   O     O_R   0.866420 0.439240 0.307390 -0.556058
O20   O     O_3   0.089452 0.807965 0.839291 -0.570984
O21   O     O_3   0.910549 0.191951 0.160624 -0.570901
O22   O     O_3   0.391508 0.931525 0.845935 -0.579392
O23   O     O_R   0.134680 0.560740 0.864590 -0.536570
O24   O     O_3   0.608494 0.068477 0.154064 -0.579371
O25   O     O_3   0.397120 0.345946 0.324688 -0.540543
O26   O     O_3   0.602881 0.654093 0.675304 -0.540520
O27   O     O_R   0.865320 0.439260 0.135410 -0.536581
O28   O     O_R   0.306670 0.439270 0.571150 -0.547983
O29   O     O_R   0.693330 0.560730 0.428850 -0.547985
O30   O     O_R   0.135450 0.268370 0.694460 -0.538478
O31   O     O_R   0.864550 0.731630 0.305540 -0.538477
O32   O     O_R   0.429670 0.731610 0.863510 -0.540828
Zn1   Zn    Zn3+2 0.207400 0.586780 0.791530 0.923147
Zn2   Zn    Zn3+2 0.792600 0.413220 0.208470 0.923153
Zn3   Zn    Zn3+2 0.208510 0.413230 0.792630 0.927362
Zn4   Zn    Zn3+2 0.791490 0.586770 0.207370 0.927360
Zn5   Zn    Zn3+2 0.383150 0.586740 0.791530 0.965681
Zn6   Zn    Zn3+2 0.616850 0.413260 0.208470 0.965665
Zn7   Zn    Zn3+2 0.207400 0.413250 0.618010 0.945154
Zn8   Zn    Zn3+2 0.792600 0.586750 0.381990 0.945151

loop_
_geom_bond_atom_site_label_1
_geom_bond_atom_site_label_2
_ccdc_geom_bond_type
C51   C97   S    
C32   C94   S    
C63   C65   A    
C45   C60   S    
C8    C13   S    
O15   Zn8   S    
C27   C29   A    
C11   C13   S    
C27   H2    S    
C37   C88   S    
C20   O2    A    
C2    C7    S    
C11   O26   S    
C101  O24   S    
C7    C70   S    
C59   O24   S    
C81   H32   S    
C39   C41   A    
O27   Zn2   S    
C54   C60   A    
C65   C69   A    
C25   C28   A    
C20   C92   S    
O19   Zn2   S    
O9    Zn5   S    
C19   O32   A    
C85   O14   A    
C6    C48   S    
C99   H41   S    
C84   O13   A    
C75   O21   S    
C9    C16   S    
C76   C78   A    
O2    Zn6   S    
O12   Zn2   S    
C86   C91   S    
O1    Zn5   S    
C11   C14   S    
C78   C80   A    
C43   C79   S    
C97   N4    T    
O32   Zn5   S    
C87   C93   S    
C101  H48   S    
O6    Zn2   S    
C33   C36   A    
O5    Zn1   S    
O14   Zn7   S    
C42   C46   A    
C5    N6    T    
C68   O10   A    
C61   C63   A    
C42   H10   S    
C5    C16   S    
C62   C64   A    
C85   C93   S    
C20   O6    A    
C1    O30   A    
C52   H5    S    
C100  H44   S    
C26   C87   S    
C49   C51   A    
C15   O4    A    
C70   H31   S    
C98   O20   S    
C24   C27   A    
C71   H24   S    
C48   C70   S    
C32   C38   A    
C89   C91   S    
C102  H52   S    
C15   C34   S    
C48   O22   S    
C23   C38   S    
C77   H28   S    
C40   C42   A    
C39   C52   A    
C99   H43   S    
C30   H23   S    
C43   O23   A    
C86   O19   A    
C6    C81   S    
C46   C58   S    
C61   H18   S    
C3    H57   S    
C17   C30   A    
C73   C75   A    
C84   O17   A    
C43   O7    A    
O12   Zn6   S    
C33   C95   S    
C7    C59   S    
O29   Zn8   S    
C56   C84   S    
C47   C50   A    
C74   O20   S    
C45   C47   A    
C100  O22   S    
C3    O26   S    
C72   H25   S    
C44   O8    A    
C99   H42   S    
O4    Zn8   S    
C35   C38   A    
C72   C74   A    
C67   O9    A    
C10   O25   S    
C76   C82   A    
C7    H35   S    
C22   H59   S    
C57   C60   A    
C40   H8    S    
C69   H22   S    
C2    C48   S    
C26   C91   S    
C101  H49   S    
C17   C21   A    
O16   Zn5   S    
O18   Zn1   S    
C98   H38   S    
C68   O29   A    
C51   C53   A    
C64   C66   A    
C69   C72   A    
C19   O5    A    
C6    H33   S    
C18   H56   S    
C1    O3    A    
O1    Zn3   S    
C15   O31   A    
C76   H27   S    
C50   C52   A    
C66   C71   A    
C46   C49   A    
C88   C91   S    
C39   H7    S    
C25   H60   S    
C102  H53   S    
C57   C83   S    
C77   C79   A    
C37   C93   S    
C24   C36   S    
C9    C11   S    
C102  H51   S    
C87   H14   S    
C10   C12   S    
C49   H13   S    
C28   H3    S    
C88   C90   S    
O11   Zn3   S    
C21   C23   A    
C98   H39   S    
C86   O15   A    
C61   C74   A    
C21   H58   S    
C22   C24   A    
C62   C75   A    
C13   C16   S    
O13   Zn4   S    
O3    Zn7   S    
C67   O28   A    
C64   H21   S    
C102  O25   S    
C63   H20   S    
C1    C35   S    
C90   C93   S    
C99   O21   S    
C13   C67   S    
C77   C80   A    
C85   O18   A    
C47   H11   S    
C44   O27   A    
C8    C14   S    
C17   H45   S    
C2    C19   S    
C18   C22   A    
O17   Zn6   S    
C70   C92   S    
C59   C81   S    
C12   C14   S    
C31   H34   S    
O12   Zn4   S    
O1    Zn7   S    
C79   C82   A    
C37   H30   S    
C54   C56   A    
C37   C89   S    
C100  H47   S    
C26   C90   S    
C73   H26   S    
C66   C80   S    
C101  H50   S    
C4    N5    T    
C83   O11   A    
C54   H16   S    
C12   C68   S    
O28   Zn7   S    
C55   C57   A    
O7    Zn3   S    
C28   C30   A    
C29   C31   A    
C10   C16   S    
C95   N2    T    
C89   H1    S    
C9    H37   S    
C53   H6    S    
C50   C96   S    
C65   C82   S    
O31   Zn4   S    
C100  H46   S    
C6    C92   S    
O10   Zn6   S    
C44   C78   S    
C3    H54   S    
C33   C35   A    
C56   C58   A    
C83   O16   A    
C8    H36   S    
C34   C36   A    
C59   C92   S    
C90   H12   S    
C4    C14   S    
C29   H4    S    
C9    C12   S    
O8    Zn4   S    
O1    Zn1   S    
C55   H17   S    
C23   C25   A    
C8    C10   S    
C40   C53   A    
C41   H9    S    
C55   C58   A    
C71   C73   A    
O30   Zn3   S    
C3    H55   S    
C87   C89   S    
C41   C45   A    
C96   N3    T    
C2    C81   S    
C18   C31   A    
O23   Zn1   S    
C88   H15   S    
O12   Zn8   S    
C94   N1    T    
C62   H19   S    
C98   H40   S    
C26   H29   S    
C32   C34   A    
