data_mof_unit_32172.cif
_audit_creation_date              2012-12-10T18:58:47-0500
_audit_creation_method            fapswitch 2.2
_symmetry_space_group_name_H-M    P1
_symmetry_Int_Tables_number       1
_space_group_crystal_system       triclinic
_cell_length_a                    13.007664
_cell_length_b                    10.827323
_cell_length_c                    9.537827
_cell_angle_alpha                 89.936342
_cell_angle_beta                  96.08334
_cell_angle_gamma                 90.218877
_cell_volume                      1335.71577405

loop_
_atom_site_label
_atom_site_type_symbol
_atom_type_description
_atom_site_fract_x
_atom_site_fract_y
_atom_site_fract_z
_atom_type_partial_charge
C1    C     C_R   0.501417 0.262311 0.500171 0.800829
C2    C     C_R   0.028215 0.500727 0.567577 0.177722
C3    C     C_R   0.972197 0.492574 0.432725 0.177816
C4    C     C_R   0.864854 0.489995 0.420833 -0.284309
C5    C     C_R   0.868612 0.504458 0.675292 -0.196414
C6    C     C_R   0.976042 0.505981 0.688326 -0.219256
C7    C     C_R   0.521182 0.063481 0.627164 0.134722
C8    C     C_R   0.510504 0.129229 0.500506 -0.096156
C9    C     C_R   0.513060 0.064545 0.373199 -0.235731
C10   C     C_R   0.512083 0.935979 0.373046 -0.194969
C11   C     C_R   0.509879 0.870888 0.500308 -0.108334
C12   C     C_R   0.300524 0.499630 0.473748 0.799765
C13   C     C_R   0.521071 0.936281 0.627103 0.114802
C14   C     C_3   0.459231 0.929501 0.750308 -0.455504
C15   C     C_3   0.459400 0.069727 0.750337 -0.480773
C16   C     C_R   0.541200 0.597305 0.079475 0.252328
C17   C     C_R   0.449944 0.410535 0.067316 -0.101651
C18   C     C_R   0.449975 0.410498 0.918406 -0.080626
C19   C     C_R   0.540610 0.597650 0.931921 0.194021
C20   C     C_3   0.649020 0.643995 0.940531 -0.574725
C21   C     C_3   0.650449 0.641535 0.100210 0.229320
C22   C     C_R   0.501205 0.737703 0.500020 0.812725
C23   C     C_R   0.699563 0.499131 0.526265 0.807646
C24   C     C_R   0.812468 0.497708 0.541492 -0.047533
C25   C     C_R   0.187788 0.498081 0.458621 -0.051446
C26   C     C_R   0.024351 0.487478 0.311860 -0.227368
C27   C     C_R   0.131813 0.490383 0.324730 -0.195955
C28   C     C_R   0.135553 0.503279 0.579610 -0.271440
Cu1   Cu    Cu3+1 0.499990 0.499980 0.640670 0.941179
Cu2   Cu    Cu3+1 0.500010 0.500020 0.359330 0.952128
H1    H     H_    0.822500 0.481914 0.317358 0.137297
H2    H     H_    0.504019 0.889307 0.845075 0.205825
H3    H     H_    0.381434 0.110300 0.722828 0.193441
H4    H     H_    0.504449 0.110120 0.844963 0.197371
H5    H     H_    0.410952 0.336913 0.117514 0.143002
H6    H     H_    0.410919 0.336951 0.857131 0.138312
H7    H     H_    0.702535 0.575697 0.901760 0.175865
H8    H     H_    0.653813 0.738231 0.895240 0.208970
H9    H     H_    0.703049 0.571202 0.153603 0.084362
H10   H     H_    0.829867 0.508687 0.769865 0.144705
H11   H     H_    0.982149 0.481443 0.207806 0.127757
H12   H     H_    0.018183 0.511670 0.792442 0.130535
H13   H     H_    0.170946 0.486125 0.230123 0.156269
H14   H     H_    0.178173 0.509381 0.683456 0.154042
H15   H     H_    0.510420 0.112535 0.273179 0.166990
H16   H     H_    0.508276 0.888345 0.272909 0.211340
H17   H     H_    0.381179 0.888506 0.722786 0.199091
N1    N     N_R   0.500660 0.500930 0.148010 -0.216421
N2    N     N_R   0.500660 0.500890 0.852110 -0.178592
O1    O     O_R   0.500000 0.319640 0.618810 -0.583693
O2    O     O_R   0.500010 0.319680 0.381230 -0.592125
O3    O     O_R   0.348990 0.499960 0.599490 -0.587172
O4    O     O_R   0.349000 0.500000 0.361910 -0.586591
O5    O     O_R   0.499990 0.680320 0.618770 -0.578866
O6    O     O_R   0.500000 0.680360 0.381190 -0.561405
O7    O     O_R   0.651000 0.500000 0.638090 -0.584425
O8    O     O_R   0.651010 0.500040 0.400510 -0.587993
O9    O     O_3   0.656382 0.760555 0.160876 -0.566589
C29   C     C_3   0.761152 0.792832 0.195989 0.073380
H18   H     H_    0.803759 0.792142 0.100636 0.142320
H19   H     H_    0.798993 0.728216 0.276315 0.146425
C30   C     C_3   0.767651 0.922265 0.258121 -0.786152
H20   H     H_    0.731607 0.923849 0.358529 0.252819
H21   H     H_    0.849897 0.950711 0.279862 0.199739
H22   H     H_    0.727050 0.988777 0.182883 0.247352

loop_
_geom_bond_atom_site_label_1
_geom_bond_atom_site_label_2
_ccdc_geom_bond_type
C10   H16   S    
C30   H21   S    
C23   C24   S    
C16   C21   S    
C9    H15   S    
C14   H17   S    
Cu1   O7    S    
C25   C27   A    
C1    C8    S    
C20   H8    S    
C9    C10   A    
C19   N2    A    
C11   C22   S    
C12   O4    A    
C21   H9    S    
C17   N1    A    
C12   C25   S    
Cu2   O2    S    
Cu1   O5    S    
C21   O9    S    
C16   N1    A    
C19   C20   S    
C7    C15   S    
C17   C18   A    
C22   O6    A    
C29   H18   S    
C22   O5    A    
Cu1   N2    S    
C13   C14   S    
C25   C28   A    
C20   H7    S    
C11   C13   A    
C23   O7    A    
C26   C27   A    
C30   H20   S    
C5    C24   A    
C16   C19   A    
Cu2   N1    S    
C12   O3    A    
C28   H14   S    
C2    C3    A    
Cu1   O1    S    
C6    H12   S    
C5    C6    A    
C4    C24   A    
Cu2   O4    S    
C29   H19   S    
C4    H1    S    
C7    C8    A    
C10   C11   A    
Cu1   Cu2   S    
C3    C4    A    
Cu2   O8    S    
C27   H13   S    
C7    C13   A    
C17   H5    S    
C20   C21   S    
C26   H11   S    
C1    O1    A    
C5    H10   S    
C23   O8    A    
C14   C15   S    
C29   C30   S    
C2    C28   A    
C1    O2    A    
C15   H4    S    
C30   H22   S    
O9    C29   S    
C18   H6    S    
Cu2   O6    S    
C15   H3    S    
C3    C26   A    
C2    C6    A    
C18   N2    A    
C14   H2    S    
C8    C9    A    
Cu1   O3    S    
