data_mof_unit_6857.cif
_audit_creation_date              2012-12-10T18:12:42-0500
_audit_creation_method            fapswitch 2.2
_symmetry_space_group_name_H-M    P1
_symmetry_Int_Tables_number       1
_space_group_crystal_system       triclinic
_cell_length_a                    12.713532
_cell_length_b                    13.104266
_cell_length_c                    15.702944
_cell_angle_alpha                 92.130599
_cell_angle_beta                  102.266234
_cell_angle_gamma                 81.882056
_cell_volume                      2530.72405208

loop_
_atom_site_label
_atom_site_type_symbol
_atom_type_description
_atom_site_fract_x
_atom_site_fract_y
_atom_site_fract_z
_atom_type_partial_charge
C1    C     C_R   0.438991 0.691184 0.493032 0.841616
C2    C     C_R   0.596479 0.200828 0.529254 -0.050266
C3    C     C_R   0.302692 0.835560 0.428885 -0.196716
C4    C     C_R   0.500923 0.500475 0.661628 0.884960
C5    C     C_R   0.275697 0.939401 0.408531 -0.150800
C6    C     C_R   0.348312 0.008205 0.442094 -0.187629
C7    C     C_R   0.447437 0.974331 0.500790 0.087480
C8    C     C_R   0.465663 0.872488 0.531470 0.096596
C9    C     C_R   0.529109 0.037873 0.530235 0.084089
C10   C     C_R   0.618495 0.005069 0.599063 0.182197
C11   C     C_R   0.626106 0.909308 0.637138 -0.265749
C12   C     C_3   0.501498 0.500896 0.917188 0.124117
C13   C     C_R   0.550247 0.843836 0.603970 -0.212514
C14   C     C_R   0.524833 0.132986 0.492343 -0.253190
C15   C     C_R   0.685384 0.168692 0.596367 -0.196462
C16   C     C_R   0.560823 0.309033 0.510479 0.851487
C17   C     C_R   0.399533 0.801180 0.487880 -0.109728
C18   C     C_R   0.094060 0.336287 0.386980 -0.311323
C19   C     C_R   0.789540 0.645157 0.587132 0.036199
C20   C     C_R   0.871986 0.698906 0.576917 -0.251810
C21   C     C_R   0.946513 0.654104 0.528778 -0.198493
C22   C     C_R   0.947468 0.550363 0.499910 0.029476
C23   C     C_3   0.455759 0.419096 0.016228 0.211006
C24   C     C_R   0.851908 0.506843 0.499567 0.229579
C25   C     C_R   0.034417 0.490056 0.467511 -0.021482
C26   C     C_R   0.012682 0.398038 0.420071 0.150627
C27   C     C_R   0.910397 0.366292 0.408186 -0.270033
C28   C     C_R   0.499080 0.499575 0.338384 0.894688
C29   C     C_R   0.832142 0.418601 0.449161 -0.206300
C30   C     C_R   0.144320 0.510209 0.486754 0.281919
C31   C     C_R   0.198755 0.361401 0.405278 -0.024204
C32   C     C_3   0.440967 0.586235 0.019780 0.210580
C33   C     C_3   0.544463 0.582821 0.982797 -0.164452
C34   C     C_3   0.498040 0.499696 0.082673 0.173268
C35   C     C_1   0.502876 0.501107 0.751037 -0.181512
C36   C     C_1   0.497107 0.499156 0.248989 -0.179811
C37   C     C_3   0.396928 0.505714 0.952332 -0.178934
C38   C     C_3   0.178479 0.598240 0.545981 -0.858057
C39   C     C_3   0.374088 0.684198 0.044102 -0.934692
C40   C     C_3   0.405790 0.326493 0.036501 -0.937302
C41   C     C_3   0.559492 0.412977 0.979195 -0.163155
C42   C     C_3   0.602086 0.494912 0.046780 -0.246112
C43   C     C_1   0.503009 0.501245 0.826481 -0.056307
C44   C     C_1   0.496909 0.499200 0.173555 -0.049639
C45   C     C_R   0.697521 0.069865 0.630144 -0.208915
H1    H     H_    0.580323 0.650446 0.967055 0.141717
H2    H     H_    0.728120 0.680875 0.620803 0.132392
H3    H     H_    0.998728 0.704083 0.512067 0.161803
H4    H     H_    0.874925 0.776652 0.602279 0.150506
H5    H     H_    0.685636 0.490464 0.087128 0.154170
H6    H     H_    0.607700 0.341520 0.960500 0.142702
H7    H     H_    0.313235 0.510165 0.912210 0.141534
H8    H     H_    0.691539 0.884358 0.691727 0.139911
H9    H     H_    0.765517 0.045931 0.683093 0.135154
H10   H     H_    0.263110 0.589664 0.576414 0.289888
H11   H     H_    0.164290 0.670591 0.508327 0.213666
H12   H     H_    0.462738 0.158840 0.436280 0.137215
H13   H     H_    0.140062 0.604004 0.603391 0.214793
H14   H     H_    0.342473 0.733135 0.985581 0.244140
H15   H     H_    0.304879 0.664167 0.069887 0.246313
H16   H     H_    0.425680 0.727371 0.094701 0.248863
H17   H     H_    0.756226 0.389316 0.439222 0.207054
H18   H     H_    0.382520 0.281200 0.975976 0.247261
H19   H     H_    0.465606 0.277073 0.085123 0.244752
H20   H     H_    0.332456 0.353073 0.063291 0.246462
H21   H     H_    0.741252 0.221510 0.625847 0.158861
H22   H     H_    0.249844 0.781731 0.396125 0.157591
H23   H     H_    0.323527 0.087551 0.422723 0.127454
H24   H     H_    0.200502 0.965983 0.363511 0.139236
H25   H     H_    0.557524 0.770734 0.636015 0.150492
H26   H     H_    0.262411 0.313358 0.380743 0.134693
H27   H     H_    0.892445 0.297561 0.370427 0.153702
H28   H     H_    0.077432 0.267295 0.349190 0.146228
N1    N     N_R   0.222180 0.444680 0.455580 -0.098933
N2    N     N_R   0.776980 0.554790 0.543960 -0.134800
O1    O     O_R   0.366730 0.627160 0.478790 -0.623456
O2    O     O_R   0.544830 0.662520 0.507160 -0.608544
O3    O     O_R   0.410960 0.482330 0.609040 -0.620272
O4    O     O_R   0.589060 0.517690 0.637410 -0.619103
O5    O     O_R   0.455170 0.337480 0.492840 -0.609475
O6    O     O_R   0.633270 0.372840 0.521210 -0.641719
O7    O     O_R   0.410940 0.482310 0.362590 -0.607768
O8    O     O_R   0.589040 0.517670 0.390960 -0.615158
Zn1   Zn    Zn3+2 0.381080 0.476390 0.481050 0.935978
Zn2   Zn    Zn3+2 0.618920 0.523610 0.518950 0.930399

loop_
_geom_bond_atom_site_label_1
_geom_bond_atom_site_label_2
_ccdc_geom_bond_type
C8    C13   A    
C27   C29   A    
C1    O2    A    
C41   C42   S    
C19   C20   A    
C18   C26   A    
O5    Zn1   S    
O1    Zn1   S    
C7    C8    A    
C26   C27   A    
C12   C41   S    
C40   H18   S    
C33   C42   S    
C12   C43   S    
C5    C6    A    
C30   N1    A    
C19   H2    S    
C13   H25   S    
C23   C40   S    
C30   C38   S    
C32   C39   S    
C12   C37   S    
C24   C29   A    
C5    H24   S    
C38   H13   S    
N2    Zn2   S    
C38   H10   S    
C22   C25   A    
C34   C42   S    
C35   C43   T    
C9    C10   A    
C11   H8    S    
C21   H3    S    
C6    H23   S    
C4    C35   S    
O2    Zn2   S    
C21   C22   A    
C28   O8    A    
C33   H1    S    
C39   H16   S    
C28   O7    A    
C34   C44   S    
C4    O4    A    
C37   H7    S    
C31   N1    A    
C25   C26   A    
C23   C37   S    
C15   H21   S    
C16   O5    A    
C32   C34   S    
C9    C14   A    
C4    O3    A    
C20   H4    S    
C23   C34   S    
C39   H14   S    
C10   C45   A    
C32   C37   S    
C2    C15   A    
C42   H5    S    
O8    Zn2   S    
C45   H9    S    
C18   H28   S    
O7    Zn1   S    
C40   H20   S    
C22   C24   A    
C36   C44   T    
C15   C45   A    
O4    Zn2   S    
C2    C16   S    
C25   C30   A    
C7    C9    A    
C14   H12   S    
C29   H17   S    
C1    O1    A    
C3    H22   S    
N1    Zn1   S    
C3    C5    A    
C40   H19   S    
C24   N2    A    
C6    C7    A    
C1    C17   S    
C8    C17   A    
C23   C41   S    
C32   C33   S    
C19   N2    A    
C11   C13   A    
C39   H15   S    
C31   H26   S    
C16   O6    A    
C3    C17   A    
C2    C14   A    
C10   C11   A    
O3    Zn1   S    
C38   H11   S    
C20   C21   A    
C28   C36   S    
C18   C31   A    
C12   C33   S    
C41   H6    S    
O6    Zn2   S    
C27   H27   S    
