data_mof_unit_23318.cif
_audit_creation_date              2013-03-05T15:42:40-0500
_audit_creation_method            fapswitch 2.2
_symmetry_space_group_name_H-M    P1
_symmetry_Int_Tables_number       1
_space_group_crystal_system       triclinic
_cell_length_a                    7.749751
_cell_length_b                    8.696047
_cell_length_c                    27.513859
_cell_angle_alpha                 91.121093
_cell_angle_beta                  85.914292
_cell_angle_gamma                 93.901372
_cell_volume                      1845.01934961

loop_
_atom_site_label
_atom_site_type_symbol
_atom_site_description
_atom_site_fract_x
_atom_site_fract_y
_atom_site_fract_z
_atom_type_partial_charge
O1    O     O_R   0.389250 0.738570 0.503220 -0.644340
O2    O     O_R   0.610750 0.261430 0.496780 -0.648174
O3    O     O_R   0.678390 0.711630 0.494810 -0.620804
O4    O     O_R   0.321610 0.288370 0.505190 -0.615532
C1    C     C_R   0.544422 0.794742 0.497893 0.967076
C2    C     C_R   0.454027 0.205792 0.501949 0.955085
O5    O     O_R   0.355440 0.513440 0.575450 -0.592783
O6    O     O_R   0.644560 0.486560 0.424550 -0.612198
O7    O     O_R   0.644590 0.486500 0.567040 -0.619015
O8    O     O_R   0.355410 0.513500 0.432960 -0.578257
C3    C     C_R   0.502600 0.498812 0.593816 0.948953
C4    C     C_R   0.497815 0.499283 0.405875 0.930626
Zn1   Zn    Zn3+2 0.306940 0.517990 0.505620 0.994700
Zn2   Zn    Zn3+2 0.693060 0.482010 0.494380 0.978158
C5    C     C_R   0.708537 0.478904 0.814858 0.633263
C6    C     C_R   0.521266 0.325959 0.178339 0.659370
O9    O     O_2   0.841042 0.531859 0.783898 -0.454598
O10   O     O_2   0.497738 0.202856 0.207727 -0.460772
N1    N     N_R   0.557401 0.421152 0.796450 -0.349589
N2    N     N_R   0.551777 0.470326 0.198243 -0.344575
C7    C     C_R   0.424723 0.354376 0.825797 0.614114
C8    C     C_R   0.598653 0.594417 0.169313 0.590886
C9    C     C_R   0.533220 0.310834 0.713389 0.116989
C10   C     C_R   0.673346 0.546849 0.276669 0.135479
C11   C     C_R   0.529545 0.334808 0.663516 -0.289794
C12   C     C_R   0.653597 0.553162 0.327171 -0.238475
C13   C     C_R   0.501715 0.607735 0.677844 0.242816
C14   C     C_R   0.355298 0.449246 0.326985 0.212549
C15   C     C_R   0.522183 0.588568 0.727497 0.265641
C16   C     C_R   0.369879 0.446453 0.275589 0.240054
C17   C     C_R   0.534891 0.439348 0.745619 0.127246
C18   C     C_R   0.530897 0.491759 0.250308 0.118449
C19   C     C_R   0.594131 0.402614 0.895355 -0.079948
C20   C     C_R   0.585715 0.429306 0.098133 -0.092646
C21   C     C_R   0.724074 0.483994 0.865647 -0.171672
C22   C     C_R   0.514889 0.306821 0.127516 -0.169240
C23   C     C_R   0.864335 0.564687 0.887617 0.254479
C24   C     C_R   0.444852 0.170231 0.105290 0.250706
C25   C     C_R   0.446703 0.331973 0.874918 0.004043
C26   C     C_R   0.635178 0.572562 0.119414 -0.008713
C27   C     C_R   0.508468 0.480884 0.645988 -0.188785
C28   C     C_R   0.498840 0.502300 0.352611 -0.238467
C29   C     C_R   0.701605 0.523703 0.018755 0.112784
C30   C     C_R   0.490700 0.296672 0.974633 0.117958
C31   C     C_R   0.514647 0.284559 0.024915 -0.094604
C32   C     C_R   0.729981 0.496415 0.968136 -0.092817
C33   C     C_R   0.602984 0.410981 0.047300 0.064167
C34   C     C_R   0.607331 0.396303 0.945924 0.065110
C35   C     C_R   0.753287 0.665296 0.040878 -0.057127
C36   C     C_R   0.345168 0.225857 0.953235 -0.067562
C37   C     C_R   0.715950 0.690863 0.090409 -0.054385
C38   C     C_R   0.321553 0.246276 0.904257 -0.086566
O11   O     O_2   0.612652 0.737508 0.188967 -0.498527
O12   O     O_2   0.271658 0.311407 0.807551 -0.526904
C39   C     C_R   0.867036 0.571681 0.938813 0.163257
C40   C     C_R   0.444447 0.158938 0.054002 0.160660
H1    H     H_    0.764043 0.592950 0.347049 0.223102
H2    H     H_    0.539379 0.237991 0.638294 0.178991
H3    H     H_    0.753611 0.802411 0.106031 0.209624
H4    H     H_    0.205550 0.193625 0.889398 0.205952
H5    H     H_    0.811897 0.761025 0.019739 0.199494
H6    H     H_    0.241896 0.163719 0.974642 0.194969
C41   C     C_2   0.555557 0.955111 0.486799 -0.089687
C42   C     C_2   0.433210 0.044705 0.509877 -0.089671
N3    N     N_2   0.950320 0.457960 0.486880 -0.163399
N4    N     N_2   0.049680 0.542040 0.513120 -0.175362
H7    H     H_    0.013873 0.382427 0.463844 0.239698
H8    H     H_    0.986088 0.617378 0.536234 0.207187
N5    N     N_R   0.463722 0.753807 0.660258 0.183458
O13   O     O_R   0.588221 0.846131 0.641117 -0.429979
O14   O     O_R   0.303451 0.777686 0.653450 -0.424414
N6    N     N_R   0.197759 0.392505 0.352852 0.241617
O15   O     O_R   0.063995 0.475431 0.356159 -0.427048
O16   O     O_R   0.192133 0.263449 0.376231 -0.385380
N7    N     N_R   0.537192 0.720879 0.759126 0.204869
O17   O     O_R   0.663540 0.825062 0.750527 -0.340497
O18   O     O_R   0.441642 0.727246 0.799824 -0.312630
N8    N     N_R   0.225043 0.389648 0.248899 0.212821
O19   O     O_R   0.131533 0.266310 0.262878 -0.295526
O20   O     O_R   0.192946 0.454855 0.208618 -0.405901
N9    N     N_R   0.002246 0.643896 0.858680 0.282965
O21   O     O_R   0.159496 0.601479 0.859815 -0.285801
O22   O     O_R   0.976221 0.773634 0.838501 -0.265018
N10   N     N_R   0.361654 0.047527 0.134325 0.275994
O23   O     O_R   0.219964 0.070357 0.161010 -0.275840
O24   O     O_R   0.413056 0.908584 0.129106 -0.304637
C43   C     C_3   0.854012 0.583252 0.253451 -0.316842
C44   C     C_3   0.917936 0.751948 0.260946 -0.657621
H9    H     H_    0.823438 0.831316 0.249207 0.302729
H10   H     H_    0.939632 0.776304 0.299874 0.236147
H11   H     H_    0.043189 0.775579 0.239333 0.290966
H12   H     H_    0.941635 0.510336 0.271128 0.275700
H13   H     H_    0.866436 0.553001 0.214184 0.231046
C45   C     C_3   0.531687 0.147058 0.730406 -0.336748
C46   C     C_3   0.355129 0.063374 0.723042 -0.567631
H14   H     H_    0.247771 0.126457 0.740744 0.279030
H15   H     H_    0.334345 0.053227 0.683658 0.257584
H16   H     H_    0.347868 0.946899 0.738774 0.299452
H17   H     H_    0.634784 0.087584 0.708885 0.265755
H18   H     H_    0.560096 0.140093 0.769171 0.225808
N11   N     N_R   0.016923 0.642689 0.960431 0.221841
O25   O     O_R   0.077615 0.780761 0.948116 -0.290200
O26   O     O_R   0.093775 0.568710 0.992455 -0.350562
N12   N     N_R   0.386680 0.015175 0.031841 0.220665
O27   O     O_R   0.234507 0.949707 0.044513 -0.299343
O28   O     O_R   0.485928 0.949992 0.998481 -0.348105
C47   C     C_3   0.680690 0.008079 0.443290 -0.366493
C48   C     C_3   0.692778 0.890650 0.401188 -0.821417
H19   H     H_    0.769642 0.793871 0.410527 0.272370
H20   H     H_    0.561213 0.846320 0.391861 0.255762
H21   H     H_    0.760077 0.946578 0.368477 0.272872
H22   H     H_    0.637729 0.112293 0.426270 0.242195
H23   H     H_    0.812115 0.035428 0.456178 0.234492
C49   C     C_3   0.294268 0.985426 0.549659 -0.381162
C50   C     C_3   0.202101 0.104151 0.582208 -0.770326
H24   H     H_    0.295941 0.192362 0.596342 0.242793
H25   H     H_    0.104460 0.159907 0.562125 0.269485
H26   H     H_    0.131142 0.044838 0.613772 0.271361
H27   H     H_    0.189960 0.915044 0.532220 0.241402
H28   H     H_    0.357898 0.912431 0.574595 0.279293

loop_
_geom_bond_atom_site_label_1
_geom_bond_atom_site_label_2
_geom_bond_distance
_ccdc_geom_bond_type
C10   C43   1.512868 S    
N4    H8    1.029312 S    
C43   C44   1.530950 S    
N11   O25   1.301553 A    
C13   C15   1.400969 A    
C47   H22   1.109632 S    
C46   H14   1.106469 S    
O7    Zn2   2.007778 S    
N1    C17   1.434809 S    
C35   C37   1.389629 A    
N12   O28   1.301437 A    
C49   C50   1.533338 S    
C46   H16   1.105613 S    
C14   N6    1.431257 S    
O5    C3    1.294808 A    
C29   C32   1.412397 A    
C19   C25   1.407645 A    
O1    C1    1.266470 A    
N1    C7    1.365719 A    
C10   C12   1.387455 A    
C7    O12   1.347567 S    
N8    O20   1.301825 A    
C50   H24   1.105101 S    
C48   H19   1.107990 S    
C1    C41   1.428987 S    
C2    C42   1.418489 S    
O4    Zn1   2.007485 S    
N5    O14   1.300267 A    
C47   H23   1.111247 S    
C4    C28   1.465695 S    
C38   H4    1.083513 S    
C31   C40   1.421659 A    
C50   H25   1.110395 S    
C32   C39   1.418250 A    
C36   C38   1.389217 A    
C47   C48   1.531241 S    
C49   H27   1.111175 S    
C13   N5    1.424629 S    
C6    N2    1.372237 A    
C25   C38   1.400444 A    
N11   O26   1.301549 A    
C43   H12   1.103378 S    
C23   N9    1.432013 S    
O2    C2    1.275770 A    
C5    C21   1.410693 A    
N12   O27   1.301630 A    
N9    O22   1.301234 A    
N9    O21   1.299684 A    
C8    O11   1.347664 S    
Zn1   N4    2.014346 S    
C31   C33   1.409882 A    
C37   H3    1.083478 S    
C32   C34   1.408615 A    
C35   H5    1.080480 S    
C42   C49   1.549770 S    
N10   O23   1.301274 A    
C40   N12   1.438067 S    
O4    C2    1.288968 A    
C11   C27   1.391514 A    
N8    O19   1.301588 A    
C29   C35   1.409013 A    
N3    H7    1.029072 S    
C23   C39   1.410291 A    
C5    N1    1.369349 A    
N7    O17   1.300074 A    
C10   C18   1.415201 A    
O7    C3    1.289371 A    
C13   C27   1.396881 A    
C7    C25   1.393264 A    
C44   H11   1.110607 S    
C45   H18   1.107937 S    
O6    C4    1.293125 A    
C50   H26   1.110646 S    
C8    C26   1.393877 A    
C45   C46   1.530058 S    
N7    O18   1.300105 A    
O3    Zn2   2.007485 S    
O8    C4    1.298587 A    
N6    O16   1.301071 A    
C44   H10   1.110084 S    
C36   H6    1.079755 S    
C20   C26   1.407171 A    
O1    Zn1   1.980682 S    
C11   H2    1.083772 S    
C41   C47   1.543051 S    
C22   C24   1.417942 A    
C30   C31   1.415796 A    
C12   C28   1.394362 A    
N2    C18   1.440016 S    
C30   C36   1.408462 A    
C5    O9    1.348522 S    
O6    Zn2   1.985474 S    
C24   N10   1.434864 S    
N2    C8    1.367137 A    
N6    O15   1.299478 A    
O3    C1    1.301775 A    
O8    Zn1   2.007778 S    
C46   H15   1.107750 S    
C15   N7    1.432379 S    
C26   C37   1.400119 A    
C39   N11   1.439042 S    
C48   H21   1.110974 S    
C14   C16   1.410413 A    
C21   C23   1.418649 A    
C15   C17   1.411318 A    
C6    C22   1.408943 A    
C16   C18   1.419977 A    
C45   H17   1.110541 S    
C43   H13   1.105988 S    
C14   C28   1.405927 A    
C19   C21   1.411169 A    
Zn2   N3    2.014346 S    
C48   H20   1.110838 S    
C3    C27   1.451180 S    
C20   C22   1.407206 A    
C9    C11   1.394558 A    
N5    O13   1.300601 A    
O2    Zn2   1.980682 S    
C12   H1    1.081870 S    
C41   C42   1.380071 D    
C16   N8    1.439097 S    
C9    C45   1.506888 S    
O5    Zn1   1.985474 S    
C24   C40   1.412816 A    
C44   H9    1.108245 S    
C6    O10   1.348831 S    
N3    N4    1.276989 D    
C19   C34   1.404764 A    
N10   O24   1.299903 A    
C20   C33   1.402475 A    
C29   C33   1.415795 A    
C49   H28   1.106640 S    
C30   C34   1.417742 A    
C9    C17   1.412924 A    
