data_mof_unit_42006.cif
_audit_creation_date              2012-12-10T20:36:33-0500
_audit_creation_method            fapswitch 2.2
_symmetry_space_group_name_H-M    P1
_symmetry_Int_Tables_number       1
_space_group_crystal_system       triclinic
_cell_length_a                    10.498871
_cell_length_b                    10.701912
_cell_length_c                    9.886465
_cell_angle_alpha                 89.226623
_cell_angle_beta                  90.903775
_cell_angle_gamma                 90.322655
_cell_volume                      1110.56768943

loop_
_atom_site_label
_atom_site_type_symbol
_atom_type_description
_atom_site_fract_x
_atom_site_fract_y
_atom_site_fract_z
_atom_type_partial_charge
C1    C     C_R   0.504161 0.259936 0.500637 0.887578
C2    C     C_3   0.957688 0.617430 0.476803 -0.021005
C3    C     C_3   0.038277 0.542923 0.378040 -0.178669
C4    C     C_3   0.122552 0.504245 0.498827 -0.018418
C5    C     C_R   0.530423 0.061408 0.622460 0.112161
C6    C     C_R   0.524628 0.128482 0.501001 -0.072446
C7    C     C_R   0.542900 0.066397 0.378407 -0.198195
C8    C     C_R   0.542085 0.937050 0.377354 -0.179268
C9    C     C_R   0.522286 0.871184 0.498731 -0.070202
C10   C     C_R   0.526888 0.934031 0.620982 0.074713
C11   C     C_3   0.445744 0.924994 0.744187 -0.210908
C12   C     C_R   0.257461 0.502402 0.499234 0.908470
C13   C     C_3   0.450158 0.066879 0.745806 -0.543588
C14   C     C_R   0.392113 0.468164 0.069900 0.174738
C15   C     C_R   0.602240 0.542582 0.072902 -0.125537
C16   C     C_R   0.602196 0.542661 0.929160 -0.129868
C17   C     C_R   0.392690 0.468041 0.927165 0.296738
C18   C     C_3   0.326277 0.345481 0.920130 -0.583357
C19   C     C_3   0.325084 0.344368 0.073887 -0.279911
C20   C     C_R   0.503548 0.739842 0.499229 0.905712
C21   C     C_R   0.742560 0.499502 0.501077 0.891425
C22   C     C_3   0.043408 0.386545 0.526030 -0.122214
C23   C     C_3   0.956360 0.424862 0.405287 -0.140070
C24   C     C_3   0.877556 0.501074 0.503185 -0.069629
C25   C     C_3   0.962284 0.462853 0.624010 -0.152020
C26   C     C_3   0.044429 0.580757 0.597280 -0.195288
H1    H     H_    0.915493 0.360639 0.328567 0.164639
H2    H     H_    0.497167 0.881041 0.831738 0.159713
H3    H     H_    0.357014 0.113153 0.725432 0.224298
H4    H     H_    0.505624 0.102644 0.833905 0.194448
H5    H     H_    0.685729 0.575207 0.127600 0.167994
H6    H     H_    0.685616 0.575266 0.876146 0.168859
H7    H     H_    0.231666 0.352921 0.868528 0.236414
H8    H     H_    0.388801 0.273390 0.879245 0.200279
H9    H     H_    0.384786 0.269312 0.120831 0.162468
H10   H     H_    0.083617 0.292181 0.545779 0.163474
H11   H     H_    0.927417 0.430110 0.723907 0.167712
H12   H     H_    0.084345 0.644536 0.674892 0.197872
H13   H     H_    0.073940 0.578910 0.279902 0.200836
H14   H     H_    0.549026 0.116614 0.282835 0.169522
H15   H     H_    0.548259 0.889836 0.281461 0.179218
N1    N     N_R   0.499140 0.499140 0.142800 -0.128699
N2    N     N_R   0.499140 0.499180 0.857150 -0.115402
O1    O     O_R   0.500020 0.316790 0.614690 -0.624046
O2    O     O_R   0.500000 0.316760 0.385350 -0.627070
O3    O     O_R   0.313960 0.499990 0.614650 -0.612213
O4    O     O_R   0.313940 0.499950 0.385310 -0.612968
O5    O     O_R   0.500000 0.683240 0.614650 -0.612372
O6    O     O_R   0.499980 0.683210 0.385310 -0.620586
O7    O     O_R   0.686060 0.500050 0.614690 -0.620231
O8    O     O_R   0.686040 0.500010 0.385350 -0.638810
Zn1   Zn    Zn3+2 0.500010 0.500020 0.653130 0.976650
Zn2   Zn    Zn3+2 0.499990 0.499980 0.346870 0.966657
C27   C     C_2   0.192761 0.350806 0.129300 0.992594
O9    O     O_2   0.163073 0.282111 0.223514 -0.629508
O10   O     O_R   0.103161 0.432015 0.070347 -0.818385
H16   H     H_    0.015236 0.421192 0.109743 0.325628
C28   C     C_2   0.905907 0.746035 0.452620 0.881787
O11   O     O_2   0.925362 0.800476 0.345428 -0.609289
O12   O     O_R   0.836188 0.803160 0.553583 -0.814795
H17   H     H_    0.807777 0.890485 0.526572 0.344305
C29   C     C_2   0.313901 0.872445 0.718935 0.963688
O13   O     O_2   0.272238 0.791756 0.795178 -0.628268
O14   O     O_R   0.240116 0.915225 0.608858 -0.798910
H18   H     H_    0.154079 0.872027 0.602777 0.341554

loop_
_geom_bond_atom_site_label_1
_geom_bond_atom_site_label_2
_ccdc_geom_bond_type
O7    Zn1   S    
C23   C24   S    
C2    C28   S    
C24   C25   S    
C15   H5    S    
C20   O6    A    
C23   H1    S    
C16   H6    S    
C4    C22   S    
C9    C10   A    
C9    C20   S    
C4    C26   S    
C14   C17   A    
C14   N1    A    
O4    Zn2   S    
C11   C29   S    
C5    C13   S    
O14   H18   S    
O1    Zn1   S    
C17   N2    A    
C17   C18   S    
C28   O11   D    
O2    Zn2   S    
C7    C8    A    
C2    C26   S    
C19   H9    S    
C8    H15   S    
C18   H8    S    
C16   N2    A    
C1    O2    A    
C29   O13   D    
C11   H2    S    
O12   H17   S    
C12   O4    A    
O6    Zn2   S    
C19   C27   S    
C13   H3    S    
C21   O7    A    
C2    C3    S    
C6    C7    A    
C21   O8    A    
N1    Zn2   S    
C2    C24   S    
C5    C6    A    
C18   H7    S    
C27   O10   S    
N2    Zn1   S    
C11   C13   S    
C4    C12   S    
C10   C11   S    
C5    C10   A    
C15   C16   A    
O3    Zn1   S    
C13   H4    S    
O5    Zn1   S    
C22   H10   S    
O10   H16   S    
C20   O5    A    
C12   O3    A    
C18   C19   S    
C21   C24   S    
C3    H13   S    
C3    C23   S    
C27   O9    D    
C26   H12   S    
C29   O14   S    
C1    O1    A    
C25   H11   S    
C25   C26   S    
C22   C23   S    
C7    H14   S    
C28   O12   S    
C14   C19   S    
C3    C4    S    
C1    C6    S    
C15   N1    A    
C8    C9    A    
O8    Zn2   S    
C22   C25   S    
