data_mof_unit_26815.cif
_audit_creation_date              2012-12-10T20:26:27-0500
_audit_creation_method            fapswitch 2.2
_symmetry_space_group_name_H-M    P1
_symmetry_Int_Tables_number       1
_space_group_crystal_system       triclinic
_cell_length_a                    10.625779
_cell_length_b                    10.678759
_cell_length_c                    9.862194
_cell_angle_alpha                 89.758365
_cell_angle_beta                  88.78827
_cell_angle_gamma                 90.122211
_cell_volume                      1118.80150223

loop_
_atom_site_label
_atom_site_type_symbol
_atom_type_description
_atom_site_fract_x
_atom_site_fract_y
_atom_site_fract_z
_atom_type_partial_charge
C1    C     C_R   0.504859 0.259854 0.500085 0.879006
C2    C     C_R   0.527731 0.128639 0.498884 -0.124430
C3    C     C_R   0.537410 0.065288 0.374616 -0.214044
C4    C     C_R   0.536916 0.935936 0.374150 -0.230157
C5    C     C_R   0.526316 0.871305 0.497902 -0.094223
C6    C     C_R   0.542155 0.935147 0.619109 0.094968
C7    C     C_3   0.470497 0.926029 0.750871 -0.462420
C8    C     C_3   0.473548 0.068331 0.752850 -0.104622
C9    C     C_R   0.390547 0.483491 0.073780 0.252862
C10   C     C_R   0.606287 0.527244 0.069441 -0.148647
C11   C     C_R   0.606342 0.527086 0.925586 -0.148824
C12   C     C_R   0.263060 0.515281 0.501485 0.892342
C13   C     C_R   0.390210 0.484879 0.931269 0.204527
C14   C     C_3   0.303700 0.375058 0.927202 -0.530717
C15   C     C_3   0.306416 0.371652 0.080977 -0.489578
C16   C     C_R   0.504292 0.740097 0.499533 0.860635
C17   C     C_R   0.738018 0.498967 0.498304 0.933492
C18   C     C_2   0.930148 0.578624 0.405327 -0.211669
C19   C     C_2   0.871328 0.500704 0.492135 -0.327569
C20   C     C_2   0.067018 0.580160 0.396000 0.242950
C21   C     C_2   0.133630 0.557705 0.508780 -0.120124
C22   C     C_R   0.544580 0.063205 0.619783 0.078120
H1    H     H_    0.877597 0.636370 0.335272 0.151966
H2    H     H_    0.692536 0.547437 0.121406 0.149701
H3    H     H_    0.692756 0.547181 0.869883 0.160221
H4    H     H_    0.210009 0.400604 0.887645 0.193867
H5    H     H_    0.347575 0.292154 0.878786 0.219008
H6    H     H_    0.213628 0.392400 0.129437 0.208713
H7    H     H_    0.354509 0.287575 0.121843 0.214221
H8    H     H_    0.920437 0.437010 0.558539 0.147154
H9    H     H_    0.535201 0.114353 0.278311 0.176846
H10   H     H_    0.534675 0.887903 0.277680 0.174939
H11   H     H_    0.374138 0.887241 0.739020 0.179304
H12   H     H_    0.526392 0.880286 0.831215 0.207787
H13   H     H_    0.379099 0.112307 0.746627 0.161109
N1    N     N_R   0.499170 0.499140 0.142800 -0.107506
N2    N     N_R   0.499170 0.499180 0.857150 -0.109164
O1    O     O_R   0.500020 0.316790 0.614690 -0.626193
O2    O     O_R   0.500000 0.316760 0.385350 -0.618328
O3    O     O_R   0.319080 0.500020 0.614640 -0.625910
O4    O     O_R   0.319070 0.499980 0.385300 -0.582746
O5    O     O_R   0.500000 0.683240 0.614650 -0.615119
O6    O     O_R   0.499980 0.683210 0.385310 -0.629848
O7    O     O_R   0.680930 0.500020 0.614700 -0.621592
O8    O     O_R   0.680920 0.499980 0.385360 -0.621207
Zn1   Zn    Zn3+2 0.500010 0.500020 0.653130 0.927431
Zn2   Zn    Zn3+2 0.499990 0.499980 0.346870 0.942173
N3    N     N_3   0.549642 0.117658 0.862920 -0.451976
H14   H     H_    0.639837 0.078391 0.858775 0.195242
H15   H     H_    0.561189 0.213894 0.847525 0.214077
N4    N     N_2   0.125497 0.598087 0.265756 -0.301866
H16   H     H_    0.069067 0.573361 0.186267 0.208034
C23   C     C_3   0.181423 0.720627 0.245638 -0.755870
H17   H     H_    0.232024 0.723685 0.146002 0.228198
H18   H     H_    0.250077 0.741113 0.325997 0.249781
H19   H     H_    0.107087 0.793705 0.246885 0.221776
N5    N     N_3   0.079210 0.583660 0.640881 -0.463814
H20   H     H_    0.085569 0.502996 0.700800 0.176951
H21   H     H_    0.132845 0.653731 0.685906 0.190761

loop_
_geom_bond_atom_site_label_1
_geom_bond_atom_site_label_2
_ccdc_geom_bond_type
C2    C22   A    
C9    N1    A    
C8    C22   S    
C8    N3    S    
C12   O3    A    
C6    C7    S    
C12   O4    A    
C14   H5    S    
C13   N2    A    
C3    H9    S    
C23   H19   S    
N3    H15   S    
C2    C3    A    
O4    Zn2   S    
C17   O7    A    
C7    C8    S    
C13   C14   S    
C14   H4    S    
C21   N5    S    
C7    H11   S    
C16   O6    A    
N5    H20   S    
C4    H10   S    
C1    O1    A    
N3    H14   S    
C17   C19   S    
O7    Zn1   S    
C15   H7    S    
C20   N4    S    
C18   C20   S    
C23   H18   S    
C9    C15   S    
C5    C6    A    
C7    H12   S    
N5    H21   S    
O1    Zn1   S    
C10   C11   A    
O3    Zn1   S    
N4    C23   S    
C15   H6    S    
C18   H1    S    
C6    C22   A    
C11   H3    S    
C16   O5    A    
C20   C21   D    
N1    Zn2   S    
O2    Zn2   S    
C1    C2    S    
O5    Zn1   S    
O8    Zn2   S    
C11   N2    A    
C1    O2    A    
C14   C15   S    
C18   C19   D    
C5    C16   S    
C9    C13   A    
C10   H2    S    
N2    Zn1   S    
C23   H17   S    
C19   H8    S    
O6    Zn2   S    
C12   C21   S    
C3    C4    A    
N4    H16   S    
C17   O8    A    
C4    C5    A    
C10   N1    A    
C8    H13   S    
