data_mof_unit_9620.cif
_audit_creation_date              2012-12-10T17:49:33-0500
_audit_creation_method            fapswitch 2.2
_symmetry_space_group_name_H-M    P1
_symmetry_Int_Tables_number       1
_space_group_crystal_system       triclinic
_cell_length_a                    14.715032
_cell_length_b                    14.649635
_cell_length_c                    15.861255
_cell_angle_alpha                 76.748455
_cell_angle_beta                  102.045958
_cell_angle_gamma                 115.646785
_cell_volume                      2976.82778132

loop_
_atom_site_label
_atom_site_type_symbol
_atom_type_description
_atom_site_fract_x
_atom_site_fract_y
_atom_site_fract_z
_atom_type_partial_charge
C1    C     C_R   0.879737 0.311510 0.512882 0.802086
C2    C     C_3   0.020925 0.405603 0.072213 -0.381067
C3    C     C_3   0.000243 0.498871 0.083197 0.204371
C4    C     C_3   0.078167 0.602979 0.039553 -0.042853
C5    C     C_3   0.086489 0.591129 0.947282 -0.443534
C6    C     C_1   0.001706 0.499222 0.175742 -0.084750
C7    C     C_1   0.995872 0.496754 0.824314 -0.057835
C8    C     C_1   0.997245 0.499266 0.748576 -0.193109
C9    C     C_R   0.811204 0.201273 0.524962 -0.142828
C10   C     C_R   0.188614 0.796857 0.490312 -0.118941
C11   C     C_R   0.785202 0.025813 0.592041 0.472461
C12   C     C_R   0.999450 0.500297 0.659319 0.826933
C13   C     C_R   0.849727 0.129505 0.571427 -0.361465
C14   C     C_R   0.706435 0.167668 0.495276 0.110720
C15   C     C_R   0.639548 0.071185 0.536016 -0.074791
C16   C     C_R   0.678369 0.995941 0.576101 0.003064
C17   C     C_R   0.535088 0.046511 0.534397 0.050007
C18   C     C_R   0.466040 0.943090 0.549429 0.018350
C19   C     C_R   0.504449 0.868221 0.594525 -0.018483
C20   C     C_R   0.610026 0.893534 0.600798 0.385066
C21   C     C_R   0.498901 0.123114 0.526310 -0.165159
C22   C     C_R   0.395490 0.099096 0.518865 -0.255973
C23   C     C_R   0.120208 0.688332 0.487140 0.810194
C24   C     C_R   0.324124 0.998070 0.513938 0.084229
C25   C     C_R   0.360927 0.920665 0.524043 0.092943
C26   C     C_R   0.217536 0.972275 0.499089 0.148958
C27   C     C_R   0.150984 0.870202 0.489197 -0.194225
C28   C     C_R   0.293189 0.824548 0.503215 -0.236197
C29   C     C_R   0.703452 0.635927 0.326412 -0.301454
C30   C     C_R   0.788094 0.613175 0.361073 0.052238
C31   C     C_R   0.720510 0.535351 0.495220 0.285249
C32   C     C_R   0.624291 0.535608 0.455316 -0.040144
C33   C     C_R   0.620075 0.595765 0.373156 0.057110
C34   C     C_R   0.000670 0.499933 0.340584 0.827888
C35   C     C_R   0.533506 0.479518 0.494972 0.026648
C36   C     C_R   0.446852 0.504041 0.464959 -0.016584
C37   C     C_R   0.446358 0.568898 0.382690 0.351008
C38   C     C_R   0.532289 0.613122 0.338300 -0.187977
C39   C     C_R   0.524651 0.392511 0.558270 -0.225934
C40   C     C_R   0.439446 0.339631 0.600746 -0.196627
C41   C     C_R   0.361414 0.373430 0.583015 0.082847
C42   C     C_R   0.363957 0.457616 0.516924 -0.019355
C43   C     C_R   0.280084 0.321855 0.631019 -0.288871
C44   C     C_R   0.201578 0.353630 0.616864 0.595616
C45   C     C_3   0.002315 0.389950 0.973834 0.321200
C46   C     C_R   0.284576 0.491557 0.508359 -0.088835
C47   C     C_3   0.896436 0.497928 0.932699 -0.413271
C48   C     C_3   0.894205 0.490148 0.032278 0.198680
C49   C     C_1   0.001828 0.499433 0.251288 -0.188094
C50   C     C_3   0.995652 0.492422 0.917278 0.229386
Cu1   Cu    Cu3+1 0.081750 0.475690 0.522550 0.938487
Cu2   Cu    Cu3+1 0.918250 0.524310 0.477450 0.912808
H1    H     H_    0.972179 0.335059 0.112626 0.164483
H2    H     H_    0.098827 0.415726 0.101346 0.168444
H3    H     H_    0.042063 0.658675 0.027581 0.108086
H4    H     H_    0.322049 0.771170 0.495048 0.161426
H5    H     H_    0.069623 0.846637 0.480431 0.169782
H6    H     H_    0.372719 0.161305 0.513591 0.153183
H7    H     H_    0.930686 0.153845 0.591296 0.196002
H8    H     H_    0.550800 0.201493 0.531019 0.140222
H9    H     H_    0.528916 0.658953 0.274421 0.160114
H10   H     H_    0.285527 0.559604 0.463882 0.192445
H11   H     H_    0.435879 0.273249 0.649600 0.140569
H12   H     H_    0.701603 0.680884 0.261988 0.141869
H13   H     H_    0.849467 0.640364 0.322067 0.140359
H14   H     H_    0.894552 0.572459 0.897956 0.136248
H15   H     H_    0.583618 0.363721 0.574559 0.129831
H16   H     H_    0.276525 0.255277 0.679715 0.159199
H17   H     H_    0.826627 0.438546 0.904108 0.206913
H18   H     H_    0.878740 0.555816 0.040200 0.090616
H19   H     H_    0.160991 0.592102 0.945796 0.209103
H20   H     H_    0.085044 0.660364 0.900788 0.153065
N1    N     N_R   0.795410 0.560790 0.443550 -0.181379
N2    N     N_R   0.204590 0.439170 0.556520 -0.229245
O1    O     O_R   0.977910 0.338120 0.529720 -0.579266
O2    O     O_R   0.839850 0.379180 0.491640 -0.587856
O3    O     O_R   0.069060 0.479460 0.639610 -0.596753
O4    O     O_R   0.931000 0.520530 0.601530 -0.576055
O5    O     O_R   0.160150 0.620820 0.508360 -0.582685
O6    O     O_R   0.022090 0.661880 0.470280 -0.592635
O7    O     O_R   0.069000 0.479470 0.398470 -0.566358
O8    O     O_R   0.930940 0.520540 0.360390 -0.596381
C51   C     C_3   0.085314 0.360112 0.951943 -0.360206
C52   C     C_3   0.197334 0.433129 0.959577 -0.887383
H21   H     H_    0.213182 0.497391 0.904209 0.251610
H22   H     H_    0.223665 0.459238 0.023456 0.253328
H23   H     H_    0.242877 0.391102 0.954744 0.249916
H24   H     H_    0.081413 0.287299 0.995117 0.194250
H25   H     H_    0.066671 0.343623 0.884217 0.225923
O9    O     O_3   0.647572 0.818737 0.630877 -0.673128
H26   H     H_    0.597009 0.754441 0.610006 0.307165
O10   O     O_3   0.825533 0.955023 0.632982 -0.669046
H27   H     H_    0.900762 0.988750 0.637858 0.314005
C53   C     C_3   0.671670 0.223043 0.408800 -0.348113
C54   C     C_3   0.608603 0.150655 0.342485 -0.824753
H28   H     H_    0.648306 0.103632 0.335835 0.253347
H29   H     H_    0.532221 0.099373 0.361747 0.261535
H30   H     H_    0.598006 0.196310 0.277784 0.240030
H31   H     H_    0.630262 0.266797 0.418136 0.198453
H32   H     H_    0.738359 0.280323 0.376319 0.207926
C55   C     C_3   0.899546 0.291058 0.962128 -0.409216
C56   C     C_3   0.856460 0.265524 0.869327 -0.858206
H33   H     H_    0.831639 0.324279 0.827407 0.248451
H34   H     H_    0.910501 0.254719 0.837562 0.250342
H35   H     H_    0.787989 0.192092 0.873273 0.247450
H36   H     H_    0.910487 0.222680 0.002207 0.186498
H37   H     H_    0.837564 0.292687 0.989464 0.272363
C57   C     C_3   0.441149 0.771939 0.653918 -0.380308
C58   C     C_3   0.393676 0.796679 0.718218 -0.790934
H38   H     H_    0.452418 0.858652 0.753388 0.251751
H39   H     H_    0.331472 0.820327 0.684778 0.254789
H40   H     H_    0.360817 0.727301 0.766922 0.230556
H41   H     H_    0.382485 0.712358 0.617052 0.199046
H42   H     H_    0.489185 0.733724 0.695749 0.223681
C59   C     C_3   0.177331 0.053503 0.495706 -0.409578
C60   C     C_3   0.061731 0.016727 0.486068 -0.832120
H43   H     H_    0.026481 0.987482 0.423230 0.249468
H44   H     H_    0.029943 0.956238 0.541562 0.253758
H45   H     H_    0.042458 0.082066 0.486345 0.250771
H46   H     H_    0.208428 0.087257 0.556952 0.206156
H47   H     H_    0.205520 0.115477 0.440039 0.205736
O11   O     O_3   0.121700 0.292679 0.664114 -0.770889
H48   H     H_    0.079034 0.328900 0.662042 0.366986
C61   C     C_3   0.747338 0.536764 0.592970 -0.394415
C62   C     C_3   0.826770 0.642238 0.612255 -0.728129
H49   H     H_    0.892087 0.671520 0.574596 0.268366
H50   H     H_    0.791559 0.698705 0.594599 0.253147
H51   H     H_    0.855252 0.637426 0.683024 0.229091
H52   H     H_    0.681817 0.525171 0.624369 0.192067
H53   H     H_    0.768586 0.472494 0.626289 0.210619
O12   O     O_3   0.360385 0.580469 0.337699 -0.765198
H54   H     H_    0.303168 0.512019 0.344191 0.320324
O13   O     O_3   0.815206 0.398903 0.063631 -0.747265
H55   H     H_    0.799377 0.409769 0.117447 0.328412
C63   C     C_3   0.180284 0.662267 0.093716 -0.379487
C64   C     C_3   0.255211 0.611711 0.124411 -0.767281
H56   H     H_    0.221564 0.536583 0.166006 0.255493
H57   H     H_    0.284808 0.606052 0.068152 0.229679
H58   H     H_    0.321500 0.661466 0.164893 0.265301
H59   H     H_    0.219815 0.737756 0.053826 0.197269
H60   H     H_    0.163762 0.679672 0.152052 0.207056

loop_
_geom_bond_atom_site_label_1
_geom_bond_atom_site_label_2
_ccdc_geom_bond_type
C10   C27   A    
C55   H37   S    
C55   C56   S    
C59   H47   S    
C41   C42   A    
C36   C42   A    
C54   H28   S    
Cu1   N2    S    
C9    C14   A    
C3    C6    S    
C28   H4    S    
C54   H30   S    
C63   C64   S    
C57   C58   S    
C25   C28   A    
C26   C27   A    
C29   C30   A    
C40   H11   S    
C46   H10   S    
C45   C50   S    
C36   C37   A    
C24   C26   A    
C31   C61   S    
C5    H20   S    
C58   H39   S    
C31   N1    A    
C59   C60   S    
C29   C33   A    
C3    C48   S    
C60   H43   S    
C56   H35   S    
C18   C19   A    
C42   C46   A    
C57   H42   S    
C9    C13   A    
C26   C59   S    
C47   H17   S    
C11   O10   S    
C19   C20   A    
C43   H16   S    
C12   O4    A    
C62   H51   S    
C52   H23   S    
Cu2   O8    S    
C34   O7    A    
C23   O6    A    
Cu1   O7    S    
C47   H14   S    
C16   C20   A    
C38   H9    S    
C19   C57   S    
C51   H24   S    
C29   H12   S    
C21   C22   A    
C41   C43   A    
C45   C51   S    
C18   C25   A    
C64   H58   S    
Cu2   O4    S    
C47   C50   S    
C2    C45   S    
C63   H59   S    
C51   H25   S    
C15   C16   A    
Cu1   Cu2   S    
C1    O1    A    
C32   C35   A    
C48   O13   S    
C7    C8    T    
C1    C9    S    
C52   H21   S    
C21   H8    S    
C64   H57   S    
Cu2   N1    S    
C27   H5    S    
C58   H40   S    
C48   H18   S    
C39   C40   A    
C30   N1    A    
C64   H56   S    
Cu2   O2    S    
C20   O9    S    
C17   C21   A    
C37   O12   S    
C35   C36   A    
C57   H41   S    
C35   C39   A    
C43   C44   A    
Cu1   O3    S    
C37   C38   A    
C11   C16   A    
C51   C52   S    
C53   H32   S    
C8    C12   S    
C12   O3    A    
C17   C18   A    
C61   H53   S    
C53   C54   S    
C24   C25   A    
C56   H34   S    
C45   C55   S    
C4    C63   S    
C40   C41   A    
C4    H3    S    
C2    H2    S    
O13   H55   S    
C22   C24   A    
C5    C50   S    
O12   H54   S    
C46   N2    A    
C10   C28   A    
C55   H36   S    
C15   C17   A    
C34   C49   S    
C1    O2    A    
C39   H15   S    
C31   C32   A    
C7    C50   S    
Cu1   O1    S    
C4    C5    S    
C47   C48   S    
C2    H1    S    
C22   H6    S    
C54   H29   S    
C13   H7    S    
C10   C23   S    
C33   C38   A    
C60   H45   S    
C32   C33   A    
C2    C3    S    
C5    H19   S    
C44   N2    A    
C58   H38   S    
C11   C13   A    
O9    H26   S    
C62   H49   S    
C53   H31   S    
C44   O11   S    
O10   H27   S    
C60   H44   S    
C61   H52   S    
C6    C49   T    
C56   H33   S    
Cu1   O5    S    
C30   H13   S    
C63   H60   S    
C59   H46   S    
C62   H50   S    
C14   C15   A    
C52   H22   S    
C34   O8    A    
C23   O5    A    
O11   H48   S    
Cu2   O6    S    
C14   C53   S    
C3    C4    S    
C61   C62   S    
