data_mof_unit_20744.cif
_audit_creation_date              2012-12-10T18:03:59-0500
_audit_creation_method            fapswitch 2.2
_symmetry_space_group_name_H-M    P1
_symmetry_Int_Tables_number       1
_space_group_crystal_system       triclinic
_cell_length_a                    10.87495
_cell_length_b                    9.567504
_cell_length_c                    10.882379
_cell_angle_alpha                 90.700908
_cell_angle_beta                  93.157065
_cell_angle_gamma                 89.986268
_cell_volume                      1130.46626574

loop_
_atom_site_label
_atom_site_type_symbol
_atom_type_description
_atom_site_fract_x
_atom_site_fract_y
_atom_site_fract_z
_atom_type_partial_charge
C1    C     C_R   0.262564 0.499615 0.505646 0.797726
C2    C     C_R   0.737347 0.499578 0.493988 0.793753
C3    C     C_R   0.412404 0.072016 0.431815 0.103933
C4    C     C_R   0.588367 0.073996 0.567125 0.090227
C5    C     C_R   0.412456 0.923892 0.432506 -0.023550
C6    C     C_R   0.587581 0.925816 0.567531 -0.050361
C7    C     C_R   0.494557 0.499274 0.261952 0.841073
C8    C     C_R   0.509167 0.500516 0.737820 0.857885
C9    C     C_R   0.515403 0.624034 0.067347 0.024024
C10   C     C_R   0.518880 0.625195 0.940534 -0.009629
C11   C     C_R   0.499587 0.498636 0.128396 -0.277843
C12   C     C_R   0.526399 0.501118 0.871970 -0.254055
C13   C     C_R   0.503168 0.373540 0.059254 0.324215
C14   C     C_R   0.544815 0.376471 0.938942 0.325788
C15   C     C_3   0.439357 0.752489 0.928498 -0.224359
C16   C     C_3   0.436891 0.751918 0.069141 -0.244643
C17   C     C_R   0.062666 0.370235 0.510696 -0.052068
C18   C     C_R   0.936631 0.370828 0.481231 -0.051757
C19   C     C_R   0.871333 0.497954 0.488935 -0.086694
C20   C     C_R   0.128437 0.497626 0.509748 -0.080960
C21   C     C_R   0.936272 0.624442 0.500317 -0.186473
C22   C     C_R   0.063813 0.624382 0.504506 -0.170596
Cu1   Cu    Cu3+1 0.500000 0.640660 0.500000 0.959288
Cu2   Cu    Cu3+1 0.500000 0.359340 0.500000 1.016627
H1    H     H_    0.487165 0.841565 0.887926 0.147021
H2    H     H_    0.345215 0.732993 0.106654 0.140198
H3    H     H_    0.888724 0.723811 0.503693 0.170370
H4    H     H_    0.111621 0.723780 0.506521 0.173088
H5    H     H_    0.342552 0.866129 0.378373 0.110470
H6    H     H_    0.658092 0.869591 0.620899 0.118135
N1    N     N_R   0.500000 0.852070 0.500000 -0.166749
N2    N     N_R   0.500000 0.147940 0.500000 -0.206246
O1    O     O_R   0.319640 0.618740 0.499990 -0.591407
O2    O     O_R   0.680360 0.618740 0.500010 -0.592678
O3    O     O_R   0.319620 0.381170 0.499990 -0.584671
O4    O     O_R   0.680380 0.381170 0.500010 -0.580703
O5    O     O_R   0.499990 0.618810 0.319660 -0.584105
O6    O     O_R   0.500010 0.618810 0.680340 -0.585343
O7    O     O_R   0.499960 0.381240 0.319650 -0.539008
O8    O     O_R   0.500040 0.381240 0.680350 -0.541700
O9    O     O_3   0.449905 0.252160 0.099035 -0.538818
C23   C     C_3   0.330478 0.240834 0.039065 0.128577
H7    H     H_    0.322952 0.285557 0.944581 0.129851
H8    H     H_    0.262813 0.297567 0.093792 0.152325
C24   C     C_3   0.293119 0.088329 0.024030 -0.732134
H9    H     H_    0.297500 0.035134 0.113958 0.238682
H10   H     H_    0.197436 0.081010 0.983202 0.201537
H11   H     H_    0.355502 0.035227 0.961161 0.245032
O10   O     O_3   0.585584 0.254093 0.885129 -0.552615
C25   C     C_3   0.694559 0.208992 0.952086 0.130625
H12   H     H_    0.695610 0.231469 0.052934 0.150255
H13   H     H_    0.776104 0.262165 0.916972 0.149002
C26   C     C_3   0.709716 0.051429 0.939535 -0.742307
H14   H     H_    0.734533 0.019197 0.846338 0.221174
H15   H     H_    0.783136 0.014535 0.006408 0.209326
H16   H     H_    0.622317 0.000515 0.958877 0.254445
C27   C     C_1   0.317597 0.723423 0.867380 0.279379
N3    N     N_1   0.222054 0.700576 0.819220 -0.294748
C28   C     C_1   0.505167 0.866737 0.132691 0.275866
N4    N     N_1   0.558966 0.956297 0.183911 -0.236461
C29   C     C_1   0.118440 0.240956 0.554538 0.291728
N5    N     N_1   0.161522 0.137845 0.591142 -0.296408
C30   C     C_1   0.879672 0.243141 0.432168 0.279504
N6    N     N_1   0.835330 0.141399 0.391702 -0.284909
C31   C     C_1   0.316337 0.140226 0.359726 0.327873
N7    N     N_1   0.236914 0.193965 0.303237 -0.327585
C32   C     C_1   0.688283 0.144652 0.632927 0.344228
N8    N     N_1   0.770527 0.201176 0.683960 -0.311644

loop_
_geom_bond_atom_site_label_1
_geom_bond_atom_site_label_2
_ccdc_geom_bond_type
C5    N1    A    
C4    C32   S    
C25   H13   S    
Cu1   Cu2   S    
Cu2   N2    S    
C19   C21   A    
Cu1   O5    S    
C4    N2    A    
Cu1   O6    S    
C9    C11   A    
C9    C10   A    
C3    N2    A    
C26   H15   S    
Cu2   O4    S    
C8    C12   S    
Cu1   O2    S    
C17   C29   S    
C2    O2    A    
C13   O9    S    
C17   C18   A    
C21   H3    S    
C1    O1    A    
C28   N4    T    
C24   H10   S    
C22   H4    S    
C13   C14   A    
C7    C11   S    
C15   C27   S    
C27   N3    T    
C3    C31   S    
C23   H8    S    
C32   N8    T    
C10   C12   A    
C21   C22   A    
C6    H6    S    
C9    C16   S    
C12   C14   A    
C25   H12   S    
C5    H5    S    
C10   C15   S    
C8    O6    A    
C16   H2    S    
C29   N5    T    
C7    O5    A    
C18   C30   S    
C15   H1    S    
C14   O10   S    
C31   N7    T    
C15   C16   S    
Cu2   O3    S    
C24   H9    S    
C11   C13   A    
C17   C20   A    
C8    O8    A    
C1    O3    A    
C4    C6    A    
C18   C19   A    
O9    C23   S    
C26   H16   S    
C2    O4    A    
O10   C25   S    
C7    O7    A    
Cu2   O8    S    
C1    C20   S    
C6    N1    A    
C24   H11   S    
C3    C5    A    
C2    C19   S    
C26   H14   S    
Cu2   O7    S    
C23   C24   S    
C30   N6    T    
C23   H7    S    
C20   C22   A    
C25   C26   S    
Cu1   O1    S    
C16   C28   S    
Cu1   N1    S    
