data_mof_unit_49764.cif
_audit_creation_date              2013-03-05T16:09:07-0500
_audit_creation_method            fapswitch 2.2
_symmetry_space_group_name_H-M    P1
_symmetry_Int_Tables_number       1
_space_group_crystal_system       triclinic
_cell_length_a                    18.18669
_cell_length_b                    7.102085
_cell_length_c                    12.998638
_cell_angle_alpha                 89.962787
_cell_angle_beta                  72.250088
_cell_angle_gamma                 90.028796
_cell_volume                      1599.02353133

loop_
_atom_site_label
_atom_site_type_symbol
_atom_site_description
_atom_site_fract_x
_atom_site_fract_y
_atom_site_fract_z
_atom_type_partial_charge
O1    O     O_R   0.453880 0.506200 0.150010 -0.562294
O2    O     O_R   0.546120 0.006200 0.849990 -0.563425
O3    O     O_R   0.604080 0.177770 0.007280 -0.605144
O4    O     O_R   0.395920 0.677770 0.992720 -0.604861
C1    C     C_R   0.636069 0.344381 0.001172 1.045206
C2    C     C_R   0.363923 0.844318 0.998857 1.046682
O5    O     O_R   0.458010 0.176640 0.159130 -0.602292
O6    O     O_R   0.541990 0.676640 0.840870 -0.601113
O7    O     O_R   0.399010 0.004010 0.002930 -0.569689
O8    O     O_R   0.600990 0.504010 0.997070 -0.569710
C3    C     C_R   0.443306 0.345166 0.201786 0.996469
C4    C     C_R   0.556719 0.845388 0.798205 0.995165
O9    O     O_3   0.480810 0.338440 0.948570 -0.269794
O10   O     O_3   0.519190 0.838440 0.051430 -0.269778
V1    V     V_3+5 0.503560 0.064490 0.009540 1.269275
V2    V     V_3+5 0.496440 0.564490 0.990460 1.269903
C5    C     C_R   0.568727 0.888489 0.502640 -0.080037
C6    C     C_R   0.431105 0.387965 0.497357 -0.079767
C7    C     C_R   0.587900 0.856295 0.679839 -0.276125
C8    C     C_R   0.412164 0.355205 0.320131 -0.277908
C9    C     C_R   0.943028 0.863045 0.386931 0.459072
C10   C     C_R   0.056023 0.368340 0.613527 0.448629
C11   C     C_R   0.910221 0.915082 0.496267 -0.279429
C12   C     C_R   0.089832 0.404275 0.502316 -0.304712
C13   C     C_R   0.831171 0.963392 0.533689 0.006041
C14   C     C_R   0.168664 0.453689 0.464709 0.017517
C15   C     C_R   0.781885 0.911533 0.471494 0.115010
C16   C     C_R   0.217916 0.407105 0.527891 0.118508
C17   C     C_R   0.815211 0.887048 0.358299 -0.148727
C18   C     C_R   0.184463 0.384272 0.641264 -0.148520
C19   C     C_R   0.700307 0.887854 0.519187 0.024789
C20   C     C_R   0.299589 0.384262 0.480556 0.020580
C21   C     C_R   0.650654 0.898839 0.453575 -0.083421
C22   C     C_R   0.349126 0.397027 0.546253 -0.082776
C23   C     C_R   0.684568 0.920015 0.340662 0.507331
C24   C     C_R   0.315083 0.418273 0.659064 0.506960
C25   C     C_R   0.764526 0.887848 0.292927 -0.228834
C26   C     C_R   0.235134 0.385770 0.706704 -0.231068
C27   C     C_R   0.668285 0.841298 0.629885 0.518313
C28   C     C_R   0.331932 0.336630 0.370140 0.519852
C29   C     C_R   0.537652 0.879998 0.616727 -0.098382
C30   C     C_R   0.462297 0.380318 0.383271 -0.098728
C31   C     C_R   0.897394 0.866133 0.316991 -0.212679
C32   C     C_R   0.102129 0.366210 0.682907 -0.198920
C33   C     C_1   0.216114 0.858235 0.001103 -0.161457
C34   C     C_1   0.783878 0.358185 0.998943 -0.166334
C35   C     C_1   0.283446 0.852053 0.999935 -0.162885
C36   C     C_1   0.716544 0.352144 0.000107 -0.166000
O11   O     O_R   0.899030 0.205490 0.002790 -0.619003
O12   O     O_R   0.100970 0.705490 0.997210 -0.620289
O13   O     O_R   0.042000 0.536370 0.840840 -0.601751
O14   O     O_R   0.958000 0.036370 0.159160 -0.599583
C37   C     C_R   0.060508 0.369060 0.798864 0.997669
C38   C     C_R   0.939361 0.868940 0.201113 1.004512
O15   O     O_R   0.895930 0.535070 0.992690 -0.563020
O16   O     O_R   0.104070 0.035070 0.007310 -0.560473
O17   O     O_R   0.953870 0.707520 0.150040 -0.589032
O18   O     O_R   0.046130 0.207520 0.849960 -0.584280
C39   C     C_R   0.864252 0.366612 0.998333 1.008845
C40   C     C_R   0.135744 0.866662 0.001690 1.011691
O19   O     O_3   0.019200 0.374340 0.051340 -0.278858
O20   O     O_3   0.980800 0.874340 0.948660 -0.277233
V3    V     V_3+5 0.996440 0.648350 0.990470 1.234567
V4    V     V_3+5 0.003560 0.148350 0.009530 1.239614
C41   C     C_2   0.452284 0.875154 0.668928 0.538631
H1    H     H_    0.415454 0.799974 0.631223 0.090712
O21   O     O_2   0.421985 0.958604 0.753228 -0.594548
C42   C     C_2   0.547683 0.376974 0.331126 0.537741
H2    H     H_    0.584675 0.302401 0.368819 0.091050
O22   O     O_2   0.577808 0.460803 0.246804 -0.593225
O23   O     O_3   0.638987 0.971324 0.277221 -0.771304
H3    H     H_    0.670880 0.037279 0.211504 0.320694
O24   O     O_3   0.360531 0.470112 0.722581 -0.771278
H4    H     H_    0.328659 0.537546 0.787623 0.319978
C43   C     C_2   0.515591 0.870599 0.435532 0.547397
H5    H     H_    0.529586 0.775059 0.367446 0.134463
O25   O     O_2   0.456452 0.963107 0.454614 -0.635404
C44   C     C_2   0.484153 0.370363 0.564614 0.547572
H6    H     H_    0.470164 0.274520 0.632663 0.134435
O26   O     O_2   0.543197 0.463392 0.545712 -0.635232
O27   O     O_3   0.717066 0.773698 0.685263 -0.759693
H7    H     H_    0.687466 0.718946 0.755571 0.315608
O28   O     O_3   0.283693 0.264486 0.315166 -0.750975
H8    H     H_    0.313696 0.209903 0.245093 0.317720
O29   O     O_3   0.020749 0.821861 0.342839 -0.759547
H9    H     H_    0.042639 0.783490 0.400439 0.284894
O30   O     O_3   0.977489 0.340258 0.658587 -0.777854
H10   H     H_    0.949776 0.422977 0.621672 0.313975
C45   C     C_2   0.803919 0.098393 0.625944 0.583044
H11   H     H_    0.835418 0.117678 0.683657 0.092243
O31   O     O_2   0.747295 0.197333 0.635567 -0.592139
C46   C     C_2   0.195232 0.585303 0.370656 0.581825
H12   H     H_    0.163322 0.600508 0.313140 0.082424
O32   O     O_2   0.251508 0.686389 0.359402 -0.588372
C47   C     C_2   0.959627 0.930669 0.568290 0.486886
H13   H     H_    0.018032 0.984931 0.537602 0.057963
O33   O     O_2   0.936247 0.877135 0.661945 -0.548374
C48   C     C_2   0.044016 0.381927 0.425455 0.512718
H14   H     H_    0.982077 0.401786 0.450538 0.015946
O34   O     O_2   0.075168 0.332132 0.332431 -0.536074
C49   C     C_2   0.789859 0.846720 0.175597 0.526670
H15   H     H_    0.833616 0.930284 0.119532 0.024286
O35   O     O_2   0.757649 0.723495 0.139943 -0.540714
C50   C     C_2   0.209803 0.345886 0.824205 0.529512
H16   H     H_    0.166461 0.430650 0.879997 0.023462
O36   O     O_2   0.241709 0.222599 0.860281 -0.540982

loop_
_geom_bond_atom_site_label_1
_geom_bond_atom_site_label_2
_geom_bond_distance
_ccdc_geom_bond_type
O30   H10   0.988327 S    
C33   C40   1.460614 S    
C49   H15   1.077942 S    
O15   C39   1.319884 A    
C34   C39   1.460544 S    
C15   C17   1.420995 A    
O24   H4    0.991033 S    
C47   H13   1.084866 S    
O1    C3    1.310649 A    
O2    C4    1.310252 A    
C2    O7    1.310047 A    
C50   O36   1.220309 D    
O27   H7    0.987718 S    
O29   H9    0.987387 S    
O5    C3    1.312351 A    
C12   C48   1.491750 S    
C23   C25   1.414988 A    
C12   C14   1.410520 A    
C6    C30   1.418139 A    
C8    C28   1.410838 A    
C44   O26   1.219905 D    
C14   C46   1.496568 S    
C18   C26   1.432098 A    
O6    V2    2.028987 S    
O19   V3    2.186999 S    
O20   V4    2.187543 S    
C9    C31   1.405633 A    
C32   C37   1.466187 S    
C10   C32   1.406312 A    
C11   C47   1.486295 S    
C42   H2    1.083591 S    
C41   O21   1.220101 D    
O15   V3    1.988921 S    
C26   C50   1.481733 S    
O16   V4    1.989677 S    
C45   O31   1.221555 D    
O6    C4    1.312960 A    
O5    V1    2.030304 S    
C23   O23   1.384467 S    
C49   O35   1.220390 D    
O11   V4    1.971965 S    
C17   C31   1.433636 A    
C30   C42   1.493230 S    
O12   V3    1.971596 S    
C28   O28   1.387480 S    
C18   C32   1.434268 A    
C5    C21   1.432703 A    
C50   H16   1.078045 S    
O14   C38   1.308545 A    
O17   V3    2.024994 S    
C9    O29   1.385165 S    
C33   C35   1.220819 T    
O18   V4    2.024270 S    
C1    C36   1.460414 S    
C34   C36   1.220788 T    
C3    C8    1.470115 S    
C2    C35   1.460466 S    
C15   C19   1.432676 A    
C16   C20   1.433283 A    
O13   V3    2.030284 S    
C27   O27   1.387480 S    
O4    C2    1.310191 A    
O14   V4    2.028970 S    
C44   H6    1.082737 S    
C29   C41   1.493191 S    
O16   C40   1.320166 A    
O13   C37   1.308515 A    
C20   C22   1.420653 A    
O4    V2    1.989707 S    
O19   V4    1.745629 S    
C43   H5    1.082627 S    
O20   V3    1.745243 S    
C6    C22   1.432945 A    
C31   C38   1.466541 S    
O28   H8    0.987574 S    
C6    C44   1.491633 S    
C46   O32   1.221532 D    
O1    V2    2.022740 S    
C10   O30   1.382870 S    
O2    V1    2.023450 S    
C43   O25   1.219922 D    
C7    C27   1.411274 A    
C48   H14   1.082314 S    
C48   O34   1.221166 D    
C9    C11   1.412904 A    
C10   C12   1.410793 A    
C20   C28   1.416508 A    
O3    V1    1.988948 S    
C19   C21   1.420735 A    
C14   C16   1.426453 A    
O3    C1    1.309946 A    
C8    C30   1.411742 A    
C37   O18   1.310934 A    
C47   O33   1.221066 D    
C13   C15   1.426395 A    
C13   C45   1.497524 S    
O11   C39   1.317503 A    
O12   C40   1.317347 A    
C16   C18   1.421670 A    
O7    V1    1.976387 S    
O23   H3    0.991296 S    
O8    V2    1.976781 S    
C25   C49   1.481860 S    
C4    C7    1.470610 S    
C24   C26   1.414707 A    
C46   H12   1.082552 S    
C21   C23   1.415933 A    
C19   C27   1.416764 A    
C22   C24   1.415340 A    
C11   C13   1.412626 A    
C5    C29   1.418133 A    
C24   O24   1.384410 S    
C1    O8    1.310163 A    
C42   O22   1.220111 D    
C41   H1    1.083565 S    
O9    V2    1.746352 S    
C17   C25   1.431560 A    
C5    C43   1.491618 S    
O10   V1    1.745963 S    
C45   H11   1.082498 S    
C7    C29   1.411911 A    
C38   O17   1.311154 A    
