data_mof_unit_15310.cif
_audit_creation_date              2012-12-10T19:42:53-0500
_audit_creation_method            fapswitch 2.2
_symmetry_space_group_name_H-M    P1
_symmetry_Int_Tables_number       1
_space_group_crystal_system       triclinic
_cell_length_a                    10.877534
_cell_length_b                    12.995437
_cell_length_c                    11.64946
_cell_angle_alpha                 99.77997
_cell_angle_beta                  94.463845
_cell_angle_gamma                 90.445334
_cell_volume                      1617.52436725

loop_
_atom_site_label
_atom_site_type_symbol
_atom_type_description
_atom_site_fract_x
_atom_site_fract_y
_atom_site_fract_z
_atom_type_partial_charge
C1    C     C_R   0.498460 0.299016 0.478643 0.811249
C2    C     C_R   0.501540 0.700984 0.521357 0.811249
C3    C     C_R   0.871941 0.495963 0.502176 -0.084779
C4    C     C_R   0.128059 0.504037 0.497824 -0.084779
C5    C     C_R   0.948207 0.485658 0.603755 0.014507
C6    C     C_R   0.051793 0.514341 0.396245 0.014507
C7    C     C_R   0.500637 0.814307 0.533751 -0.061136
C8    C     C_R   0.499363 0.185693 0.466249 -0.061136
C9    C     C_R   0.517114 0.015894 0.346467 -0.175216
C10   C     C_R   0.482886 0.984106 0.653533 -0.175216
C11   C     C_R   0.512976 0.123899 0.356998 -0.188790
C12   C     C_R   0.487023 0.876100 0.643002 -0.188790
C13   C     C_R   0.488333 0.138883 0.564699 -0.235571
C14   C     C_R   0.511667 0.861117 0.435301 -0.235571
C15   C     C_R   0.492669 0.030982 0.554984 0.171050
C16   C     C_R   0.507331 0.969018 0.445016 0.171050
C17   C     C_R   0.409224 0.384357 0.019340 -0.317564
C18   C     C_R   0.590776 0.615643 0.980660 -0.317565
C19   C     C_R   0.414497 0.397659 0.142034 0.115736
C20   C     C_R   0.585503 0.602341 0.857966 0.115736
C21   C     C_R   0.535440 0.552563 0.158423 0.042917
C22   C     C_R   0.464560 0.447437 0.841577 0.042917
C23   C     C_R   0.262028 0.502427 0.499485 0.799696
C24   C     C_R   0.737972 0.497573 0.500515 0.799696
C25   C     C_R   0.531883 0.542718 0.035183 0.061933
C26   C     C_R   0.468116 0.457282 0.964817 0.061933
C27   C     C_R   0.198621 0.642622 0.170031 0.196597
C28   C     C_R   0.801379 0.357378 0.829969 0.196597
C29   C     C_R   0.157492 0.626369 0.276623 -0.122613
C30   C     C_R   0.842508 0.373631 0.723377 -0.122613
C31   C     C_R   0.098863 0.531432 0.284779 0.093564
C32   C     C_R   0.901137 0.468568 0.715221 0.093565
C33   C     C_R   0.080638 0.453787 0.184931 -0.165557
C34   C     C_R   0.919362 0.546212 0.815069 -0.165557
C35   C     C_R   0.121997 0.470314 0.078811 -0.182203
C36   C     C_R   0.878003 0.529686 0.921189 -0.182203
C37   C     C_R   0.180603 0.564680 0.071224 -0.133885
C38   C     C_R   0.819397 0.435320 0.928776 -0.133885
C39   C     C_R   0.924860 0.509356 0.399907 -0.236236
C40   C     C_R   0.075140 0.490644 0.600093 -0.236236
Cu1   Cu    Cu3+1 0.509250 0.507730 0.615930 0.950502
Cu2   Cu    Cu3+1 0.490750 0.492270 0.384070 0.950502
H1    H     H_    0.212201 0.577032 0.988678 0.153226
H2    H     H_    0.787799 0.422968 0.011322 0.153226
H3    H     H_    0.413871 0.382865 0.786840 0.121828
H4    H     H_    0.586129 0.617135 0.213160 0.121828
H5    H     H_    0.631510 0.658955 0.817072 0.129226
H6    H     H_    0.368490 0.341045 0.182928 0.129226
H7    H     H_    0.359052 0.317778 0.967686 0.142742
H8    H     H_    0.640948 0.682222 0.032314 0.142742
H9    H     H_    0.171150 0.687214 0.352744 0.136863
H10   H     H_    0.828850 0.312786 0.647256 0.136863
H11   H     H_    0.034700 0.380513 0.189484 0.145169
H12   H     H_    0.965300 0.619487 0.810516 0.145169
H13   H     H_    0.108309 0.410042 0.002227 0.157696
H14   H     H_    0.891691 0.589958 0.997773 0.157696
H15   H     H_    0.867106 0.518473 0.322198 0.160886
H16   H     H_    0.132894 0.481527 0.677801 0.160886
H17   H     H_    0.523706 0.813730 0.351042 0.167282
H18   H     H_    0.476294 0.186270 0.648958 0.167282
H19   H     H_    0.478340 0.840989 0.720002 0.164668
H20   H     H_    0.521660 0.159011 0.279998 0.164668
H21   H     H_    0.528274 0.969203 0.261678 0.160597
H22   H     H_    0.471726 0.030797 0.738322 0.160597
N1    N     N_R   0.523180 0.519350 0.790130 -0.181672
N2    N     N_R   0.476820 0.480650 0.209870 -0.181672
O1    O     O_R   0.506570 0.354460 0.582000 -0.585899
O2    O     O_R   0.493430 0.645540 0.418000 -0.585899
O3    O     O_R   0.490940 0.341410 0.386200 -0.597649
O4    O     O_R   0.509060 0.658590 0.613800 -0.597649
O5    O     O_R   0.327460 0.506540 0.597900 -0.591210
O6    O     O_R   0.672540 0.493460 0.402100 -0.591210
O7    O     O_R   0.311830 0.493480 0.402100 -0.573117
O8    O     O_R   0.688170 0.506520 0.597900 -0.573117
I1    I     I_    0.287150 0.784633 0.157495 -0.464840
I2    I     I_    0.712849 0.215366 0.842505 -0.464839

loop_
_geom_bond_atom_site_label_1
_geom_bond_atom_site_label_2
_ccdc_geom_bond_type
C8    C13   A    
C21   N2    A    
C27   C29   A    
C1    C8    S    
Cu1   Cu2   S    
C2    C7    S    
C11   H20   S    
Cu1   O1    S    
C13   H18   S    
C14   H17   S    
C24   O6    A    
C17   C26   A    
C35   C37   A    
C9    C16   A    
C2    O2    A    
C10   C15   A    
C15   C16   A    
C39   H15   S    
C19   N2    A    
C30   H10   S    
C33   C35   A    
Cu1   O8    S    
C7    C14   A    
C4    C40   A    
C31   C33   A    
C34   C36   A    
Cu1   O5    S    
C5    C32   S    
C6    C31   S    
C3    C39   A    
Cu2   O2    S    
C3    C24   S    
C18   C25   A    
C23   O7    A    
C27   I1    S    
C33   H11   S    
C7    C12   A    
C40   H16   S    
C35   H13   S    
C23   O5    A    
C20   N1    A    
C4    C6    A    
C17   H7    S    
C4    C23   S    
C19   H6    S    
Cu1   N1    S    
C25   C26   A    
Cu2   O3    S    
C1    O3    A    
C32   C34   A    
C37   H1    S    
C22   N1    A    
C38   H2    S    
C36   H14   S    
C28   C38   A    
Cu2   O6    S    
C9    C11   A    
C10   C12   A    
C34   H12   S    
C13   C15   A    
C14   C16   A    
C28   I2    S    
C18   H8    S    
C21   H4    S    
C29   H9    S    
C21   C25   A    
Cu2   O7    S    
C9    H21   S    
C10   H22   S    
C3    C5    A    
C1    O1    A    
C28   C30   A    
C29   C31   A    
C30   C32   A    
C12   H19   S    
C24   O8    A    
C27   C37   A    
C8    C11   A    
C36   C38   A    
C17   C19   A    
C18   C20   A    
C20   H5    S    
C22   H3    S    
C22   C26   A    
C5    C40   A    
Cu2   N2    S    
C6    C39   A    
C2    O4    A    
Cu1   O4    S    
