data_mof_unit_54629.cif
_audit_creation_date              2012-12-10T17:48:47-0500
_audit_creation_method            fapswitch 2.2
_symmetry_space_group_name_H-M    P1
_symmetry_Int_Tables_number       1
_space_group_crystal_system       triclinic
_cell_length_a                    10.753516
_cell_length_b                    14.693603
_cell_length_c                    14.766265
_cell_angle_alpha                 64.729462
_cell_angle_beta                  104.086125
_cell_angle_gamma                 103.558292
_cell_volume                      2023.67203026

loop_
_atom_site_label
_atom_site_type_symbol
_atom_type_description
_atom_site_fract_x
_atom_site_fract_y
_atom_site_fract_z
_atom_type_partial_charge
C1    C     C_R   0.474265 0.120060 0.312180 0.778758
C2    C     C_3   0.878636 0.001044 0.501136 -0.021267
C3    C     C_3   0.921732 0.898706 0.585260 -0.224976
C4    C     C_3   0.967062 0.094682 0.521066 -0.138089
C5    C     C_R   0.439216 0.188143 0.205723 -0.063519
C6    C     C_R   0.512735 0.811399 0.798814 -0.182540
C7    C     C_R   0.323015 0.216386 0.035816 -0.120293
C8    C     C_R   0.369063 0.150079 0.133059 -0.176450
C9    C     C_R   0.463819 0.293137 0.179848 -0.227594
C10   C     C_R   0.414409 0.361372 0.083781 0.074822
C11   C     C_R   0.346353 0.322655 0.008909 0.069093
C12   C     C_R   0.260063 0.999809 0.500469 0.812333
C13   C     C_R   0.434482 0.467573 0.059910 0.086206
C14   C     C_R   0.408432 0.534853 0.957872 0.055310
C15   C     C_R   0.327122 0.495687 0.888515 -0.254504
C16   C     C_R   0.298776 0.391188 0.911147 -0.035531
C17   C     C_R   0.474067 0.508965 0.134486 -0.208040
C18   C     C_R   0.496402 0.613645 0.107203 -0.146907
C19   C     C_R   0.494627 0.681053 0.004827 0.065096
C20   C     C_R   0.458342 0.640522 0.929111 0.021580
C21   C     C_R   0.528775 0.787240 0.977029 -0.065708
C22   C     C_R   0.532086 0.852540 0.873971 -0.060725
C23   C     C_R   0.518140 0.879425 0.688959 0.876802
C24   C     C_R   0.483234 0.703910 0.829262 -0.071894
C25   C     C_R   0.733978 0.290273 0.657958 -0.223947
C26   C     C_R   0.691801 0.206414 0.631760 0.140997
C27   C     C_R   0.518342 0.284551 0.512206 0.031578
C28   C     C_R   0.556996 0.373466 0.534315 -0.021012
C29   C     C_R   0.665680 0.374228 0.611536 0.064784
C30   C     C_R   0.491052 0.460388 0.482600 0.099014
C31   C     C_R   0.532074 0.546695 0.510131 0.054965
C32   C     C_R   0.639677 0.543941 0.587364 -0.265908
C33   C     C_R   0.705332 0.459485 0.638632 -0.012664
C34   C     C_R   0.739933 0.001019 0.498949 0.779335
C35   C     C_R   0.385078 0.463738 0.403688 -0.222077
C36   C     C_R   0.316852 0.545034 0.357518 -0.168780
C37   C     C_R   0.351828 0.627072 0.386738 0.114867
C38   C     C_R   0.461331 0.631770 0.460961 -0.022614
C39   C     C_R   0.276054 0.704351 0.341422 -0.231834
C40   C     C_R   0.306455 0.787989 0.368390 0.200743
C41   C     C_R   0.492361 0.720995 0.483041 0.024082
C42   C     C_3   0.042187 0.014875 0.396287 -0.450825
C43   C     C_3   0.896963 0.006404 0.397684 -0.396517
C44   C     C_3   0.064553 0.894278 0.581481 -0.201985
C45   C     C_3   0.110275 0.087248 0.530711 -0.376288
C46   C     C_3   0.122741 0.998653 0.503491 0.093462
Cu1   Cu    Cu3+1 0.465900 0.918260 0.475680 0.968839
Cu2   Cu    Cu3+1 0.534100 0.081740 0.524320 0.995236
H1    H     H_    0.054512 0.957161 0.370561 0.212473
H2    H     H_    0.952687 0.093068 0.593765 0.210380
H3    H     H_    0.519714 0.640469 0.167954 0.175182
H4    H     H_    0.266183 0.182871 0.983559 0.192044
H5    H     H_    0.346804 0.068894 0.151964 0.167661
H6    H     H_    0.523588 0.320738 0.235728 0.161630
H7    H     H_    0.076661 0.091047 0.340212 0.165500
H8    H     H_    0.283121 0.546925 0.816301 0.212290
H9    H     H_    0.480828 0.462027 0.214610 0.139276
H10   H     H_    0.576542 0.732278 0.536145 0.152157
H11   H     H_    0.234474 0.543056 0.298598 0.153925
H12   H     H_    0.821357 0.288890 0.712961 0.198595
H13   H     H_    0.745099 0.142520 0.667681 0.154094
H14   H     H_    0.435633 0.276056 0.457003 0.112612
H15   H     H_    0.855964 0.071737 0.333253 0.164967
H16   H     H_    0.673181 0.606214 0.611762 0.178847
H17   H     H_    0.350871 0.404503 0.375252 0.123632
H18   H     H_    0.192415 0.699264 0.284348 0.192452
H19   H     H_    0.843565 0.936738 0.385605 0.201595
H20   H     H_    0.059562 0.836499 0.550023 0.136481
H21   H     H_    0.859881 0.835612 0.564741 0.143878
H22   H     H_    0.159664 0.075508 0.609439 0.249385
H23   H     H_    0.160958 0.160392 0.480509 0.145468
N1    N     N_R   0.585360 0.204570 0.560800 -0.184517
N2    N     N_R   0.414550 0.795430 0.439160 -0.210871
O1    O     O_R   0.455060 0.022100 0.338110 -0.614819
O2    O     O_R   0.512640 0.160150 0.379180 -0.582847
O3    O     O_R   0.288900 0.930980 0.479450 -0.620244
O4    O     O_R   0.346480 0.069030 0.520520 -0.571835
O5    O     O_R   0.487360 0.839850 0.620820 -0.543202
O6    O     O_R   0.544940 0.977900 0.661890 -0.568649
O7    O     O_R   0.653520 0.930970 0.479480 -0.591936
O8    O     O_R   0.711100 0.069020 0.520550 -0.567402
C47   C     C_2   0.147535 0.854028 0.685581 0.413666
H24   H     H_    0.125205 0.774873 0.735608 0.099514
O9    O     O_2   0.237778 0.908046 0.714984 -0.508976
C48   C     C_2   0.896256 0.878565 0.689828 0.814353
O10   O     O_2   0.812340 0.809082 0.727645 -0.573832
O11   O     O_R   0.968785 0.937546 0.743462 -0.742646
H25   H     H_    0.941607 0.916071 0.811657 0.358196
C49   C     C_2   0.224140 0.358186 0.828800 0.842328
O12   O     O_2   0.126832 0.395222 0.777282 -0.573063
O13   O     O_R   0.268524 0.289198 0.806370 -0.751742
H26   H     H_    0.210333 0.274297 0.747521 0.346462
C50   C     C_2   0.507294 0.654718 0.766863 0.876685
O14   O     O_2   0.608699 0.620530 0.788352 -0.545405
O15   O     O_R   0.411492 0.641594 0.688576 -0.760736
H27   H     H_    0.430548 0.592058 0.664454 0.327600
C51   C     C_2   0.564192 0.963637 0.848276 0.926170
O16   O     O_2   0.676059 0.001101 0.868531 -0.597378
O17   O     O_R   0.465985 0.024588 0.802623 -0.670796
H28   H     H_    0.499696 0.098964 0.788924 0.338099
C52   C     C_2   0.560108 0.831164 0.055389 0.841287
O18   O     O_2   0.492292 0.888954 0.052260 -0.566588
O19   O     O_R   0.668053 0.807242 0.131572 -0.732218
H29   H     H_    0.679251 0.841664 0.180302 0.341281
C53   C     C_2   0.812575 0.462611 0.723021 0.914122
O20   O     O_2   0.891747 0.539868 0.712059 -0.564632
O21   O     O_R   0.819709 0.379400 0.816417 -0.742050
H30   H     H_    0.896201 0.391507 0.867869 0.352585
C54   C     C_2   0.219067 0.866564 0.316258 0.347942
H31   H     H_    0.248301 0.943020 0.311728 0.112849
O22   O     O_2   0.109343 0.846376 0.274861 -0.551563
C55   C     C_2   0.935634 0.196570 0.439497 0.375326
H32   H     H_    0.949092 0.218467 0.362064 0.075428
O23   O     O_2   0.897636 0.256118 0.460562 -0.525884

loop_
_geom_bond_atom_site_label_1
_geom_bond_atom_site_label_2
_ccdc_geom_bond_type
O11   H25   S    
C50   O14   D    
C3    C48   S    
C26   N1    A    
O15   H27   S    
C36   H11   S    
Cu1   O3    S    
C55   O23   D    
C51   O16   D    
C43   H15   S    
C7    C8    A    
C48   O10   D    
Cu2   O8    S    
C7    C11   A    
C53   O21   S    
C52   O18   D    
C30   C35   A    
C1    C5    S    
C1    O1    A    
Cu2   O6    S    
C36   C37   A    
C3    H21   S    
C26   H13   S    
C7    H4    S    
C44   C47   S    
C54   O22   D    
C30   C31   A    
C45   H23   S    
C35   H17   S    
C15   C16   A    
C6    C22   A    
C29   C33   A    
C40   N2    A    
C18   C19   A    
C42   C46   S    
C20   C24   A    
C34   O7    A    
Cu1   Cu2   S    
O21   H30   S    
C25   H12   S    
C49   O13   S    
C9    C10   A    
C21   C52   S    
C2    C34   S    
C4    C55   S    
C16   C49   S    
C52   O19   S    
C22   C51   S    
C21   C22   A    
Cu2   O2    S    
Cu1   O7    S    
Cu2   N1    S    
C55   H32   S    
C51   O17   S    
C44   C46   S    
C18   H3    S    
C4    C45   S    
C48   O11   S    
C25   C29   A    
C3    C44   S    
C1    O2    A    
C14   C20   A    
C33   C53   S    
Cu1   N2    S    
C38   C41   A    
C12   C46   S    
C39   C40   A    
C25   C26   A    
C45   C46   S    
C4    H2    S    
C35   C36   A    
Cu2   O4    S    
C2    C4    S    
C5    C9    A    
C37   C38   A    
C27   H14   S    
C42   H7    S    
C11   C16   A    
O17   H28   S    
C2    C43   S    
C6    C24   A    
C12   O4    A    
C17   C18   A    
C32   H16   S    
C43   H19   S    
C34   O8    A    
C47   O9    D    
C12   O3    A    
C39   H18   S    
C44   H20   S    
C42   C43   S    
O13   H26   S    
C28   C29   A    
C19   C21   A    
C45   H22   S    
C31   C32   A    
Cu1   O1    S    
C10   C13   A    
C8    H5    S    
C41   H10   S    
C5    C8    A    
C40   C54   S    
C53   O20   D    
C31   C38   A    
C13   C17   A    
C32   C33   A    
C19   C20   A    
C28   C30   A    
C2    C3    S    
C37   C39   A    
C24   C50   S    
C15   H8    S    
C6    C23   S    
C23   O5    A    
C10   C11   A    
C42   H1    S    
C41   N2    A    
C50   O15   S    
C47   H24   S    
C54   H31   S    
O19   H29   S    
C14   C15   A    
C9    H6    S    
Cu1   O5    S    
C23   O6    A    
C49   O12   D    
C13   C14   A    
C27   N1    A    
C17   H9    S    
C27   C28   A    
