data_mof_unit_24728.cif
_audit_creation_date              2012-12-11T16:04:54-0500
_audit_creation_method            fapswitch 2.2
_symmetry_space_group_name_H-M    P1
_symmetry_Int_Tables_number       1
_space_group_crystal_system       triclinic
_cell_length_a                    10.663866
_cell_length_b                    10.681843
_cell_length_c                    16.90532
_cell_angle_alpha                 98.579021
_cell_angle_beta                  98.691238
_cell_angle_gamma                 61.246448
_cell_volume                      1662.34052267

loop_
_atom_site_label
_atom_site_type_symbol
_atom_type_description
_atom_site_fract_x
_atom_site_fract_y
_atom_site_fract_z
_atom_type_partial_charge
C1    C     C_R   0.355321 0.772985 0.397699 0.581299
C2    C     C_3   0.758224 0.303607 0.248619 -0.150793
C3    C     C_3   0.834969 0.342598 0.325155 0.049948
C4    C     C_3   0.981419 0.225844 0.301544 -0.172876
C5    C     C_3   0.994132 0.336686 0.257988 -0.111743
C6    C     C_3   0.846978 0.452704 0.282265 0.258980
C7    C     C_3   0.770497 0.414563 0.205661 -0.101010
C8    C     C_3   0.917574 0.298006 0.181973 0.015595
C9    C     C_3   0.476320 0.765794 0.217828 -0.083419
C10   C     C_3   0.414354 0.680527 0.250608 -0.148854
C11   C     C_3   0.349571 0.803858 0.316610 0.059929
C12   C     C_R   0.372017 0.348108 0.358249 0.576681
C13   C     C_3   0.412379 0.885941 0.285275 0.263207
C14   C     C_3   0.271674 0.961284 0.232514 -0.114081
C15   C     C_3   0.209027 0.876371 0.263972 -0.156147
C16   C     C_3   0.272310 0.754360 0.197147 -0.128441
C17   C     C_3   0.334240 0.838898 0.166021 0.009157
C18   C     C_3   0.480472 0.292812 0.797505 -0.160469
C19   C     C_3   0.415486 0.437574 0.759711 -0.202714
C20   C     C_3   0.381484 0.363782 0.680119 -0.026132
C21   C     C_3   0.445862 0.220903 0.717571 0.276190
C22   C     C_3   0.297053 0.262489 0.741030 0.150172
C23   C     C_R   0.777008 0.377222 0.402003 0.552930
C24   C     C_3   0.231270 0.405734 0.703316 -0.081824
C25   C     C_3   0.265660 0.476687 0.783975 0.208141
C26   C     C_3   0.330724 0.334255 0.820746 0.026412
C27   C     C_1   0.814421 0.343317 0.710121 0.020157
C28   C     C_1   0.840619 0.316616 0.778720 0.012710
C29   C     C_1   0.357173 0.767024 0.714395 0.026987
C30   C     C_1   0.326322 0.812411 0.782139 0.053646
C31   C     C_R   0.959433 0.283763 0.102246 0.545925
C32   C     C_R   0.320365 0.300789 0.119637 0.527818
C33   C     C_R   0.298529 0.884435 0.085873 0.534859
C34   C     C_R   0.379080 0.717319 0.631775 0.526544
C35   C     C_R   0.883334 0.300288 0.861386 0.558254
C36   C     C_R   0.310034 0.296109 0.894021 0.586311
C37   C     C_R   0.282567 0.880276 0.859899 0.596032
C38   C     C_R   0.409374 0.377093 0.601280 0.535739
C39   C     C_R   0.772964 0.380116 0.629851 0.540494
C40   C     C_1   0.347476 0.339314 0.274341 -0.036043
C41   C     C_1   0.335243 0.329266 0.203073 -0.046519
C42   C     C_3   0.906001 0.185883 0.223378 -0.128571
Cr1   Cr    Cr6+3 0.608340 0.611040 0.520430 1.152145
Cr2   Cr    Cr6+3 0.287650 0.601120 0.489350 1.092307
Cr3   Cr    Cr6+3 0.604040 0.287870 0.490280 1.125360
Cr4   Cr    Cr6+3 0.054020 0.052700 0.970850 1.093991
Cr5   Cr    Cr6+3 0.059230 0.375120 0.993390 1.082072
Cr6   Cr    Cr6+3 0.374950 0.061200 0.992340 1.067717
H1    H     H_    0.660863 0.289977 0.246476 0.134678
H2    H     H_    0.220294 0.075820 0.221518 0.113449
H3    H     H_    0.101959 0.917088 0.285682 0.145979
H4    H     H_    0.216314 0.698799 0.159137 0.151016
H5    H     H_    0.469134 0.505711 0.767022 0.096436
H6    H     H_    0.582034 0.246664 0.837282 0.153615
H7    H     H_    0.129230 0.451810 0.663928 0.182891
H8    H     H_    0.928284 0.077376 0.195288 0.152554
H9    H     H_    0.065127 0.153409 0.344507 0.140449
H10   H     H_    0.089867 0.352009 0.260234 0.130835
H11   H     H_    0.686008 0.486453 0.162927 0.123401
H12   H     H_    0.472150 0.565110 0.260984 0.106024
H13   H     H_    0.582473 0.727362 0.195661 0.170648
O1    O     O_R   0.751220 0.499230 0.435170 -0.450200
O2    O     O_R   0.297880 0.469080 0.560050 -0.502590
O3    O     O_R   0.489720 0.254590 0.564810 -0.417615
O4    O     O_R   0.725220 0.304230 0.585080 -0.504930
O5    O     O_3   0.500010 0.500010 0.500020 -0.356632
O6    O     O_R   0.171830 0.913880 0.057510 -0.513117
O7    O     O_R   0.940690 0.186050 0.054730 -0.502963
O8    O     O_R   0.920470 0.405720 0.075010 -0.503967
O9    O     O_R   0.196690 0.370460 0.084120 -0.517727
O10   O     O_R   0.412990 0.180750 0.091610 -0.499521
O11   O     O_R   0.366620 0.943130 0.065760 -0.503357
O12   O     O_R   0.477220 0.727600 0.436870 -0.440079
O13   O     O_R   0.160510 0.906330 0.879210 -0.430530
O14   O     O_R   0.930190 0.179050 0.889450 -0.475747
O15   O     O_R   0.909140 0.398170 0.896710 -0.487225
O16   O     O_R   0.186190 0.363460 0.918830 -0.453241
O17   O     O_R   0.401670 0.173200 0.913310 -0.497580
O18   O     O_R   0.356120 0.936130 0.900470 -0.488762
O19   O     O_3   0.162740 0.163010 0.985530 -0.296928
O20   O     O_R   0.258650 0.745120 0.411470 -0.509243
O21   O     O_R   0.297070 0.467240 0.395960 -0.490113
O22   O     O_R   0.488830 0.252610 0.387790 -0.436179
O23   O     O_R   0.724400 0.302390 0.420980 -0.506518
O24   O     O_R   0.752100 0.501210 0.612190 -0.495822
O25   O     O_R   0.478040 0.729440 0.600970 -0.441704
O26   O     O_R   0.259530 0.747110 0.588490 -0.469516
Cl1   Cl    Cl    0.566998 0.044274 0.679371 -0.458399
Br1   Br    Br    0.203267 0.143346 0.723407 -0.452777
Cl2   Cl    Cl    0.137507 0.640502 0.829822 -0.547486
Cl3   Cl    Cl    0.818827 0.629047 0.318493 -0.521886
Cl4   Cl    Cl    0.506916 0.967779 0.347440 -0.487692

loop_
_geom_bond_atom_site_label_1
_geom_bond_atom_site_label_2
_ccdc_geom_bond_type
Cr1   O12   S    
C37   O13   A    
C18   C21   S    
Cr2   O5    S    
C2    C7    S    
C1    C11   S    
C3    C6    S    
C7    C8    S    
C24   H7    S    
C37   O18   A    
C35   O14   A    
C25   Cl2   S    
C5    H10   S    
C9    H13   S    
Cr6   O18   S    
C8    C42   S    
Cr5   O15   S    
Cr2   O21   S    
C36   O16   A    
C5    C6    S    
C1    O20   A    
C6    Cl3   S    
C18   C19   S    
C34   O25   A    
Cr6   O17   S    
C9    C13   S    
Cr5   O8    S    
C33   O11   A    
C42   H8    S    
C3    C23   S    
C23   O1    A    
C20   C24   S    
C28   C35   S    
C27   C39   S    
C16   C17   S    
C18   C26   S    
C4    H9    S    
C32   C41   S    
C15   H3    S    
Cr2   O26   S    
C9    C10   S    
C19   H5    S    
C21   Cl1   S    
C21   C22   S    
C39   O4    A    
C14   C17   S    
Cr3   O22   S    
C17   C33   S    
Cr5   O19   S    
Cr6   O11   S    
C7    H11   S    
Cr4   O14   S    
C32   O10   A    
C38   O3    A    
Cr2   O2    S    
C31   O7    A    
C35   O15   A    
C23   O23   A    
Cr1   O24   S    
C24   C25   S    
Cr2   O20   S    
C32   O9    A    
C25   C26   S    
C29   C34   S    
C12   O22   A    
C12   C40   S    
C10   H12   S    
Cr5   O9    S    
Cr4   O7    S    
C29   C30   T    
C2    H1    S    
C20   C38   S    
C12   O21   A    
C26   C36   S    
C40   C41   T    
C11   C15   S    
C13   Cl4   S    
Cr3   O4    S    
C22   C24   S    
Cr3   O23   S    
Cr5   O16   S    
Cr6   O10   S    
C3    C4    S    
Cr4   O13   S    
C33   O6    A    
C38   O2    A    
C9    C17   S    
C8    C31   S    
C16   H4    S    
C4    C5    S    
C5    C8    S    
C6    C7    S    
Cr3   O3    S    
C1    O12   A    
Cr6   O19   S    
C19   C20   S    
C2    C3    S    
Cr4   O6    S    
C36   O17   A    
Cr4   O19   S    
C11   C13   S    
C14   H2    S    
C4    C42   S    
C2    C42   S    
Cr1   O5    S    
C22   Br1   S    
C34   O26   A    
C19   C25   S    
Cr1   O25   S    
C10   C11   S    
C18   H6    S    
C31   O8    A    
C20   C21   S    
C30   C37   S    
C22   C26   S    
Cr3   O5    S    
C39   O24   A    
C14   C15   S    
C10   C16   S    
C13   C14   S    
C15   C16   S    
Cr1   O1    S    
C27   C28   T    
