data_mof_unit_56815.cif
_audit_creation_date              2012-12-10T22:16:43-0500
_audit_creation_method            fapswitch 2.2
_symmetry_space_group_name_H-M    P1
_symmetry_Int_Tables_number       1
_space_group_crystal_system       triclinic
_cell_length_a                    32.73486
_cell_length_b                    32.734797
_cell_length_c                    32.734753
_cell_angle_alpha                 90.003189
_cell_angle_beta                  90.000046
_cell_angle_gamma                 90.006255
_cell_volume                      35077.5461734

loop_
_atom_site_label
_atom_site_type_symbol
_atom_type_description
_atom_site_fract_x
_atom_site_fract_y
_atom_site_fract_z
_atom_type_partial_charge
C1    C     C_R   0.366076 0.419086 0.866030 0.092672
C2    C     C_R   0.419406 0.366379 0.866126 0.095246
C3    C     C_R   0.959729 0.744738 0.540279 0.903501
C4    C     C_R   0.459717 0.744751 0.040270 0.901827
C5    C     C_R   0.040271 0.255262 0.540280 0.903584
C6    C     C_R   0.540279 0.744737 0.959729 0.903472
C7    C     C_R   0.959731 0.255250 0.459718 0.901713
C8    C     C_R   0.744738 0.959728 0.540280 0.903524
C9    C     C_R   0.255263 0.459721 0.959730 0.903776
C10   C     C_R   0.744750 0.040269 0.459718 0.901777
C11   C     C_R   0.255262 0.540281 0.040271 0.903791
C12   C     C_R   0.255262 0.040271 0.540280 0.903559
C13   C     C_R   0.580920 0.133978 0.366073 0.092671
C14   C     C_R   0.744750 0.540281 0.959730 0.901499
C15   C     C_R   0.255250 0.959731 0.459718 0.901711
C16   C     C_R   0.744751 0.459717 0.040270 0.901508
C17   C     C_R   0.040270 0.540280 0.255262 0.903766
C18   C     C_R   0.540282 0.959729 0.744751 0.901549
C19   C     C_R   0.959730 0.459721 0.255263 0.903774
C20   C     C_R   0.459718 0.040270 0.744750 0.901459
C21   C     C_R   0.959730 0.540282 0.744750 0.901519
C22   C     C_R   0.459720 0.959730 0.255263 0.903785
C23   C     C_R   0.040270 0.459717 0.744751 0.901513
C24   C     C_R   0.419401 0.633632 0.133891 0.095230
C25   C     C_R   0.540280 0.040271 0.255262 0.903780
C26   C     C_R   0.959722 0.755264 0.959730 0.903149
C27   C     C_R   0.040269 0.244750 0.959718 0.901473
C28   C     C_R   0.040284 0.755235 0.040274 0.899803
C29   C     C_R   0.959726 0.244753 0.040280 0.901488
C30   C     C_R   0.244738 0.959729 0.040280 0.903270
C31   C     C_R   0.755250 0.959719 0.959730 0.901436
C32   C     C_R   0.244763 0.040272 0.959717 0.899685
C33   C     C_R   0.755247 0.040281 0.040273 0.901523
C34   C     C_R   0.040270 0.040280 0.755263 0.903235
C35   C     C_R   0.419402 0.133886 0.633634 0.095251
C36   C     C_R   0.040282 0.959729 0.244751 0.901493
C37   C     C_R   0.959727 0.959718 0.755236 0.899713
C38   C     C_R   0.959720 0.040273 0.244752 0.901473
C39   C     C_R   0.459728 0.755237 0.459718 0.899080
C40   C     C_R   0.540272 0.244763 0.459717 0.899102
C41   C     C_R   0.540284 0.755235 0.540273 0.899142
C42   C     C_R   0.459717 0.244764 0.540272 0.899120
C43   C     C_R   0.244764 0.459716 0.540273 0.899145
C44   C     C_R   0.755237 0.459728 0.459718 0.899077
C45   C     C_R   0.244763 0.540272 0.459717 0.899103
C46   C     C_R   0.580920 0.633930 0.866026 0.092694
C47   C     C_R   0.755236 0.540283 0.540273 0.899119
C48   C     C_R   0.540273 0.540283 0.755236 0.899097
C49   C     C_R   0.540273 0.459717 0.244764 0.899146
C50   C     C_R   0.459718 0.459728 0.755236 0.899073
C51   C     C_R   0.459717 0.540273 0.244764 0.899126
C52   C     C_R   0.401609 0.401652 0.848912 0.067726
C53   C     C_R   0.151096 0.598351 0.401610 0.067728
C54   C     C_R   0.598358 0.401599 0.151106 0.067735
C55   C     C_R   0.848902 0.598398 0.598359 0.067734
C56   C     C_R   0.401604 0.598353 0.151102 0.067735
C57   C     C_R   0.419092 0.866028 0.366079 0.092670
C58   C     C_R   0.151104 0.401599 0.598362 0.067738
C59   C     C_R   0.598353 0.598396 0.848908 0.067728
C60   C     C_R   0.848910 0.401652 0.401613 0.067727
C61   C     C_R   0.598404 0.848897 0.598362 0.067731
C62   C     C_R   0.598354 0.151096 0.401610 0.067730
C63   C     C_R   0.401605 0.151099 0.598359 0.067731
C64   C     C_R   0.401655 0.848910 0.401613 0.067730
C65   C     C_R   0.901654 0.901605 0.848910 0.067792
C66   C     C_R   0.151097 0.098351 0.901610 0.067780
C67   C     C_R   0.098332 0.901334 0.151222 0.077165
C68   C     C_R   0.580922 0.366063 0.133988 0.092676
C69   C     C_R   0.848792 0.098694 0.098283 0.077223
C70   C     C_R   0.901312 0.098275 0.151209 0.077200
C71   C     C_R   0.151409 0.901341 0.098700 0.086425
C72   C     C_R   0.098658 0.098689 0.848603 0.086438
C73   C     C_R   0.848793 0.901678 0.901346 0.077174
C74   C     C_R   0.098406 0.848895 0.098363 0.067807
C75   C     C_R   0.098664 0.151210 0.901684 0.077175
C76   C     C_R   0.901725 0.151210 0.098701 0.077207
C77   C     C_R   0.901320 0.848608 0.901357 0.086412
C78   C     C_R   0.901351 0.401314 0.348608 0.086429
C79   C     C_R   0.133885 0.633628 0.419407 0.095234
C80   C     C_R   0.651207 0.598319 0.901350 0.077145
C81   C     C_R   0.098669 0.401672 0.651221 0.077141
C82   C     C_R   0.348596 0.598693 0.098665 0.086431
C83   C     C_R   0.901342 0.598324 0.651215 0.077144
C84   C     C_R   0.651220 0.401672 0.098672 0.077138
C85   C     C_R   0.098659 0.598690 0.348602 0.086422
C86   C     C_R   0.348607 0.401315 0.901355 0.086424
C87   C     C_R   0.598698 0.348591 0.098667 0.086409
C88   C     C_R   0.401317 0.901348 0.348608 0.086440
C89   C     C_R   0.598690 0.651398 0.901353 0.086393
C90   C     C_R   0.633939 0.866015 0.580926 0.092687
C91   C     C_R   0.401678 0.098663 0.651216 0.077121
C92   C     C_R   0.401677 0.651215 0.098671 0.077187
C93   C     C_R   0.598693 0.098656 0.348602 0.086434
C94   C     C_R   0.401685 0.348797 0.901350 0.077151
C95   C     C_R   0.598331 0.901335 0.651220 0.077143
C96   C     C_R   0.651211 0.098661 0.401684 0.077170
C97   C     C_R   0.098663 0.348592 0.598701 0.086421
C98   C     C_R   0.348795 0.901342 0.401686 0.077161
C99   C     C_R   0.901347 0.651403 0.598697 0.086394
C100  C     C_R   0.348598 0.098657 0.598698 0.086412
C101  C     C_R   0.866123 0.366376 0.419409 0.095240
C102  C     C_R   0.901345 0.348795 0.401686 0.077159
C103  C     C_R   0.651408 0.901341 0.598699 0.086392
C104  C     C_R   0.098665 0.651211 0.401683 0.077166
C105  C     C_1   0.287108 0.438525 0.938585 -0.201300
C106  C     C_1   0.061419 0.561478 0.287105 -0.201337
C107  C     C_1   0.712877 0.438567 0.061384 -0.196492
C108  C     C_1   0.938620 0.561430 0.712875 -0.196455
C109  C     C_1   0.287103 0.561480 0.061421 -0.201338
C110  C     C_1   0.061383 0.438567 0.712878 -0.196490
C111  C     C_1   0.712872 0.561427 0.938622 -0.196451
C112  C     C_R   0.133979 0.580915 0.366074 0.092666
C113  C     C_R   0.366069 0.133981 0.580925 0.092675
C114  C     C_1   0.938584 0.438524 0.287108 -0.201293
C115  C     C_1   0.561432 0.938617 0.712877 -0.196464
C116  C     C_1   0.438574 0.287130 0.938623 -0.196237
C117  C     C_1   0.561478 0.061419 0.287105 -0.201304
C118  C     C_1   0.438568 0.712876 0.061383 -0.196109
C119  C     C_1   0.438570 0.061381 0.712875 -0.196549
C120  C     C_1   0.561476 0.712894 0.938584 -0.201647
C121  C     C_1   0.438524 0.938584 0.287108 -0.201260
C122  C     C_1   0.561481 0.287101 0.061422 -0.201590
C123  C     C_1   0.061380 0.712874 0.438570 -0.196167
C124  C     C_R   0.866020 0.633933 0.580925 0.092685
C125  C     C_1   0.712898 0.938580 0.561480 -0.201664
C126  C     C_1   0.938622 0.287129 0.438573 -0.196201
C127  C     C_1   0.287104 0.061420 0.561480 -0.201557
C128  C     C_1   0.938581 0.712896 0.561478 -0.201654
C129  C     C_1   0.287129 0.938621 0.438572 -0.196193
C130  C     C_1   0.061421 0.287101 0.561481 -0.201557
C131  C     C_1   0.712873 0.061379 0.438571 -0.196168
C132  C     C_1   0.787128 0.938571 0.938620 -0.196444
C133  C     C_1   0.061418 0.061478 0.787106 -0.201816
C134  C     C_1   0.212898 0.938580 0.061480 -0.201906
C135  C     C_R   0.366378 0.866121 0.419409 0.095244
C136  C     C_1   0.938558 0.061367 0.212877 -0.196419
C137  C     C_1   0.787121 0.061446 0.061371 -0.196273
C138  C     C_1   0.061433 0.938616 0.212878 -0.196533
C139  C     C_1   0.212872 0.061347 0.938588 -0.191045
C140  C     C_1   0.938653 0.938588 0.787129 -0.190896
C141  C     C_1   0.938527 0.787109 0.938587 -0.201952
C142  C     C_1   0.938630 0.212879 0.061446 -0.196338
C143  C     C_1   0.061380 0.212873 0.938570 -0.196445
C144  C     C_1   0.061418 0.787123 0.061353 -0.190918
C145  C     C_1   0.787130 0.438654 0.438590 -0.191678
C146  C     C_R   0.133987 0.366063 0.580926 0.092682
C147  C     C_1   0.561349 0.561414 0.787128 -0.191699
C148  C     C_1   0.212876 0.438584 0.561351 -0.191701
C149  C     C_1   0.438587 0.561348 0.212874 -0.191680
C150  C     C_1   0.787126 0.561415 0.561350 -0.191700
C151  C     C_1   0.561350 0.438585 0.212876 -0.191703
C152  C     C_1   0.212872 0.561346 0.438589 -0.191682
C153  C     C_1   0.438588 0.438653 0.787130 -0.191679
C154  C     C_1   0.438655 0.787131 0.438591 -0.191677
C155  C     C_1   0.438586 0.212873 0.561349 -0.191702
C156  C     C_1   0.561347 0.212872 0.438588 -0.191678
C157  C     C_R   0.633629 0.133883 0.419407 0.095240
C158  C     C_1   0.561417 0.787124 0.561352 -0.191704
C159  C     C_R   0.614784 0.063276 0.063274 -0.059807
C160  C     C_R   0.936719 0.936719 0.614790 -0.059851
C161  C     C_R   0.385205 0.063283 0.936715 -0.059859
C162  C     C_R   0.063278 0.936721 0.385211 -0.059814
C163  C     C_R   0.614793 0.936717 0.936716 -0.059772
C164  C     C_R   0.936717 0.063282 0.385206 -0.059803
C165  C     C_R   0.385214 0.936723 0.063275 -0.059745
C166  C     C_R   0.063276 0.063277 0.614786 -0.059708
C167  C     C_R   0.063274 0.614783 0.063273 -0.059903
C168  C     C_R   0.866373 0.919395 0.866119 0.095131
C169  C     C_R   0.063280 0.385208 0.936717 -0.059793
C170  C     C_R   0.936721 0.385213 0.063276 -0.059798
C171  C     C_R   0.936715 0.614796 0.936714 -0.059685
C172  C     C_R   0.114784 0.563276 0.063274 -0.059653
C173  C     C_R   0.936719 0.436719 0.114790 -0.059630
C174  C     C_R   0.885205 0.563283 0.936715 -0.059799
C175  C     C_R   0.063278 0.436721 0.885211 -0.059822
C176  C     C_R   0.114793 0.436717 0.936716 -0.059638
C177  C     C_R   0.936717 0.563282 0.885207 -0.059814
C178  C     C_R   0.885214 0.436723 0.063275 -0.059817
C179  C     C_R   0.133979 0.080915 0.866074 0.092667
C180  C     C_R   0.063276 0.563277 0.114786 -0.059637
C181  C     C_R   0.436717 0.063282 0.885206 -0.059791
C182  C     C_R   0.563274 0.114783 0.063273 -0.059714
C183  C     C_R   0.436719 0.936720 0.114790 -0.059639
C184  C     C_R   0.563280 0.885208 0.936717 -0.059670
C185  C     C_R   0.563278 0.936721 0.885211 -0.059831
C186  C     C_R   0.436721 0.885213 0.063276 -0.059791
C187  C     C_R   0.563276 0.063277 0.114786 -0.059643
C188  C     C_R   0.436715 0.114796 0.936714 -0.059729
C189  C     C_R   0.936721 0.885212 0.563276 -0.059684
C190  C     C_R   0.133932 0.918857 0.134180 0.090052
C191  C     C_R   0.885205 0.063283 0.436715 -0.059769
C192  C     C_R   0.063274 0.114783 0.563273 -0.059718
C193  C     C_R   0.114793 0.936717 0.436716 -0.059735
C194  C     C_R   0.063281 0.885208 0.436717 -0.059762
C195  C     C_R   0.114784 0.063276 0.563274 -0.059704
C196  C     C_R   0.936715 0.114796 0.436714 -0.059742
C197  C     C_R   0.885214 0.936723 0.563275 -0.059700
C198  C     C_R   0.614784 0.563276 0.563275 -0.059868
C199  C     C_R   0.436718 0.436719 0.614791 -0.059845
C200  C     C_R   0.385205 0.563283 0.436715 -0.059875
C201  C     C_R   0.865890 0.080850 0.133661 0.092559
C202  C     C_R   0.563278 0.436721 0.385211 -0.059896
C203  C     C_R   0.614793 0.436717 0.436715 -0.059853
C204  C     C_R   0.436717 0.563282 0.385206 -0.059889
C205  C     C_R   0.385214 0.436723 0.563276 -0.059890
C206  C     C_R   0.563277 0.563278 0.614786 -0.059853
C207  C     C_R   0.563275 0.614783 0.563274 -0.059883
C208  C     C_R   0.563281 0.385208 0.436717 -0.059868
C209  C     C_R   0.436721 0.385212 0.563277 -0.059875
C210  C     C_R   0.436715 0.614796 0.436714 -0.059859
C211  C     C_R   0.598483 0.046548 0.098484 -0.226704
C212  C     C_R   0.080611 0.866106 0.133642 0.095163
C213  C     C_R   0.901514 0.953451 0.598486 -0.226780
C214  C     C_R   0.401509 0.046549 0.901509 -0.227027
C215  C     C_R   0.098489 0.953451 0.401511 -0.226954
C216  C     C_R   0.598489 0.953451 0.901511 -0.226750
C217  C     C_R   0.901509 0.046549 0.401509 -0.226778
C218  C     C_R   0.401514 0.953451 0.098486 -0.226474
C219  C     C_R   0.098483 0.046548 0.598484 -0.226446
C220  C     C_R   0.953447 0.098493 0.401507 -0.226971
C221  C     C_R   0.046545 0.598482 0.098482 -0.226776
C222  C     C_R   0.953447 0.901512 0.598488 -0.226805
C223  C     C_R   0.633637 0.419396 0.133894 0.095245
C224  C     C_R   0.919094 0.866078 0.866033 0.092681
C225  C     C_R   0.046545 0.401513 0.901513 -0.226880
C226  C     C_R   0.046545 0.901513 0.401513 -0.226769
C227  C     C_R   0.953447 0.401512 0.098488 -0.226595
C228  C     C_R   0.046544 0.098481 0.598482 -0.226415
C229  C     C_R   0.953447 0.598493 0.901507 -0.226712
C230  C     C_R   0.901518 0.401518 0.046541 -0.226871
C231  C     C_R   0.401505 0.098495 0.953443 -0.227092
C232  C     C_R   0.098480 0.598480 0.046541 -0.226743
C233  C     C_R   0.598493 0.901507 0.953443 -0.226756
C234  C     C_R   0.098492 0.401507 0.953443 -0.226605
C235  C     C_R   0.081146 0.134169 0.866080 0.090051
C236  C     C_R   0.598480 0.098480 0.046540 -0.226480
C237  C     C_R   0.901505 0.598495 0.953443 -0.226733
C238  C     C_R   0.401518 0.901518 0.046541 -0.226627
C239  C     C_R   0.098483 0.546548 0.098484 -0.226547
C240  C     C_R   0.901514 0.453451 0.098486 -0.226580
C241  C     C_R   0.901509 0.546549 0.901509 -0.226599
C242  C     C_R   0.098489 0.453451 0.901511 -0.226567
C243  C     C_R   0.453447 0.098493 0.901507 -0.226710
C244  C     C_R   0.546545 0.098482 0.098482 -0.226479
C245  C     C_R   0.453447 0.901512 0.098488 -0.226571
C246  C     C_R   0.919152 0.133660 0.134117 0.092558
C247  C     C_R   0.546545 0.901513 0.901513 -0.226537
C248  C     C_R   0.901518 0.901518 0.546541 -0.226473
C249  C     C_R   0.901505 0.098495 0.453443 -0.226698
C250  C     C_R   0.098480 0.098480 0.546540 -0.226408
C251  C     C_R   0.098493 0.901507 0.453443 -0.226711
C252  C     C_R   0.598484 0.546549 0.598484 -0.227182
C253  C     C_R   0.401514 0.453451 0.598487 -0.227167
C254  C     C_R   0.401509 0.546549 0.401509 -0.227136
C255  C     C_R   0.598489 0.453451 0.401511 -0.227153
C256  C     C_R   0.453446 0.598493 0.401507 -0.227165
C257  C     C_R   0.133885 0.133629 0.919407 0.095165
C258  C     C_R   0.546545 0.598482 0.598482 -0.227155
C259  C     C_R   0.453447 0.401512 0.598488 -0.227201
C260  C     C_R   0.546545 0.401513 0.401513 -0.227123
C261  C     C_R   0.401518 0.401517 0.546541 -0.227106
C262  C     C_R   0.401505 0.598495 0.453443 -0.227195
C263  C     C_R   0.598480 0.598480 0.546541 -0.227125
C264  C     C_R   0.598493 0.401507 0.453443 -0.227209
C265  C     C_1   0.314628 0.421240 0.921351 -0.003798
C266  C     C_1   0.078659 0.578763 0.314624 -0.003824
C267  C     C_1   0.685306 0.421423 0.078647 -0.001523
C268  C     C_R   0.133939 0.866015 0.080927 0.092667
C269  C     C_1   0.921364 0.578574 0.685303 -0.001489
C270  C     C_1   0.314620 0.578765 0.078663 -0.003822
C271  C     C_1   0.078644 0.421423 0.685307 -0.001521
C272  C     C_1   0.685297 0.578570 0.921369 -0.001487
C273  C     C_1   0.921348 0.421239 0.314628 -0.003796
C274  C     C_1   0.578579 0.921359 0.685307 -0.001493
C275  C     C_1   0.421432 0.314706 0.921369 -0.001419
C276  C     C_1   0.578766 0.078657 0.314624 -0.003805
C277  C     C_1   0.421426 0.685304 0.078646 -0.001350
C278  C     C_1   0.421428 0.078640 0.685303 -0.001554
C279  C     C_R   0.865838 0.866084 0.918871 0.090057
C280  C     C_1   0.578763 0.685375 0.921350 -0.003960
C281  C     C_1   0.421242 0.921346 0.314628 -0.003778
C282  C     C_1   0.578768 0.314617 0.078664 -0.003923
C283  C     C_1   0.078641 0.685300 0.421431 -0.001384
C284  C     C_1   0.685383 0.921341 0.578770 -0.003966
C285  C     C_1   0.921366 0.314704 0.421433 -0.001403
C286  C     C_1   0.314621 0.078658 0.578769 -0.003906
C287  C     C_1   0.921345 0.685379 0.578768 -0.003962
C288  C     C_1   0.314704 0.921363 0.421433 -0.001406
C289  C     C_1   0.078662 0.314617 0.578771 -0.003904
C290  C     C_R   0.866338 0.134117 0.080864 0.092562
C291  C     C_1   0.685300 0.078638 0.421432 -0.001380
C292  C     C_1   0.814703 0.921427 0.921366 -0.001478
C293  C     C_1   0.078658 0.078762 0.814625 -0.004020
C294  C     C_1   0.185382 0.921342 0.078770 -0.004060
C295  C     C_1   0.921253 0.078458 0.185303 -0.001594
C296  C     C_1   0.814696 0.078752 0.078465 -0.001517
C297  C     C_1   0.078579 0.921358 0.185307 -0.001521
C298  C     C_1   0.185268 0.078480 0.921405 0.001254
C299  C     C_1   0.921523 0.921401 0.814736 0.001314
C300  C     C_1   0.921244 0.814630 0.921353 -0.004095
C301  C     C_R   0.365836 0.918860 0.366084 0.089977
C302  C     C_1   0.921542 0.185305 0.078757 -0.001564
C303  C     C_1   0.078641 0.185299 0.921432 -0.001484
C304  C     C_1   0.078607 0.814725 0.078489 0.001323
C305  C     C_1   0.814737 0.421522 0.421407 0.000989
C306  C     C_1   0.578482 0.578601 0.814734 0.000991
C307  C     C_1   0.185273 0.421397 0.578487 0.000991
C308  C     C_1   0.421401 0.578481 0.185271 0.000989
C309  C     C_1   0.814731 0.578602 0.578486 0.000993
C310  C     C_1   0.578484 0.421397 0.185274 0.000995
C311  C     C_1   0.185267 0.578479 0.421405 0.000990
C312  C     C_R   0.634172 0.081142 0.366079 0.089981
C313  C     C_1   0.421403 0.421522 0.814737 0.000989
C314  C     C_1   0.421525 0.814737 0.421407 0.000991
C315  C     C_1   0.421401 0.185269 0.578485 0.000992
C316  C     C_1   0.578482 0.185267 0.421405 0.000988
C317  C     C_1   0.578606 0.814727 0.578487 0.000986
C318  C     C_3   0.347876 0.456984 0.846345 -0.865391
C319  C     C_3   0.153658 0.543013 0.347872 -0.865355
C320  C     C_3   0.651493 0.457567 0.153366 -0.866207
C321  C     C_3   0.846640 0.542434 0.651487 -0.866257
C322  C     C_3   0.347867 0.543012 0.153664 -0.865353
C323  C     C_R   0.633932 0.918857 0.634180 0.089977
C324  C     C_3   0.153367 0.457566 0.651494 -0.866190
C325  C     C_3   0.651476 0.542430 0.846648 -0.866223
C326  C     C_3   0.846347 0.456986 0.347878 -0.865385
C327  C     C_3   0.542442 0.846631 0.651494 -0.866173
C328  C     C_3   0.457573 0.348526 0.846652 -0.866003
C329  C     C_3   0.543022 0.153660 0.347871 -0.865334
C330  C     C_3   0.457572 0.651488 0.153361 -0.865886
C331  C     C_3   0.457572 0.153361 0.651487 -0.866262
C332  C     C_3   0.543023 0.652131 0.846338 -0.865683
C333  C     C_3   0.456994 0.846349 0.347880 -0.865362
C334  C     C_R   0.866115 0.580602 0.633634 0.095250
C335  C     C_R   0.366075 0.081143 0.634177 0.089971
C336  C     C_3   0.543018 0.347862 0.153669 -0.865622
C337  C     C_3   0.153355 0.651482 0.457578 -0.865963
C338  C     C_3   0.652138 0.846331 0.543024 -0.865651
C339  C     C_3   0.846649 0.348522 0.457576 -0.865966
C340  C     C_3   0.347867 0.153664 0.543025 -0.865603
C341  C     C_3   0.846335 0.652134 0.543027 -0.865652
C342  C     C_3   0.348522 0.846649 0.457576 -0.865962
C343  C     C_3   0.153669 0.347862 0.543024 -0.865600
C344  C     C_3   0.651482 0.153355 0.457578 -0.865965
C345  C     C_3   0.848510 0.957551 0.846634 -0.865482
C346  C     C_R   0.081149 0.366068 0.634182 0.089970
C347  C     C_3   0.153658 0.043013 0.847873 -0.865416
C348  C     C_3   0.152212 0.956618 0.154075 -0.865162
C349  C     C_3   0.846129 0.042895 0.151667 -0.865406
C350  C     C_3   0.042446 0.846627 0.151499 -0.865650
C351  C     C_3   0.956999 0.847884 0.846353 -0.865450
C352  C     C_3   0.043393 0.154067 0.847797 -0.865128
C353  C     C_3   0.957105 0.151673 0.153877 -0.865382
C354  C     C_3   0.153357 0.151484 0.957576 -0.865644
C355  C     C_3   0.152138 0.846331 0.043025 -0.865437
C356  C     C_3   0.845944 0.847808 0.956631 -0.865191
C357  C     C_R   0.918865 0.365835 0.366085 0.089977
C358  C     C_3   0.848322 0.153883 0.042919 -0.865362
C359  C     C_3   0.345937 0.956611 0.347800 -0.864599
C360  C     C_3   0.654068 0.043388 0.347795 -0.864654
C361  C     C_3   0.652214 0.956616 0.654077 -0.864817
C362  C     C_3   0.347791 0.043386 0.654073 -0.864751
C363  C     C_3   0.043393 0.347783 0.654080 -0.864695
C364  C     C_3   0.956619 0.345939 0.347802 -0.864648
C365  C     C_3   0.043396 0.654070 0.347793 -0.864702
C366  C     C_3   0.956623 0.652207 0.654070 -0.864792
C367  C     C_3   0.654061 0.652198 0.956632 -0.864760
C368  C     C_R   0.081147 0.634171 0.366079 0.089990
C369  C     C_3   0.654080 0.347783 0.043400 -0.864744
C370  C     C_3   0.347805 0.345942 0.956629 -0.864687
C371  C     C_3   0.347786 0.654077 0.043403 -0.864650
C372  C     C_R   0.918863 0.633926 0.634175 0.089967
C373  C     C_R   0.634167 0.633919 0.918871 0.089958
C374  C     C_R   0.634180 0.366068 0.081154 0.089977
C375  C     C_R   0.366085 0.365837 0.918871 0.089978
C376  C     C_R   0.366072 0.634176 0.081154 0.089991
C377  C     C_R   0.459144 0.144600 0.959144 0.905087
C378  C     C_R   0.366068 0.580917 0.133985 0.092672
C379  C     C_R   0.040854 0.855402 0.459146 0.905122
C380  C     C_R   0.540851 0.144593 0.040851 0.905304
C381  C     C_R   0.959147 0.855405 0.540853 0.905268
C382  C     C_R   0.459147 0.855405 0.040853 0.905144
C383  C     C_R   0.040851 0.144593 0.540851 0.905310
C384  C     C_R   0.540855 0.855402 0.959146 0.905259
C385  C     C_R   0.959144 0.144600 0.459144 0.905094
C386  C     C_R   0.855406 0.959148 0.540852 0.905273
C387  C     C_R   0.144599 0.459145 0.959145 0.905189
C388  C     C_R   0.855401 0.040855 0.459145 0.905136
C389  C     C_R   0.133893 0.419395 0.633639 0.095246
C390  C     C_R   0.144594 0.540852 0.040852 0.905161
C391  C     C_R   0.144594 0.040852 0.540852 0.905302
C392  C     C_R   0.855401 0.540855 0.959145 0.905237
C393  C     C_R   0.144599 0.959145 0.459145 0.905083
C394  C     C_R   0.855406 0.459148 0.040852 0.905206
C395  C     C_R   0.040852 0.540852 0.144595 0.905153
C396  C     C_R   0.540853 0.959147 0.855405 0.905249
C397  C     C_R   0.959146 0.459146 0.144598 0.905178
C398  C     C_R   0.459145 0.040855 0.855403 0.905196
C399  C     C_R   0.959145 0.540855 0.855403 0.905241
C400  C     C_R   0.633625 0.580598 0.866123 0.095247
C401  C     C_R   0.459146 0.959146 0.144598 0.905187
C402  C     C_R   0.040853 0.459147 0.855405 0.905219
C403  C     C_R   0.540852 0.040853 0.144595 0.905159
C404  C     C_R   0.959144 0.644600 0.959144 0.905340
C405  C     C_R   0.040854 0.355402 0.959146 0.905205
C406  C     C_R   0.040851 0.644593 0.040851 0.905028
C407  C     C_R   0.959147 0.355405 0.040853 0.905187
C408  C     C_R   0.355406 0.959148 0.040852 0.905386
C409  C     C_R   0.644599 0.959145 0.959145 0.905185
C410  C     C_R   0.355401 0.040855 0.959145 0.904986
C411  C     C_R   0.866029 0.419087 0.366078 0.092675
C412  C     C_R   0.644594 0.040852 0.040852 0.905202
C413  C     C_R   0.040852 0.040852 0.644595 0.905365
C414  C     C_R   0.040853 0.959147 0.355405 0.905202
C415  C     C_R   0.959146 0.959146 0.644598 0.904997
C416  C     C_R   0.959145 0.040855 0.355402 0.905198
C417  C     C_R   0.459144 0.644600 0.459144 0.905167
C418  C     C_R   0.540854 0.355402 0.459146 0.905161
C419  C     C_R   0.540851 0.644593 0.540851 0.905152
C420  C     C_R   0.459147 0.355405 0.540853 0.905158
C421  C     C_R   0.355406 0.459148 0.540852 0.905164
C422  C     C_R   0.580609 0.866109 0.633639 0.095234
C423  C     C_R   0.644599 0.459145 0.459145 0.905156
C424  C     C_R   0.355401 0.540855 0.459145 0.905172
C425  C     C_R   0.644594 0.540852 0.540852 0.905147
C426  C     C_R   0.540853 0.540852 0.644595 0.905141
C427  C     C_R   0.540853 0.459147 0.355405 0.905172
C428  C     C_R   0.459146 0.459146 0.644598 0.905145
C429  C     C_R   0.459145 0.540855 0.355403 0.905178
C430  C     C_R   0.459719 0.255250 0.959730 0.901701
C431  C     C_R   0.040269 0.744750 0.459717 0.901772
C432  C     C_R   0.540281 0.255262 0.040271 0.903571
H1    H     H_    0.611075 0.018625 0.111076 0.180049
H2    H     H_    0.018619 0.611071 0.111073 0.180050
H3    H     H_    0.680823 0.860797 0.532431 0.245656
H4    H     H_    0.659252 0.813790 0.549459 0.241022
H5    H     H_    0.629788 0.847888 0.517552 0.244318
H6    H     H_    0.861367 0.320091 0.468498 0.245432
H7    H     H_    0.848120 0.371198 0.482767 0.244249
H8    H     H_    0.814142 0.341103 0.451308 0.241023
H9    H     H_    0.319181 0.139198 0.532433 0.245659
H10   H     H_    0.340755 0.186205 0.549463 0.241035
H11   H     H_    0.370216 0.152105 0.517551 0.244305
H12   H     H_    0.860801 0.680820 0.532434 0.245657
H13   H     H_    0.981370 0.888920 0.611082 0.180048
H14   H     H_    0.847890 0.629784 0.517552 0.244317
H15   H     H_    0.813794 0.659248 0.549465 0.241021
H16   H     H_    0.320089 0.861366 0.468497 0.245433
H17   H     H_    0.341105 0.814141 0.451308 0.241024
H18   H     H_    0.371196 0.848123 0.482767 0.244247
H19   H     H_    0.139203 0.319175 0.532431 0.245659
H20   H     H_    0.152108 0.370211 0.517552 0.244302
H21   H     H_    0.186210 0.340750 0.549458 0.241039
H22   H     H_    0.679913 0.138637 0.468501 0.245431
H23   H     H_    0.658901 0.185863 0.451313 0.241028
H24   H     H_    0.018615 0.388924 0.888926 0.180043
H25   H     H_    0.628806 0.151883 0.482767 0.244246
H26   H     H_    0.820064 0.968465 0.861345 0.245358
H27   H     H_    0.871181 0.982753 0.848108 0.244416
H28   H     H_    0.841105 0.951268 0.814122 0.241081
H29   H     H_    0.139191 0.032418 0.819189 0.245648
H30   H     H_    0.186200 0.049449 0.840756 0.241031
H31   H     H_    0.152097 0.017542 0.870223 0.244483
H32   H     H_    0.180943 0.967203 0.139693 0.245608
H33   H     H_    0.129937 0.982160 0.152618 0.244618
H34   H     H_    0.159283 0.950002 0.186590 0.241269
H35   H     H_    0.018615 0.888924 0.388926 0.180049
H36   H     H_    0.860735 0.032016 0.180174 0.245340
H37   H     H_    0.813658 0.049419 0.159017 0.241334
H38   H     H_    0.847458 0.017583 0.129118 0.244584
H39   H     H_    0.031529 0.861342 0.179937 0.245384
H40   H     H_    0.017252 0.848097 0.128828 0.244445
H41   H     H_    0.048716 0.814120 0.158910 0.241092
H42   H     H_    0.967599 0.819207 0.860825 0.245611
H43   H     H_    0.950564 0.840757 0.813813 0.241096
H44   H     H_    0.982466 0.870243 0.847907 0.244491
H45   H     H_    0.032810 0.139686 0.819063 0.245608
H46   H     H_    0.981370 0.388920 0.111082 0.180055
H47   H     H_    0.017846 0.152610 0.870069 0.244598
H48   H     H_    0.050017 0.186581 0.840729 0.241296
H49   H     H_    0.967971 0.180195 0.139285 0.245374
H50   H     H_    0.950586 0.159004 0.186354 0.241259
H51   H     H_    0.982423 0.129137 0.152527 0.244586
H52   H     H_    0.138640 0.179917 0.968497 0.245422
H53   H     H_    0.151884 0.128811 0.982765 0.244444
H54   H     H_    0.185865 0.158902 0.951310 0.241029
H55   H     H_    0.180823 0.860798 0.032430 0.245610
H56   H     H_    0.159254 0.813790 0.049460 0.241098
H57   H     H_    0.018619 0.111071 0.611073 0.180059
H58   H     H_    0.129788 0.847887 0.017553 0.244489
H59   H     H_    0.860331 0.819084 0.967222 0.245574
H60   H     H_    0.847395 0.870090 0.982171 0.244625
H61   H     H_    0.813431 0.840726 0.950012 0.241329
H62   H     H_    0.819801 0.139287 0.032052 0.245371
H63   H     H_    0.840989 0.186356 0.049451 0.241285
H64   H     H_    0.870856 0.152546 0.017597 0.244569
H65   H     H_    0.360318 0.967194 0.319069 0.245586
H66   H     H_    0.313423 0.949985 0.340730 0.241114
H67   H     H_    0.347391 0.982159 0.370074 0.244912
H68   H     H_    0.981374 0.611085 0.888917 0.180042
H69   H     H_    0.639688 0.032805 0.319061 0.245554
H70   H     H_    0.686583 0.050011 0.340727 0.241150
H71   H     H_    0.652610 0.017842 0.370066 0.244927
H72   H     H_    0.680945 0.967201 0.639695 0.245563
H73   H     H_    0.629940 0.982159 0.652620 0.244817
H74   H     H_    0.659283 0.949999 0.686592 0.241220
H75   H     H_    0.319057 0.032803 0.639692 0.245607
H76   H     H_    0.370062 0.017841 0.652614 0.244801
H77   H     H_    0.340723 0.050006 0.686588 0.241163
H78   H     H_    0.032812 0.319049 0.639700 0.245603
H79   H     H_    0.888931 0.388930 0.018610 0.180045
H80   H     H_    0.050014 0.340718 0.686595 0.241205
H81   H     H_    0.017848 0.370054 0.652622 0.244783
H82   H     H_    0.967204 0.360321 0.319072 0.245582
H83   H     H_    0.982164 0.347395 0.370077 0.244925
H84   H     H_    0.949996 0.313424 0.340730 0.241101
H85   H     H_    0.032815 0.639690 0.319059 0.245546
H86   H     H_    0.017848 0.652614 0.370064 0.244940
H87   H     H_    0.050022 0.686585 0.340727 0.241135
H88   H     H_    0.967208 0.680938 0.639688 0.245565
H89   H     H_    0.950006 0.659278 0.686585 0.241234
H90   H     H_    0.388913 0.111088 0.981368 0.180033
H91   H     H_    0.982165 0.629932 0.652611 0.244813
H92   H     H_    0.639678 0.680927 0.967218 0.245570
H93   H     H_    0.652603 0.629921 0.982173 0.244808
H94   H     H_    0.686576 0.659273 0.950015 0.241243
H95   H     H_    0.639701 0.319047 0.032820 0.245596
H96   H     H_    0.652624 0.370053 0.017853 0.244796
H97   H     H_    0.686595 0.340719 0.050023 0.241189
H98   H     H_    0.319077 0.360325 0.967215 0.245585
H99   H     H_    0.340730 0.313427 0.950009 0.241076
H100  H     H_    0.370082 0.347398 0.982171 0.244936
H101  H     H_    0.111069 0.611068 0.018612 0.180052
H102  H     H_    0.319051 0.639698 0.032823 0.245543
H103  H     H_    0.340722 0.686591 0.050029 0.241175
H104  H     H_    0.370056 0.652622 0.017854 0.244921
H105  H     H_    0.888924 0.981377 0.611079 0.180047
H106  H     H_    0.611086 0.888914 0.981366 0.180043
H107  H     H_    0.111086 0.388914 0.981366 0.180052
H108  H     H_    0.611069 0.111068 0.018612 0.180063
H109  H     H_    0.888913 0.611088 0.981368 0.180042
H110  H     H_    0.388931 0.888930 0.018610 0.180051
H111  H     H_    0.111075 0.518625 0.111076 0.180050
H112  H     H_    0.888924 0.481377 0.111078 0.180047
H113  H     H_    0.888920 0.518619 0.888921 0.180042
H114  H     H_    0.111080 0.481379 0.888923 0.180044
H115  H     H_    0.481374 0.111084 0.888917 0.180038
H116  H     H_    0.388920 0.018619 0.888921 0.180037
H117  H     H_    0.518619 0.111071 0.111073 0.180050
H118  H     H_    0.481370 0.888920 0.111082 0.180052
H119  H     H_    0.518615 0.888924 0.888926 0.180042
H120  H     H_    0.888931 0.888930 0.518610 0.180042
H121  H     H_    0.888913 0.111088 0.481368 0.180043
H122  H     H_    0.111069 0.111068 0.518612 0.180051
H123  H     H_    0.111086 0.888914 0.481366 0.180046
H124  H     H_    0.611076 0.518626 0.611077 0.180025
H125  H     H_    0.388924 0.481376 0.611079 0.180025
H126  H     H_    0.388920 0.518619 0.388921 0.180025
H127  H     H_    0.111080 0.981378 0.388922 0.180039
H128  H     H_    0.611080 0.481378 0.388922 0.180024
H129  H     H_    0.481374 0.611085 0.388917 0.180023
H130  H     H_    0.518619 0.611072 0.611074 0.180027
H131  H     H_    0.481370 0.388920 0.611082 0.180022
H132  H     H_    0.518615 0.388924 0.388926 0.180027
H133  H     H_    0.388931 0.388930 0.518610 0.180030
H134  H     H_    0.388913 0.611088 0.481368 0.180018
H135  H     H_    0.611069 0.611068 0.518613 0.180031
H136  H     H_    0.611087 0.388914 0.481366 0.180020
H137  H     H_    0.319193 0.467578 0.860812 0.245671
H138  H     H_    0.611080 0.981379 0.888923 0.180051
H139  H     H_    0.370228 0.482457 0.847899 0.244406
H140  H     H_    0.340756 0.450543 0.813804 0.240930
H141  H     H_    0.139192 0.532419 0.319188 0.245680
H142  H     H_    0.186201 0.549449 0.340757 0.240938
H143  H     H_    0.152096 0.517542 0.370222 0.244402
H144  H     H_    0.679929 0.468487 0.138650 0.245414
H145  H     H_    0.628821 0.482756 0.151891 0.244157
H146  H     H_    0.658905 0.451303 0.185874 0.241122
H147  H     H_    0.861358 0.531513 0.679918 0.245410
H148  H     H_    0.814134 0.548701 0.658905 0.241117
H149  H     H_    0.888920 0.018619 0.388921 0.180046
H150  H     H_    0.848108 0.517243 0.628811 0.244162
H151  H     H_    0.319182 0.532418 0.139197 0.245679
H152  H     H_    0.370217 0.517542 0.152100 0.244399
H153  H     H_    0.340752 0.549445 0.186206 0.240943
H154  H     H_    0.138653 0.468483 0.679932 0.245411
H155  H     H_    0.185876 0.451302 0.658905 0.241122
H156  H     H_    0.151892 0.482757 0.628822 0.244152
H157  H     H_    0.679895 0.531494 0.861382 0.245406
H158  H     H_    0.628791 0.517246 0.848097 0.244154
H159  H     H_    0.658915 0.548706 0.814147 0.241114
H160  H     H_    0.388924 0.981377 0.111078 0.180053
H161  H     H_    0.860815 0.467581 0.319196 0.245672
H162  H     H_    0.813806 0.450548 0.340760 0.240932
H163  H     H_    0.847905 0.482459 0.370230 0.244403
H164  H     H_    0.531521 0.861350 0.679929 0.245406
H165  H     H_    0.517250 0.848097 0.628819 0.244150
H166  H     H_    0.548712 0.814125 0.658910 0.241116
H167  H     H_    0.468503 0.320104 0.861379 0.245434
H168  H     H_    0.451300 0.341094 0.814149 0.241017
H169  H     H_    0.482760 0.371207 0.848109 0.244255
H170  H     H_    0.532429 0.139194 0.319185 0.245679
H171  H     H_    0.111075 0.018625 0.611076 0.180058
H172  H     H_    0.517548 0.152100 0.370220 0.244395
H173  H     H_    0.549460 0.186202 0.340757 0.240944
H174  H     H_    0.468492 0.679923 0.138645 0.245439
H175  H     H_    0.451307 0.658902 0.185870 0.241047
H176  H     H_    0.482761 0.628816 0.151885 0.244229
H177  H     H_    0.468491 0.138645 0.679922 0.245403
H178  H     H_    0.482762 0.151887 0.628812 0.244169
H179  H     H_    0.451307 0.185869 0.658902 0.241099
H180  H     H_    0.532430 0.680815 0.860804 0.245651
H181  H     H_    0.549464 0.659248 0.813798 0.241014
H182  H     H_    0.981374 0.111085 0.388917 0.180035
H183  H     H_    0.517548 0.629781 0.847891 0.244323
H184  H     H_    0.467591 0.860817 0.319198 0.245676
H185  H     H_    0.482464 0.847909 0.370233 0.244397
H186  H     H_    0.450559 0.813807 0.340760 0.240942
H187  H     H_    0.532425 0.319175 0.139203 0.245659
H188  H     H_    0.549450 0.340749 0.186212 0.241032
H189  H     H_    0.517547 0.370210 0.152107 0.244310
H190  H     H_    0.138638 0.679915 0.468500 0.245432
H191  H     H_    0.151880 0.628808 0.482767 0.244248
H192  H     H_    0.185863 0.658899 0.451313 0.241025
O1    O     O_R   0.493560 0.156220 0.946130 -0.629118
O2    O     O_R   0.156220 0.493560 0.946130 -0.629166
O3    O     O_R   0.993700 0.758130 0.554330 -0.619004
O4    O     O_R   0.445670 0.758130 0.006300 -0.617993
O5    O     O_R   0.006300 0.241870 0.554330 -0.618959
O6    O     O_R   0.554330 0.758130 0.993700 -0.618998
O7    O     O_R   0.993700 0.241870 0.445670 -0.618031
O8    O     O_R   0.758130 0.993700 0.554330 -0.619011
O9    O     O_R   0.241870 0.445670 0.993700 -0.619022
O10   O     O_R   0.758130 0.006300 0.445670 -0.618003
O11   O     O_R   0.241870 0.554330 0.006300 -0.619055
O12   O     O_R   0.241870 0.006300 0.554330 -0.618958
O13   O     O_R   0.843780 0.053870 0.493560 -0.629109
O14   O     O_R   0.758130 0.554330 0.993700 -0.617938
O15   O     O_R   0.241870 0.993700 0.445670 -0.618024
O16   O     O_R   0.758130 0.445670 0.006300 -0.617978
O17   O     O_R   0.006300 0.554330 0.241870 -0.619055
O18   O     O_R   0.554330 0.993700 0.758130 -0.617949
O19   O     O_R   0.993700 0.445670 0.241870 -0.619016
O20   O     O_R   0.445670 0.006300 0.758130 -0.617989
O21   O     O_R   0.993700 0.554330 0.758130 -0.617944
O22   O     O_R   0.445670 0.993700 0.241870 -0.619009
O23   O     O_R   0.006300 0.445670 0.758130 -0.617978
O24   O     O_R   0.156220 0.506440 0.053870 -0.629147
O25   O     O_R   0.554330 0.006300 0.241870 -0.619046
O26   O     O_R   0.945670 0.741870 0.993700 -0.619212
O27   O     O_R   0.006300 0.258130 0.945670 -0.618264
O28   O     O_R   0.054330 0.741870 0.006300 -0.618555
O29   O     O_R   0.993700 0.258130 0.054330 -0.619536
O30   O     O_R   0.945670 0.258130 0.006300 -0.618282
O31   O     O_R   0.006300 0.741870 0.054330 -0.618558
O32   O     O_R   0.054330 0.258130 0.993700 -0.619559
O33   O     O_R   0.993700 0.741870 0.945670 -0.619244
O34   O     O_R   0.258130 0.993700 0.054330 -0.619171
O35   O     O_R   0.156220 0.053870 0.506440 -0.629136
O36   O     O_R   0.741870 0.945670 0.993700 -0.618221
O37   O     O_R   0.258130 0.006300 0.945670 -0.618589
O38   O     O_R   0.741870 0.054330 0.006300 -0.619540
O39   O     O_R   0.741870 0.006300 0.054330 -0.618244
O40   O     O_R   0.258130 0.054330 0.993700 -0.618592
O41   O     O_R   0.741870 0.993700 0.945670 -0.619604
O42   O     O_R   0.258130 0.945670 0.006300 -0.619245
O43   O     O_R   0.006300 0.054330 0.741870 -0.619178
O44   O     O_R   0.054330 0.993700 0.258130 -0.618256
O45   O     O_R   0.993700 0.945670 0.741870 -0.618556
O46   O     O_R   0.843780 0.506440 0.946130 -0.629102
O47   O     O_R   0.945670 0.006300 0.258130 -0.619575
O48   O     O_R   0.993700 0.054330 0.258130 -0.618276
O49   O     O_R   0.945670 0.993700 0.741870 -0.618563
O50   O     O_R   0.006300 0.945670 0.258130 -0.619595
O51   O     O_R   0.054330 0.006300 0.741870 -0.619210
O52   O     O_R   0.945670 0.241870 0.493700 -0.619670
O53   O     O_R   0.506300 0.758130 0.945670 -0.619309
O54   O     O_R   0.054330 0.241870 0.506300 -0.619294
O55   O     O_R   0.493700 0.758130 0.054330 -0.619654
O56   O     O_R   0.945670 0.758130 0.506300 -0.619293
O57   O     O_R   0.156220 0.946130 0.493560 -0.629109
O58   O     O_R   0.506300 0.241870 0.054330 -0.619292
O59   O     O_R   0.054330 0.758130 0.493700 -0.619669
O60   O     O_R   0.493700 0.241870 0.945670 -0.619670
O61   O     O_R   0.758130 0.493700 0.054330 -0.619878
O62   O     O_R   0.241870 0.945670 0.493700 -0.619664
O63   O     O_R   0.758130 0.506300 0.945670 -0.619904
O64   O     O_R   0.241870 0.054330 0.506300 -0.619290
O65   O     O_R   0.241870 0.506300 0.054330 -0.619063
O66   O     O_R   0.758130 0.054330 0.493700 -0.619675
O67   O     O_R   0.241870 0.493700 0.945670 -0.619083
O68   O     O_R   0.843780 0.493560 0.053870 -0.629083
O69   O     O_R   0.758130 0.945670 0.506300 -0.619295
O70   O     O_R   0.506300 0.054330 0.241870 -0.619062
O71   O     O_R   0.054330 0.493700 0.758130 -0.619885
O72   O     O_R   0.493700 0.945670 0.241870 -0.619078
O73   O     O_R   0.945670 0.506300 0.758130 -0.619904
O74   O     O_R   0.493700 0.054330 0.758130 -0.619898
O75   O     O_R   0.945670 0.493700 0.241870 -0.619078
O76   O     O_R   0.506300 0.945670 0.758130 -0.619889
O77   O     O_R   0.054330 0.506300 0.241870 -0.619059
O78   O     O_R   0.445670 0.741870 0.493700 -0.618757
O79   O     O_R   0.053870 0.506440 0.156220 -0.629148
O80   O     O_R   0.506300 0.258130 0.445670 -0.618723
O81   O     O_R   0.554330 0.741870 0.506300 -0.618726
O82   O     O_R   0.493700 0.258130 0.554330 -0.618761
O83   O     O_R   0.445670 0.258130 0.506300 -0.618723
O84   O     O_R   0.506300 0.741870 0.554330 -0.618756
O85   O     O_R   0.554330 0.258130 0.493700 -0.618757
O86   O     O_R   0.493700 0.741870 0.445670 -0.618727
O87   O     O_R   0.258130 0.493700 0.554330 -0.618759
O88   O     O_R   0.741870 0.445670 0.493700 -0.618753
O89   O     O_R   0.258130 0.506300 0.445670 -0.618728
O90   O     O_R   0.506440 0.946130 0.843780 -0.629089
O91   O     O_R   0.741870 0.554330 0.506300 -0.618722
O92   O     O_R   0.741870 0.506300 0.554330 -0.618754
O93   O     O_R   0.258130 0.554330 0.493700 -0.618761
O94   O     O_R   0.741870 0.493700 0.445670 -0.618724
O95   O     O_R   0.258130 0.445670 0.506300 -0.618729
O96   O     O_R   0.506300 0.554330 0.741870 -0.618722
O97   O     O_R   0.554330 0.493700 0.258130 -0.618763
O98   O     O_R   0.493700 0.445670 0.741870 -0.618749
O99   O     O_R   0.445670 0.506300 0.258130 -0.618733
O100  O     O_R   0.493700 0.554330 0.258130 -0.618759
O101  O     O_R   0.946130 0.493560 0.156220 -0.629159
O102  O     O_R   0.445670 0.493700 0.741870 -0.618718
O103  O     O_R   0.506300 0.445670 0.258130 -0.618734
O104  O     O_R   0.554330 0.506300 0.741870 -0.618751
O105  O     O_R   0.053870 0.843780 0.493560 -0.629103
O106  O     O_R   0.493560 0.053870 0.843780 -0.629095
O107  O     O_R   0.946130 0.506440 0.843780 -0.629100
O108  O     O_R   0.493560 0.946130 0.156220 -0.629157
O109  O     O_R   0.053870 0.493560 0.843780 -0.629089
O110  O     O_R   0.506440 0.053870 0.156220 -0.629156
O111  O     O_R   0.993560 0.656220 0.946130 -0.629114
O112  O     O_R   0.053870 0.343780 0.993560 -0.629050
O113  O     O_R   0.006440 0.656220 0.053870 -0.629090
O114  O     O_R   0.946130 0.343780 0.006440 -0.629145
O115  O     O_R   0.993560 0.343780 0.053870 -0.629059
O116  O     O_R   0.506440 0.156220 0.053870 -0.629128
O117  O     O_R   0.053870 0.656220 0.006440 -0.629099
O118  O     O_R   0.006440 0.343780 0.946130 -0.629148
O119  O     O_R   0.946130 0.656220 0.993560 -0.629115
O120  O     O_R   0.343780 0.946130 0.006440 -0.629111
O121  O     O_R   0.656220 0.993560 0.946130 -0.629086
O122  O     O_R   0.343780 0.053870 0.993560 -0.629112
O123  O     O_R   0.656220 0.006440 0.053870 -0.629116
O124  O     O_R   0.656220 0.053870 0.006440 -0.629069
O125  O     O_R   0.343780 0.006440 0.946130 -0.629123
O126  O     O_R   0.656220 0.946130 0.993560 -0.629120
O127  O     O_R   0.946130 0.843780 0.506440 -0.629143
O128  O     O_R   0.343780 0.993560 0.053870 -0.629086
O129  O     O_R   0.053870 0.006440 0.656220 -0.629090
O130  O     O_R   0.006440 0.946130 0.343780 -0.629075
O131  O     O_R   0.946130 0.993560 0.656220 -0.629103
O132  O     O_R   0.993560 0.053870 0.343780 -0.629134
O133  O     O_R   0.946130 0.006440 0.343780 -0.629085
O134  O     O_R   0.993560 0.946130 0.656220 -0.629101
O135  O     O_R   0.053870 0.993560 0.343780 -0.629135
O136  O     O_R   0.006440 0.053870 0.656220 -0.629100
O137  O     O_R   0.993560 0.156220 0.446130 -0.629170
O138  O     O_R   0.493560 0.843780 0.053870 -0.629096
O139  O     O_R   0.553870 0.843780 0.993560 -0.629131
O140  O     O_R   0.006440 0.156220 0.553870 -0.629110
O141  O     O_R   0.446130 0.843780 0.006440 -0.629149
O142  O     O_R   0.993560 0.843780 0.553870 -0.629131
O143  O     O_R   0.553870 0.156220 0.006440 -0.629117
O144  O     O_R   0.006440 0.843780 0.446130 -0.629154
O145  O     O_R   0.446130 0.156220 0.993560 -0.629168
O146  O     O_R   0.843780 0.446130 0.006440 -0.629126
O147  O     O_R   0.156220 0.993560 0.446130 -0.629168
O148  O     O_R   0.843780 0.553870 0.993560 -0.629097
O149  O     O_R   0.053870 0.156220 0.506440 -0.629136
O150  O     O_R   0.156220 0.006440 0.553870 -0.629107
O151  O     O_R   0.156220 0.553870 0.006440 -0.629186
O152  O     O_R   0.843780 0.006440 0.446130 -0.629154
O153  O     O_R   0.156220 0.446130 0.993560 -0.629158
O154  O     O_R   0.843780 0.993560 0.553870 -0.629137
O155  O     O_R   0.553870 0.006440 0.156220 -0.629175
O156  O     O_R   0.006440 0.446130 0.843780 -0.629124
O157  O     O_R   0.446130 0.993560 0.156220 -0.629161
O158  O     O_R   0.993560 0.553870 0.843780 -0.629101
O159  O     O_R   0.446130 0.006440 0.843780 -0.629131
O160  O     O_R   0.506440 0.843780 0.946130 -0.629155
O161  O     O_R   0.993560 0.446130 0.156220 -0.629157
O162  O     O_R   0.553870 0.993560 0.843780 -0.629100
O163  O     O_R   0.006440 0.553870 0.156220 -0.629183
O164  O     O_R   0.493560 0.656220 0.446130 -0.629051
O165  O     O_R   0.553870 0.343780 0.493560 -0.629036
O166  O     O_R   0.506440 0.656220 0.553870 -0.629037
O167  O     O_R   0.446130 0.343780 0.506440 -0.629052
O168  O     O_R   0.493560 0.343780 0.553870 -0.629036
O169  O     O_R   0.553870 0.656220 0.506440 -0.629048
O170  O     O_R   0.506440 0.343780 0.446130 -0.629053
O171  O     O_R   0.946130 0.156220 0.493560 -0.629115
O172  O     O_R   0.446130 0.656220 0.493560 -0.629042
O173  O     O_R   0.343780 0.446130 0.506440 -0.629052
O174  O     O_R   0.656220 0.493560 0.446130 -0.629052
O175  O     O_R   0.343780 0.553870 0.493560 -0.629042
O176  O     O_R   0.656220 0.506440 0.553870 -0.629034
O177  O     O_R   0.656220 0.553870 0.506440 -0.629049
O178  O     O_R   0.343780 0.506440 0.446130 -0.629055
O179  O     O_R   0.656220 0.446130 0.493560 -0.629036
O180  O     O_R   0.343780 0.493560 0.553870 -0.629037
O181  O     O_R   0.553870 0.506440 0.656220 -0.629034
O182  O     O_R   0.843780 0.946130 0.506440 -0.629142
O183  O     O_R   0.506440 0.446130 0.343780 -0.629053
O184  O     O_R   0.446130 0.493560 0.656220 -0.629047
O185  O     O_R   0.493560 0.553870 0.343780 -0.629042
O186  O     O_R   0.446130 0.506440 0.343780 -0.629055
O187  O     O_R   0.493560 0.446130 0.656220 -0.629036
O188  O     O_R   0.553870 0.493560 0.343780 -0.629042
O189  O     O_R   0.506440 0.553870 0.656220 -0.629046
O190  O     O_R   0.445670 0.241870 0.993700 -0.618037
O191  O     O_R   0.006300 0.758130 0.445670 -0.618001
O192  O     O_R   0.554330 0.241870 0.006300 -0.618968
Zn1   Zn    Zn3+2 0.531990 0.199940 0.968010 0.958381
Zn2   Zn    Zn3+2 0.199940 0.531990 0.968010 0.958601
Zn3   Zn    Zn3+2 0.800060 0.031990 0.531990 0.958342
Zn4   Zn    Zn3+2 0.199940 0.468010 0.031990 0.958678
Zn5   Zn    Zn3+2 0.199940 0.031990 0.468010 0.958645
Zn6   Zn    Zn3+2 0.800060 0.468010 0.968010 0.958354
Zn7   Zn    Zn3+2 0.199940 0.968010 0.531990 0.958413
Zn8   Zn    Zn3+2 0.800060 0.531990 0.031990 0.958437
Zn9   Zn    Zn3+2 0.031990 0.468010 0.199940 0.958675
Zn10  Zn    Zn3+2 0.468010 0.968010 0.800060 0.958353
Zn11  Zn    Zn3+2 0.968010 0.531990 0.199940 0.958596
Zn12  Zn    Zn3+2 0.031990 0.800060 0.531990 0.958347
Zn13  Zn    Zn3+2 0.531990 0.031990 0.800060 0.958386
Zn14  Zn    Zn3+2 0.968010 0.468010 0.800060 0.958365
Zn15  Zn    Zn3+2 0.531990 0.968010 0.199940 0.958634
Zn16  Zn    Zn3+2 0.031990 0.531990 0.800060 0.958433
Zn17  Zn    Zn3+2 0.468010 0.031990 0.199940 0.958695
Zn18  Zn    Zn3+2 0.031990 0.699940 0.968010 0.958427
Zn19  Zn    Zn3+2 0.031990 0.300060 0.031990 0.958237
Zn20  Zn    Zn3+2 0.968010 0.699940 0.031990 0.958434
Zn21  Zn    Zn3+2 0.968010 0.300060 0.968010 0.958600
Zn22  Zn    Zn3+2 0.300060 0.968010 0.968010 0.958376
Zn23  Zn    Zn3+2 0.468010 0.199940 0.031990 0.958623
Zn24  Zn    Zn3+2 0.699940 0.031990 0.968010 0.958179
Zn25  Zn    Zn3+2 0.300060 0.031990 0.031990 0.958435
Zn26  Zn    Zn3+2 0.699940 0.968010 0.031990 0.958707
Zn27  Zn    Zn3+2 0.031990 0.968010 0.699940 0.958482
Zn28  Zn    Zn3+2 0.968010 0.968010 0.300060 0.958129
Zn29  Zn    Zn3+2 0.968010 0.031990 0.699940 0.958481
Zn30  Zn    Zn3+2 0.031990 0.031990 0.300060 0.958604
Zn31  Zn    Zn3+2 0.531990 0.699940 0.468010 0.958098
Zn32  Zn    Zn3+2 0.531990 0.300060 0.531990 0.958007
Zn33  Zn    Zn3+2 0.468010 0.699940 0.531990 0.958017
Zn34  Zn    Zn3+2 0.968010 0.800060 0.468010 0.958658
Zn35  Zn    Zn3+2 0.468010 0.300060 0.468010 0.958109
Zn36  Zn    Zn3+2 0.300060 0.468010 0.468010 0.958114
Zn37  Zn    Zn3+2 0.699940 0.531990 0.468010 0.958089
Zn38  Zn    Zn3+2 0.300060 0.531990 0.531990 0.958025
Zn39  Zn    Zn3+2 0.699940 0.468010 0.531990 0.958004
Zn40  Zn    Zn3+2 0.531990 0.468010 0.699940 0.957994
Zn41  Zn    Zn3+2 0.468010 0.468010 0.300060 0.958119
Zn42  Zn    Zn3+2 0.468010 0.531990 0.699940 0.958074
Zn43  Zn    Zn3+2 0.531990 0.531990 0.300060 0.958044
Zn44  Zn    Zn3+2 0.531990 0.800060 0.031990 0.958398
Zn45  Zn    Zn3+2 0.031990 0.199940 0.468010 0.958646
Zn46  Zn    Zn3+2 0.468010 0.800060 0.968010 0.958665
Zn47  Zn    Zn3+2 0.968010 0.199940 0.531990 0.958417
Zn48  Zn    Zn3+2 0.800060 0.968010 0.468010 0.958667

loop_
_geom_bond_atom_site_label_1
_geom_bond_atom_site_label_2
_ccdc_geom_bond_type
C210  C262  A    
C102  C357  A    
C160  C222  A    
C176  C387  S    
C208  C260  A    
C222  H13   S    
C159  C236  A    
C424  O175  A    
O171  Zn47  S    
O134  Zn27  S    
C408  O128  A    
C337  H192  S    
O53   Zn46  S    
C66   C257  A    
C429  O186  A    
C191  C217  A    
C76   C302  S    
C355  H56   S    
C172  C232  A    
C173  C240  A    
C370  H100  S    
C12   O12   A    
C416  O132  A    
C112  C319  S    
C402  O156  A    
C27   O32   A    
O49   Zn29  S    
C350  H39   S    
C101  C102  A    
C403  O110  A    
O178  Zn36  S    
C223  C320  S    
C22   O22   A    
O11   Zn2   S    
C102  C285  S    
C108  C269  T    
C320  H144  S    
C89   C373  A    
C343  H20   S    
O111  Zn18  S    
C391  O35   A    
C33   O38   A    
C188  C377  S    
C120  C280  T    
C414  O135  A    
O48   Zn30  S    
C162  C414  S    
C328  H167  S    
C159  C211  A    
C327  H164  S    
C158  C317  T    
C37   O45   A    
C332  H181  S    
C42   O82   A    
C239  H111  S    
C97   C346  A    
O76   Zn10  S    
C174  C241  A    
C196  C220  A    
C340  H10   S    
C141  C300  T    
C146  C343  S    
C33   C137  S    
C318  H139  S    
C352  H48   S    
C426  O189  A    
C28   O28   A    
O60   Zn1   S    
C3    O3    A    
C27   C143  S    
C369  H96   S    
C81   C389  A    
C181  C214  A    
C387  O153  A    
C38   C136  S    
C344  H25   S    
C324  H156  S    
C206  C252  A    
C187  C403  S    
C9    O67   A    
O108  Zn15  S    
C201  C349  S    
C185  C247  A    
C357  C364  S    
C72   C179  A    
C144  C304  T    
C206  C258  A    
O127  Zn34  S    
C101  C339  S    
O51   Zn27  S    
C202  C427  S    
O153  Zn4   S    
O128  Zn25  S    
C412  O124  A    
C73   C168  A    
O84   Zn33  S    
C55   C334  A    
O77   Zn9   S    
C413  O136  A    
C3    O56   A    
C382  O141  A    
C354  H52   S    
O17   Zn11  S    
C246  C353  S    
C19   O19   A    
C381  O142  A    
C64   C314  S    
O40   Zn25  S    
C52   C313  S    
C49   C151  S    
C39   C154  S    
C349  H37   S    
C10   O66   A    
C366  H89   S    
C128  C287  T    
C93   C276  S    
C94   C275  S    
C6    C120  S    
O63   Zn6   S    
O38   Zn24  S    
C171  C237  A    
C180  C239  A    
O180  Zn38  S    
C341  H14   S    
O176  Zn39  S    
C89   C280  S    
C27   O27   A    
C84   C267  S    
C207  C419  S    
C80   C400  A    
C80   C272  S    
O13   Zn3   S    
C26   O33   A    
C173  C397  S    
C394  O146  A    
C23   O71   A    
C390  O151  A    
O100  Zn43  S    
C354  H53   S    
C204  C254  A    
C163  C216  A    
C330  H174  S    
C252  H124  S    
C125  C284  T    
C263  H135  S    
C416  O133  A    
C237  H109  S    
C264  H136  S    
C349  H36   S    
C351  H44   S    
C228  H57   S    
C417  O172  A    
C5    O54   A    
C432  O192  A    
O189  Zn42  S    
C336  H187  S    
C35   C331  S    
O188  Zn43  S    
C2    C52   A    
C409  O126  A    
O136  Zn29  S    
C5    C130  S    
C345  H27   S    
C100  C335  A    
C187  C211  A    
C126  C285  T    
C156  C316  T    
O159  Zn10  S    
C319  H143  S    
C244  H117  S    
C365  C368  S    
C214  H116  S    
O31   Zn20  S    
C75   C303  S    
C247  H119  S    
C331  H177  S    
C25   O70   A    
C8    O8    A    
C397  O101  A    
C383  O140  A    
O22   Zn17  S    
C421  O173  A    
C23   C110  S    
C199  C428  S    
C189  C222  A    
O120  Zn22  S    
C322  H152  S    
C187  C244  A    
C321  H147  S    
C84   C223  A    
C175  C225  A    
C18   C115  S    
C367  H92   S    
O149  Zn45  S    
O23   Zn14  S    
C358  H64   S    
C405  O112  A    
C24   C56   A    
C66   C179  A    
O160  Zn46  S    
C185  C216  A    
C131  C291  T    
O65   Zn4   S    
O163  Zn11  S    
O71   Zn16  S    
C332  H183  S    
O142  Zn12  S    
C233  H106  S    
C428  O187  A    
C406  O113  A    
C194  C226  A    
C54   C223  A    
C358  H63   S    
C65   C299  S    
C318  H137  S    
C192  C250  A    
C29   O30   A    
O52   Zn47  S    
C363  H80   S    
C42   C155  S    
C73   C292  S    
C63   C315  S    
C418  O170  A    
C71   C190  A    
C243  H115  S    
O42   Zn22  S    
O30   Zn21  S    
C385  O137  A    
C183  C401  S    
C369  C374  S    
O143  Zn1   S    
O116  Zn23  S    
C57   C333  S    
O88   Zn39  S    
C50   O98   A    
C371  C376  S    
C338  H4    S    
O137  Zn45  S    
C188  C243  A    
C35   C63   A    
C367  C373  S    
C166  C219  A    
C6    O6    A    
C65   C224  A    
C431  O191  A    
C114  C273  T    
C200  C254  A    
C197  C386  S    
C320  H146  S    
C371  H104  S    
O124  Zn24  S    
C177  C241  A    
C48   C147  S    
C71   C268  A    
C319  H142  S    
C384  O160  A    
C94   C375  A    
O152  Zn48  S    
O140  Zn47  S    
C220  H182  S    
O37   Zn22  S    
C85   C112  A    
C359  H66   S    
C195  C219  A    
C1    C52   A    
C409  O121  A    
C404  O119  A    
O141  Zn46  S    
C73   C279  A    
C61   C317  S    
C326  H163  S    
C225  H24   S    
C165  C238  A    
O145  Zn23  S    
C95   C274  S    
C421  O180  A    
O54   Zn45  S    
O58   Zn23  S    
C59   C400  A    
C178  C230  A    
O155  Zn15  S    
C184  C384  S    
C104  C283  S    
O96   Zn42  S    
C198  C263  A    
C204  C256  A    
C166  C228  A    
C209  C259  A    
C54   C68   A    
C40   O85   A    
C211  H1    S    
C105  C265  T    
O110  Zn17  S    
C100  C286  S    
C351  H42   S    
O12   Zn7   S    
C235  C352  S    
C362  H76   S    
C90   C338  S    
C161  C410  S    
O85   Zn32  S    
C301  C359  S    
O114  Zn21  S    
C60   C305  S    
C10   C131  S    
O168  Zn32  S    
O121  Zn24  S    
C338  H5    S    
C30   C134  S    
C327  C422  S    
C359  H67   S    
O18   Zn13  S    
C332  H180  S    
C188  C231  A    
C76   C290  A    
O90   Zn10  S    
C116  C430  S    
C224  C351  S    
O129  Zn27  S    
C353  H50   S    
C6    O53   A    
C394  O68   A    
C7    C126  S    
C15   O15   A    
C191  C388  S    
C36   O50   A    
C362  H77   S    
C24   C330  S    
C348  H33   S    
C121  C281  T    
C20   O20   A    
C432  O58   A    
C24   C92   A    
C44   O94   A    
C48   O104  A    
C162  C226  A    
C193  C215  A    
C148  C307  T    
C93   C312  A    
C254  H126  S    
C358  H62   S    
C135  C342  S    
C13   C62   A    
C43   O95   A    
O166  Zn33  S    
C2    C94   A    
C407  O114  A    
C139  C298  T    
C173  C227  A    
C174  C237  A    
C369  H97   S    
C363  H81   S    
C3    C128  S    
C420  O168  A    
C333  H184  S    
C213  H105  S    
C348  H34   S    
C205  C421  S    
C98   C135  A    
C66   C298  S    
C41   C158  S    
C363  H78   S    
C377  O145  A    
C138  C297  T    
O106  Zn13  S    
C63   C113  A    
O62   Zn7   S    
C431  O59   A    
C221  H2    S    
C134  C294  T    
C361  H72   S    
C58   C307  S    
C348  H32   S    
C51   O99   A    
C168  C345  S    
C9    C105  S    
O156  Zn14  S    
O55   Zn44  S    
C325  H157  S    
C40   O80   A    
C47   C150  S    
C5    O5    A    
C360  H71   S    
O158  Zn16  S    
C345  H28   S    
C46   C332  S    
C44   C145  S    
C69   C296  S    
C339  H7    S    
C356  H61   S    
C91   C278  S    
C70   C295  S    
C74   C304  S    
O3    Zn12  S    
C388  O152  A    
C153  C313  T    
C260  H132  S    
C218  H160  S    
C177  C399  S    
C371  H102  S    
C403  O155  A    
C329  H170  S    
C360  H69   S    
O9    Zn4   S    
C427  O183  A    
O4    Zn46  S    
C196  C385  S    
C8    O69   A    
C78   C411  A    
C365  H87   S    
C164  C416  S    
O115  Zn19  S    
C103  C284  S    
C347  H30   S    
C205  C253  A    
C61   C90   A    
C36   O44   A    
C37   O49   A    
C61   C422  A    
O109  Zn16  S    
C145  C305  T    
C123  C431  S    
C326  H161  S    
C386  O182  A    
C331  H179  S    
O192  Zn1   S    
C203  C423  S    
C97   C289  S    
O172  Zn33  S    
O28   Zn18  S    
C85   C266  S    
C11   O11   A    
C369  H95   S    
O21   Zn16  S    
C65   C168  A    
C150  C309  T    
C10   O10   A    
C429  O185  A    
C355  H55   S    
C21   O73   A    
C86   C375  A    
C182  C236  A    
O27   Zn21  S    
C7    O52   A    
C49   O103  A    
C393  O57   A    
C381  O127  A    
C426  O181  A    
C23   O23   A    
O186  Zn41  S    
C392  O46   A    
C87   C282  S    
O36   Zn26  S    
O32   Zn19  S    
C17   C106  S    
C78   C357  A    
O64   Zn5   S    
C205  C261  A    
O19   Zn9   S    
C130  C289  T    
C18   O76   A    
C204  C429  S    
C359  H65   S    
O78   Zn33  S    
C47   O92   A    
C186  C382  S    
O34   Zn25  S    
O103  Zn41  S    
C364  H84   S    
C219  H171  S    
C42   O83   A    
C251  H123  S    
O5    Zn47  S    
C21   C108  S    
C242  H114  S    
O39   Zn26  S    
C199  C259  A    
C198  C252  A    
O7    Zn45  S    
C318  H140  S    
C230  H79   S    
O161  Zn9   S    
C79   C337  S    
C68   C87   A    
C343  H21   S    
C364  H83   S    
C256  H129  S    
C367  H94   S    
O184  Zn42  S    
C365  H86   S    
O25   Zn15  S    
C365  H85   S    
O183  Zn41  S    
C370  H98   S    
C181  C243  A    
C99   C124  A    
C387  O2    A    
O182  Zn48  S    
C232  H101  S    
C164  C217  A    
C175  C242  A    
C377  O1    A    
C161  C214  A    
C171  C229  A    
O170  Zn35  S    
O26   Zn20  S    
C356  H59   S    
C327  H166  S    
O82   Zn32  S    
C245  H118  S    
C208  C418  S    
C178  C240  A    
O33   Zn18  S    
C67   C190  A    
C167  C232  A    
O157  Zn17  S    
C200  C424  S    
C147  C306  T    
C290  C358  S    
O131  Zn29  S    
O98   Zn40  S    
O187  Zn40  S    
C111  C272  T    
C344  H23   S    
C176  C242  A    
C361  H74   S    
C330  H175  S    
C41   O84   A    
C396  O90   A    
C342  H17   S    
O102  Zn42  S    
C325  H159  S    
C50   O102  A    
C50   C153  S    
O97   Zn43  S    
C195  C250  A    
C1    C86   A    
C69   C290  A    
C428  O184  A    
O191  Zn34  S    
C195  C391  S    
C194  C379  S    
C268  C355  S    
C22   O72   A    
C43   C148  S    
C240  H112  S    
C16   C107  S    
C31   O41   A    
C354  H54   S    
C364  H82   S    
C83   C372  A    
C32   O37   A    
C75   C257  A    
C329  H172  S    
O50   Zn28  S    
C95   C422  A    
O79   Zn9   S    
C37   C140  S    
C351  H43   S    
C427  O188  A    
O75   Zn11  S    
C32   O40   A    
C26   C141  S    
C258  H130  S    
C72   C293  S    
C336  H188  S    
C366  H88   S    
C370  C375  S    
O164  Zn31  S    
C167  C406  S    
C28   C144  S    
C160  C415  S    
C341  H12   S    
C279  C356  S    
C60   C411  A    
O20   Zn10  S    
C142  C302  T    
O175  Zn38  S    
C327  H165  S    
C170  C227  A    
C67   C297  S    
C189  C248  A    
C45   O93   A    
C328  H169  S    
O46   Zn6   S    
C410  O122  A    
C340  H9    S    
O95   Zn36  S    
C401  O108  A    
C388  O13   A    
O154  Zn3   S    
C370  H99   S    
C30   O34   A    
C140  C299  T    
C129  C288  T    
O15   Zn5   S    
C209  C420  S    
C106  C266  T    
C165  C408  S    
C399  O107  A    
O1    Zn1   S    
C337  H191  S    
C321  H150  S    
C34   O51   A    
C33   O39   A    
C231  H90   S    
C46   C89   A    
O150  Zn7   S    
O57   Zn7   S    
C19   C114  S    
C26   O26   A    
C241  H113  S    
O91   Zn37  S    
C335  C362  S    
C74   C212  A    
C408  O120  A    
C386  O154  A    
O101  Zn11  S    
C116  C275  T    
C407  O115  A    
C54   C310  S    
O43   Zn29  S    
C109  C270  T    
C163  C233  A    
C210  C417  S    
C202  C260  A    
C425  O176  A    
O44   Zn30  S    
C77   C224  A    
C200  C262  A    
C202  C255  A    
C236  H108  S    
C82   C376  A    
C85   C368  A    
C253  H125  S    
C1    C318  S    
O74   Zn13  S    
C58   C146  A    
C379  O144  A    
C67   C212  A    
C420  O167  A    
C324  H155  S    
C209  C261  A    
C122  C282  T    
C210  C256  A    
O167  Zn35  S    
O173  Zn36  S    
C405  O118  A    
O185  Zn43  S    
C404  O111  A    
C430  O60   A    
C44   O88   A    
C360  H70   S    
C423  O174  A    
O146  Zn6   S    
O105  Zn12  S    
C169  C225  A    
C356  H60   S    
C412  O123  A    
C191  C249  A    
C366  C372  S    
C197  C213  A    
C248  H120  S    
C22   C121  S    
C401  O157  A    
C371  H103  S    
C255  H128  S    
C39   O78   A    
C55   C124  A    
O144  Zn34  S    
C349  H38   S    
C319  H141  S    
C350  H40   S    
C137  C296  T    
C323  C361  S    
C88   C301  A    
O151  Zn2   S    
C182  C244  A    
C336  H189  S    
C38   O47   A    
C118  C277  T    
C347  H31   S    
C57   C88   A    
O80   Zn35  S    
C328  H168  S    
C99   C287  S    
C341  H15   S    
O87   Zn38  S    
C207  C263  A    
C342  H16   S    
C208  C264  A    
C72   C235  A    
C82   C270  S    
C45   C152  S    
C17   O77   A    
C192  C383  S    
C216  H138  S    
O66   Zn3   S    
C55   C309  S    
C38   O48   A    
C212  C350  S    
C172  C390  S    
C207  C258  A    
C115  C274  T    
C395  O163  A    
C262  H134  S    
C12   O64   A    
O94   Zn37  S    
C415  O131  A    
C418  O165  A    
C96   C312  A    
O93   Zn38  S    
C393  O147  A    
O107  Zn14  S    
O132  Zn30  S    
C90   C103  A    
O72   Zn15  S    
C169  C405  S    
C343  H19   S    
C8    C125  S    
C206  C426  S    
C180  C395  S    
C51   C149  S    
C87   C374  A    
C45   O89   A    
C181  C398  S    
O119  Zn20  S    
C13   C93   A    
C99   C372  A    
C402  O109  A    
C259  H131  S    
C194  C251  A    
C340  H11   S    
C43   O87   A    
C86   C265  S    
O2    Zn2   S    
C36   C138  S    
C20   C119  S    
C383  O149  A    
C190  C348  S    
O122  Zn25  S    
C53   C311  S    
C16   O61   A    
C353  H49   S    
C379  O105  A    
C415  O134  A    
C69   C201  A    
O45   Zn27  S    
C417  O164  A    
C425  O177  A    
C46   C59   A    
C11   C109  S    
C97   C146  A    
O181  Zn40  S    
C249  H121  S    
C322  H151  S    
C96   C291  S    
C321  H148  S    
C193  C393  S    
C88   C281  S    
C119  C278  T    
C178  C394  S    
C175  C402  S    
O135  Zn30  S    
C155  C315  T    
C34   O43   A    
C32   C139  S    
C325  C400  S    
O47   Zn28  S    
C103  C323  A    
C198  C425  S    
C81   C346  A    
O113  Zn20  S    
C324  C389  S    
C53   C79   A    
C13   C329  S    
C124  C341  S    
C177  C229  A    
C110  C271  T    
C396  O162  A    
C160  C213  A    
C170  C230  A    
C81   C271  S    
O16   Zn6   S    
O29   Zn19  S    
C183  C245  A    
C344  H22   S    
C92   C277  S    
C83   C269  S    
C98   C301  A    
O177  Zn37  S    
C80   C373  A    
C167  C221  A    
C339  H6    S    
C41   O81   A    
C68   C336  S    
C380  O116  A    
C186  C238  A    
C74   C268  A    
C51   O100  A    
O112  Zn19  S    
C176  C234  A    
C238  H110  S    
O68   Zn8   S    
C185  C396  S    
C15   C129  S    
C196  C249  A    
C189  C381  S    
C132  C292  T    
O83   Zn35  S    
O81   Zn31  S    
C419  O166  A    
C329  H173  S    
C83   C334  A    
O67   Zn2   S    
C217  H149  S    
C143  C303  T    
C382  O138  A    
C19   O75   A    
C320  H145  S    
C352  H47   S    
C70   C201  A    
C193  C251  A    
C397  O161  A    
C92   C376  A    
C64   C135  A    
C29   O29   A    
O73   Zn14  S    
C58   C389  A    
O70   Zn17  S    
C161  C231  A    
O148  Zn8   S    
C152  C311  T    
C12   C127  S    
C170  C407  S    
C127  C286  T    
C4    C118  S    
O125  Zn22  S    
O179  Zn39  S    
C117  C276  T    
C122  C432  S    
C154  C314  T    
C21   O21   A    
C366  H91   S    
C347  H29   S    
C98   C288  S    
C162  C215  A    
C149  C308  T    
C14   C111  S    
C326  H162  S    
C62   C157  A    
C169  C234  A    
C326  C411  S    
C384  O139  A    
C7    O7    A    
C180  C221  A    
C337  H190  S    
C312  C360  S    
C391  O150  A    
C84   C374  A    
C234  H107  S    
C56   C308  S    
C355  H58   S    
C157  C344  S    
C95   C323  A    
C34   C133  S    
C179  C347  S    
C345  H26   S    
C20   O74   A    
C82   C378  A    
C350  H41   S    
C163  C409  S    
O61   Zn8   S    
O174  Zn37  S    
C71   C294  S    
C362  H75   S    
C338  H3    S    
C91   C335  A    
O139  Zn44  S    
C424  O178  A    
C31   C132  S    
C331  H178  S    
C136  C295  T    
C203  C264  A    
C399  O158  A    
C16   O16   A    
C226  H35   S    
O24   Zn4   S    
O89   Zn36  S    
C9    O9    A    
C410  O125  A    
C30   O42   A    
C346  C363  S    
C48   O96   A    
C322  C378  S    
C47   O91   A    
C28   O31   A    
O10   Zn48  S    
C25   O25   A    
C166  C413  S    
O69   Zn48  S    
C75   C235  A    
C14   O63   A    
O190  Zn23  S    
O138  Zn44  S    
C406  O117  A    
C227  H46   S    
C165  C218  A    
C151  C310  T    
C77   C300  S    
C31   O36   A    
C53   C112  A    
C261  H133  S    
C333  H186  S    
C353  H51   S    
C39   O86   A    
C70   C246  A    
C352  H45   S    
C183  C218  A    
C133  C293  T    
C107  C267  T    
O99   Zn41  S    
O130  Zn28  S    
C79   C104  A    
C18   O18   A    
C367  H93   S    
C423  O179  A    
C60   C101  A    
O133  Zn28  S    
O56   Zn34  S    
C215  H127  S    
O117  Zn18  S    
C57   C64   A    
C414  O130  A    
C385  O171  A    
C413  O129  A    
C398  O159  A    
C398  O106  A    
C182  C380  S    
C321  C334  S    
O104  Zn40  S    
C15   O62   A    
O169  Zn31  S    
O14   Zn8   S    
O35   Zn5   S    
C4    O4    A    
O6    Zn44  S    
C76   C246  A    
C100  C113  A    
C419  O169  A    
C250  H122  S    
C25   C117  S    
C257  C354  S    
C392  O148  A    
C390  O24   A    
C430  O190  A    
O162  Zn13  S    
C197  C248  A    
C395  O79   A    
C14   O14   A    
C4    O55   A    
C11   O65   A    
O126  Zn26  S    
C77   C279  A    
C159  C412  S    
C361  H73   S    
O41   Zn24  S    
C123  C283  T    
C203  C255  A    
C342  H18   S    
O147  Zn5   S    
O92   Zn39  S    
C164  C220  A    
C325  H158  S    
O59   Zn12  S    
C380  O143  A    
C2    C328  S    
C29   C142  S    
O165  Zn32  S    
C333  H185  S    
C184  C247  A    
O8    Zn3   S    
C339  H8    S    
C96   C157  A    
C59   C306  S    
C17   O17   A    
C184  C233  A    
C172  C239  A    
C330  H176  S    
C192  C228  A    
O123  Zn26  S    
C62   C316  S    
O118  Zn21  S    
C49   O97   A    
C104  C368  A    
C229  H68   S    
C40   C156  S    
C199  C253  A    
C171  C404  S    
C78   C273  S    
O86   Zn31  S    
C322  H153  S    
C174  C392  S    
C186  C245  A    
C113  C340  S    
C56   C378  A    
C324  H154  S    
C35   C91   A    
