data_mof_unit_6232.cif
_audit_creation_date              2012-12-10T17:42:13-0500
_audit_creation_method            fapswitch 2.2
_symmetry_space_group_name_H-M    P1
_symmetry_Int_Tables_number       1
_space_group_crystal_system       triclinic
_cell_length_a                    15.093363
_cell_length_b                    13.753749
_cell_length_c                    10.804604
_cell_angle_alpha                 89.787522
_cell_angle_beta                  87.949775
_cell_angle_gamma                 90.256756
_cell_volume                      2241.45615564

loop_
_atom_site_label
_atom_site_type_symbol
_atom_type_description
_atom_site_fract_x
_atom_site_fract_y
_atom_site_fract_z
_atom_type_partial_charge
C1    C     C_R   0.328705 0.499485 0.503629 0.916759
C2    C     C_3   0.590860 0.527077 0.924534 -0.358706
C3    C     C_R   0.816567 0.469629 0.395080 0.473749
C4    C     C_R   0.767474 0.500077 0.500599 -0.136758
C5    C     C_R   0.810445 0.529644 0.606832 -0.324029
C6    C     C_R   0.903054 0.527977 0.609209 0.127230
C7    C     C_R   0.952728 0.494176 0.504921 0.036188
C8    C     C_R   0.909104 0.462230 0.399142 0.005299
C9    C     C_R   0.946816 0.559198 0.714080 -0.201719
C10   C     C_R   0.039202 0.557937 0.715409 -0.161832
C11   C     C_R   0.089648 0.525638 0.611573 0.008590
C12   C     C_R   0.497415 0.499860 0.259904 0.827944
C13   C     C_R   0.046106 0.493554 0.505573 -0.026987
C14   C     C_R   0.095505 0.459834 0.400658 0.071743
C15   C     C_R   0.050441 0.425162 0.297942 -0.152072
C16   C     C_R   0.958631 0.426108 0.297446 -0.202870
C17   C     C_R   0.182815 0.523054 0.612665 0.389823
C18   C     C_R   0.231835 0.497001 0.504634 -0.210174
C19   C     C_R   0.188524 0.461870 0.400668 0.132555
C20   C     C_R   0.431942 0.792880 0.559371 -0.029685
C21   C     C_R   0.431073 0.206104 0.557144 -0.028921
C22   C     C_R   0.567742 0.794891 0.440881 0.633866
C23   C     C_R   0.570072 0.206559 0.445932 0.629909
C24   C     C_R   0.573771 0.897453 0.453885 -0.086803
C25   C     C_R   0.574503 0.103681 0.454951 -0.084815
C26   C     C_R   0.671094 0.500188 0.500364 0.876887
C27   C     C_R   0.502109 0.948331 0.508503 0.055157
C28   C     C_R   0.502122 0.051794 0.508212 0.058333
C29   C     C_R   0.430142 0.895904 0.561645 -0.007076
C30   C     C_R   0.429790 0.103130 0.560498 -0.002660
C31   C     C_R   0.649330 0.950084 0.412428 -0.188130
C32   C     C_R   0.649751 0.051633 0.413148 -0.174279
C33   C     C_R   0.358527 0.050264 0.615514 -0.157087
C34   C     C_R   0.358796 0.947748 0.616341 -0.138549
C35   C     C_R   0.498999 0.499967 0.740399 0.776631
C36   C     C_3   0.427828 0.573656 0.075871 -0.399686
C37   C     C_3   0.467838 0.398079 0.073169 -0.387805
C38   C     C_3   0.430082 0.576599 0.932941 0.090762
C39   C     C_3   0.472551 0.396486 0.930985 0.091032
C40   C     C_3   0.589161 0.523620 0.067235 -0.388917
C41   C     C_3   0.495464 0.499121 0.122028 0.049778
C42   C     C_3   0.498320 0.500103 0.878493 0.030187
Cu1   Cu    Cu3+1 0.499990 0.597420 0.500010 1.015064
Cu2   Cu    Cu3+1 0.499990 0.402580 0.500010 1.029132
H1    H     H_    0.442329 0.646508 0.114250 0.213529
H2    H     H_    0.511111 0.341290 0.110437 0.206307
H3    H     H_    0.071015 0.582930 0.797831 0.190639
H4    H     H_    0.085005 0.397690 0.216159 0.194599
H5    H     H_    0.926573 0.399290 0.216105 0.191777
H6    H     H_    0.378286 0.751933 0.603922 0.186380
H7    H     H_    0.376764 0.246242 0.600112 0.147683
H8    H     H_    0.708159 0.912851 0.377699 0.179274
H9    H     H_    0.709471 0.088819 0.380743 0.174205
H10   H     H_    0.302360 0.088152 0.657412 0.139983
H11   H     H_    0.302849 0.909072 0.658853 0.151918
H12   H     H_    0.359892 0.554252 0.110702 0.188404
H13   H     H_    0.399707 0.379098 0.105760 0.207432
H14   H     H_    0.363403 0.558388 0.900615 0.146865
H15   H     H_    0.406164 0.375974 0.897647 0.112111
H16   H     H_    0.611888 0.594530 0.102356 0.168316
H17   H     H_    0.635436 0.466437 0.096990 0.193218
H18   H     H_    0.611009 0.600906 0.891744 0.201801
H19   H     H_    0.642054 0.476404 0.886441 0.189217
H20   H     H_    0.771611 0.553887 0.687269 0.150519
H21   H     H_    0.909584 0.584873 0.795048 0.142183
N1    N     N_R   0.499930 0.743810 0.499950 -0.227306
N2    N     N_R   0.499930 0.256190 0.499950 -0.217067
O1    O     O_R   0.370250 0.582280 0.500040 -0.583978
O2    O     O_R   0.370250 0.417720 0.500040 -0.582655
O3    O     O_R   0.499970 0.582270 0.317700 -0.583364
O4    O     O_R   0.499970 0.417730 0.317700 -0.565554
O5    O     O_R   0.629730 0.582260 0.499980 -0.547469
O6    O     O_R   0.629730 0.417740 0.499980 -0.509556
O7    O     O_R   0.500000 0.582270 0.682320 -0.544528
O8    O     O_R   0.500000 0.417730 0.682320 -0.560971
O9    O     O_3   0.225726 0.540506 0.721479 -0.581708
C43   C     C_3   0.230156 0.451568 0.787255 -0.366437
H22   H     H_    0.286121 0.407050 0.749605 0.160550
H23   H     H_    0.167430 0.408394 0.786319 0.171662
H24   H     H_    0.241540 0.466966 0.886029 0.193881
Br1   Br    Br    0.257257 0.414334 0.260379 -0.634536
O10   O     O_3   0.630075 0.745876 0.368252 -0.568660
C44   C     C_3   0.615779 0.767094 0.242173 -0.343557
H25   H     H_    0.669916 0.734770 0.184414 0.169552
H26   H     H_    0.617223 0.846010 0.220444 0.162992
H27   H     H_    0.551597 0.736877 0.213284 0.191307
O11   O     O_3   0.637822 0.258017 0.385763 -0.555852
C45   C     C_3   0.634219 0.245245 0.256202 -0.228550
H28   H     H_    0.569542 0.216935 0.224267 0.130317
H29   H     H_    0.687813 0.195824 0.223337 0.161732
H30   H     H_    0.647233 0.316392 0.210692 0.214655
Br2   Br    Br    0.451468 0.712159 0.881262 -0.536629
Br3   Br    Br    0.554027 0.291593 0.878606 -0.539273
O12   O     O_3   0.774696 0.452634 0.285503 -0.586648
C46   C     C_3   0.782869 0.537782 0.212140 -0.408691
H31   H     H_    0.848761 0.574446 0.215896 0.171913
H32   H     H_    0.730529 0.589796 0.241442 0.204533
H33   H     H_    0.775258 0.518354 0.113703 0.186480

loop_
_geom_bond_atom_site_label_1
_geom_bond_atom_site_label_2
_ccdc_geom_bond_type
O11   C45   S    
C35   O7    A    
Cu1   O5    S    
C40   H16   S    
C27   C29   A    
C26   O5    A    
C46   H31   S    
C24   C27   A    
C31   H8    S    
C26   O6    A    
C6    C9    A    
C46   H33   S    
C7    C8    A    
C43   H22   S    
C25   C28   A    
C35   O8    A    
C1    C18   S    
C22   O10   S    
C20   N1    A    
C38   C42   S    
C5    C6    A    
C15   C16   A    
C38   Br2   S    
C1    O1    A    
Cu2   O4    S    
C18   C19   A    
C23   N2    A    
C35   C42   S    
C22   N1    A    
C20   H6    S    
C38   H14   S    
C39   Br3   S    
C44   H25   S    
Cu1   O1    S    
C17   O9    S    
C9    C10   A    
Cu1   O7    S    
C34   H11   S    
C8    C16   A    
C23   O11   S    
C13   C14   A    
C21   N2    A    
C36   C41   S    
O12   C46   S    
C15   H4    S    
C17   C18   A    
C39   C42   S    
C20   C29   A    
C43   H23   S    
Cu2   O2    S    
O9    C43   S    
C3    C8    A    
C29   C34   A    
C1    O2    A    
C40   H17   S    
C5    H20   S    
Cu2   O8    S    
Cu1   Cu2   S    
C12   C41   S    
C36   H12   S    
C31   C32   A    
C45   H30   S    
C39   H15   S    
C33   C34   A    
C36   H1    S    
C16   H5    S    
C40   C41   S    
C44   H26   S    
C12   O4    A    
C45   H29   S    
Cu1   O3    S    
C22   C24   A    
C3    C4    A    
C32   H9    S    
C21   H7    S    
C2    H19   S    
C43   H24   S    
C33   H10   S    
C12   O3    A    
C11   C17   A    
C30   C33   A    
C14   C19   A    
C4    C5    A    
C4    C26   S    
C46   H32   S    
C6    C7    A    
C21   C30   A    
C36   C38   S    
C24   C31   A    
C37   C39   S    
C11   C13   A    
C2    C42   S    
Cu1   N1    S    
C28   C30   A    
C3    O12   S    
C23   C25   A    
C37   C41   S    
Cu2   O6    S    
C9    H21   S    
C10   C11   A    
C2    C40   S    
C7    C13   A    
C44   H27   S    
C45   H28   S    
O10   C44   S    
C10   H3    S    
C14   C15   A    
Cu2   N2    S    
C37   H2    S    
C19   Br1   S    
C37   H13   S    
C2    H18   S    
C27   C28   A    
C25   C32   A    
