data_mof_unit_47389.cif
_audit_creation_date              2012-12-10T18:18:18-0500
_audit_creation_method            fapswitch 2.2
_symmetry_space_group_name_H-M    P1
_symmetry_Int_Tables_number       1
_space_group_crystal_system       triclinic
_cell_length_a                    14.170636
_cell_length_b                    14.914163
_cell_length_c                    15.594149
_cell_angle_alpha                 88.048322
_cell_angle_beta                  67.54863
_cell_angle_gamma                 89.687893
_cell_volume                      3044.0459553

loop_
_atom_site_label
_atom_site_type_symbol
_atom_type_description
_atom_site_fract_x
_atom_site_fract_y
_atom_site_fract_z
_atom_type_partial_charge
C1    C     C_R   0.500034 0.672633 0.499511 0.984328
C2    C     C_R   0.499964 0.327377 0.500433 0.984156
C3    C     C_R   0.379683 0.475096 0.103600 0.350511
C4    C     C_R   0.620127 0.528952 0.896669 0.350442
C5    C     C_R   0.314867 0.444656 0.061775 0.334420
C6    C     C_R   0.684461 0.559952 0.938814 0.341625
C7    C     C_R   0.486218 0.184366 0.582386 0.164932
C8    C     C_R   0.512787 0.815828 0.418077 0.167888
C9    C     C_R   0.500014 0.231956 0.500147 -0.179625
C10   C     C_R   0.499674 0.768058 0.500070 -0.173542
C11   C     C_R   0.509928 0.189856 0.418857 0.348585
C12   C     C_R   0.489028 0.810010 0.581638 0.353214
C13   C     C_R   0.495269 0.096745 0.422442 -0.098318
C14   C     C_R   0.502903 0.903220 0.578474 -0.096320
C15   C     C_R   0.498526 0.046910 0.500666 -0.085244
C16   C     C_R   0.499566 0.953102 0.500308 -0.084558
C17   C     C_R   0.500605 0.091152 0.579266 -0.045983
C18   C     C_R   0.497556 0.908920 0.421650 -0.045213
C19   C     C_R   0.475341 0.052087 0.352523 0.388359
C20   C     C_R   0.522184 0.947920 0.648729 0.391027
C21   C     C_R   0.476855 0.958394 0.351963 0.302430
C22   C     C_R   0.520609 0.041627 0.649314 0.301200
C23   C     C_R   0.435968 0.499926 0.675607 0.921180
C24   C     C_R   0.564053 0.500263 0.324391 0.919048
C25   C     C_R   0.179064 0.439231 0.556192 0.422596
C26   C     C_R   0.822127 0.558428 0.441036 0.423052
C27   C     C_R   0.223860 0.560981 0.445356 0.481602
C28   C     C_R   0.776536 0.437987 0.553545 0.477666
C29   C     C_R   0.125201 0.559863 0.442148 -0.050726
C30   C     C_R   0.876615 0.436393 0.553694 -0.052490
C31   C     C_R   0.051567 0.497186 0.497839 -0.005411
C32   C     C_R   0.950906 0.497830 0.496491 -0.005665
C33   C     C_R   0.078512 0.434231 0.554815 -0.066678
C34   C     C_R   0.925122 0.558674 0.436958 -0.070029
C35   C     C_R   0.099807 0.618588 0.382258 -0.121634
C36   C     C_R   0.904490 0.373078 0.608306 -0.126778
C37   C     C_R   0.003664 0.616714 0.376303 0.228447
C38   C     C_R   0.003640 0.369382 0.607684 0.232846
C39   C     C_R   0.396177 0.492834 0.776503 -0.058896
C40   C     C_R   0.603909 0.508369 0.223548 -0.054994
C41   C     C_R   0.278501 0.429706 0.921832 -0.100021
C42   C     C_R   0.721003 0.573524 0.078968 -0.097640
C43   C     C_R   0.305505 0.446886 0.827227 -0.201179
C44   C     C_R   0.694245 0.555102 0.173404 -0.211203
C45   C     C_R   0.458108 0.522359 0.820863 -0.050526
C46   C     C_R   0.542076 0.479444 0.178855 -0.047933
C47   C     C_R   0.441442 0.493324 0.911636 0.067588
C48   C     C_R   0.558456 0.509678 0.088497 0.068149
C49   C     C_R   0.345227 0.453555 0.965391 -0.004176
C50   C     C_R   0.654348 0.550095 0.035140 -0.005086
C51   C     C_R   0.515580 0.506885 0.951117 -0.120767
C52   C     C_R   0.484279 0.496633 0.049007 -0.116875
H1    H     H_    0.156054 0.664865 0.335606 0.213356
H2    H     H_    0.850183 0.323122 0.650785 0.209810
H3    H     H_    0.481087 0.432805 0.216116 0.217531
H4    H     H_    0.519189 0.568677 0.783059 0.218197
H5    H     H_    0.743405 0.577973 0.207057 0.204874
H6    H     H_    0.256168 0.423716 0.793978 0.216095
H7    H     H_    0.205958 0.396738 0.959677 0.207734
H8    H     H_    0.793307 0.607005 0.041464 0.202541
N1    N     N_R   0.249980 0.499930 0.499960 -0.167436
N2    N     N_R   0.750020 0.500070 0.500040 -0.166416
O1    O     O_R   0.419720 0.632140 0.499980 -0.575494
O2    O     O_R   0.580280 0.367860 0.500020 -0.576851
O3    O     O_R   0.580270 0.632160 0.499970 -0.554763
O4    O     O_R   0.419730 0.367840 0.500030 -0.566042
O5    O     O_R   0.373870 0.499980 0.632250 -0.578680
O6    O     O_R   0.626130 0.500020 0.367750 -0.587133
O7    O     O_R   0.534420 0.500000 0.632240 -0.563170
O8    O     O_R   0.465580 0.500000 0.367760 -0.564849
Zn1   Zn    Zn3+2 0.392800 0.499980 0.500010 1.093245
Zn2   Zn    Zn3+2 0.607200 0.500020 0.499990 1.093338
Cl1   Cl    Cl    0.190800 0.404529 0.132615 -0.534962
Cl2   Cl    Cl    0.807760 0.601909 0.868356 -0.495010
Cl3   Cl    Cl    0.213855 0.374540 0.635800 -0.605209
Cl4   Cl    Cl    0.782409 0.632684 0.371509 -0.604209
Cl5   Cl    Cl    0.313458 0.643816 0.380747 -0.538728
Cl6   Cl    Cl    0.685264 0.357641 0.621121 -0.539154
N3    N     N_2   0.990172 0.671400 0.305466 -0.272315
H9    H     H_    0.021325 0.734886 0.298769 0.246537
C53   C     C_3   0.020968 0.628715 0.216996 -0.589928
H10   H     H_    0.001917 0.672843 0.167190 0.239666
H11   H     H_    0.979877 0.563774 0.224864 0.265224
H12   H     H_    0.104666 0.616769 0.188428 0.254684
N4    N     N_2   0.026990 0.296617 0.657372 -0.266730
H13   H     H_    0.968772 0.280017 0.719947 0.253241
C54   C     C_3   0.066354 0.218714 0.602245 -0.623325
H14   H     H_    0.089116 0.167437 0.643839 0.248470
H15   H     H_    0.134698 0.237081 0.539270 0.265179
H16   H     H_    0.006873 0.189395 0.581138 0.234962
Cl7   Cl    Cl    0.318908 0.503638 0.221055 -0.551091
Cl8   Cl    Cl    0.681742 0.500232 0.779232 -0.521326
N5    N     N_2   0.448079 0.231111 0.667105 -0.302024
H17   H     H_    0.500237 0.252688 0.693268 0.314296
C55   C     C_3   0.348115 0.204404 0.733396 -0.614001
H18   H     H_    0.350569 0.136926 0.764597 0.259034
H19   H     H_    0.292538 0.203469 0.698898 0.261323
H20   H     H_    0.321644 0.253199 0.789720 0.243160
N6    N     N_2   0.550768 0.769408 0.333137 -0.302293
H21   H     H_    0.498367 0.747521 0.307408 0.314028
C56   C     C_3   0.650019 0.797095 0.266205 -0.611093
H22   H     H_    0.646366 0.864501 0.235388 0.259521
H23   H     H_    0.676556 0.748535 0.209662 0.239655
H24   H     H_    0.706220 0.798651 0.299977 0.267488
Cl9   Cl    Cl    0.553326 0.254927 0.313184 -0.544654
Cl10  Cl    Cl    0.445581 0.744561 0.687068 -0.545427
Cl11  Cl    Cl    0.430100 0.109965 0.274566 -0.385605
Cl12  Cl    Cl    0.566739 0.890122 0.727217 -0.377078
Cl13  Cl    Cl    0.436348 0.905252 0.271613 -0.472925
Cl14  Cl    Cl    0.560223 0.094688 0.730281 -0.473045

loop_
_geom_bond_atom_site_label_1
_geom_bond_atom_site_label_2
_ccdc_geom_bond_type
C12   Cl10  S    
C54   H14   S    
N5    H17   S    
C35   H1    S    
C34   C37   A    
C23   O7    A    
C55   H18   S    
C53   H10   S    
C55   H20   S    
C24   O8    A    
C47   C49   A    
N4    H13   S    
C40   C46   A    
C37   N3    S    
C56   H22   S    
C35   C37   A    
C8    N6    S    
C27   C29   A    
C15   C16   A    
C18   C21   A    
C3    Cl7   S    
C23   O5    A    
C27   Cl5   S    
C27   N1    A    
C43   H6    S    
C26   C34   A    
O4    Zn1   S    
C45   H4    S    
C7    C17   A    
C46   H3    S    
C11   Cl9   S    
C1    O3    A    
C31   C33   A    
O8    Zn1   S    
C28   Cl6   S    
C39   C45   A    
N1    Zn1   S    
C48   C50   A    
N5    C55   S    
C5    Cl1   S    
C41   C43   A    
C5    C49   A    
C42   C44   A    
C1    O1    A    
C41   C49   A    
C53   H11   S    
C2    O2    A    
C6    Cl2   S    
C45   C47   A    
C19   Cl11  S    
C7    N5    S    
C46   C48   A    
C13   C19   A    
C38   N4    S    
C51   C52   A    
C14   C20   A    
C41   H7    S    
C4    C6    A    
C42   H8    S    
N3    C53   S    
C39   C43   A    
C4    C51   A    
C22   Cl14  S    
C8    C18   A    
C25   Cl3   S    
C32   C34   A    
O7    Zn2   S    
C26   Cl4   S    
N6    H21   S    
C40   C44   A    
C44   H5    S    
O6    Zn2   S    
N2    Zn2   S    
C25   N1    A    
C6    C50   A    
C9    C11   A    
C10   C12   A    
C42   C50   A    
C16   C18   A    
N6    C56   S    
C20   C22   A    
C56   H24   S    
C13   C15   A    
C14   C16   A    
C53   H12   S    
C56   H23   S    
C7    C9    A    
C19   C21   A    
C31   C32   A    
C1    C10   S    
C17   C22   A    
O1    Zn1   S    
C3    C5    A    
C47   C51   A    
C3    C52   A    
C55   H19   S    
C2    O4    A    
O3    Zn2   S    
C29   C35   A    
C33   C38   A    
C30   C36   A    
C36   C38   A    
C12   C14   A    
C29   C31   A    
C30   C32   A    
C11   C13   A    
C23   C39   S    
C28   C30   A    
C24   C40   S    
O5    Zn1   S    
O2    Zn2   S    
C26   N2    A    
C36   H2    S    
C24   O6    A    
N3    H9    S    
N4    C54   S    
C48   C52   A    
C8    C10   A    
C54   H16   S    
C54   H15   S    
C4    Cl8   S    
C15   C17   A    
C2    C9    S    
C25   C33   A    
C21   Cl13  S    
C20   Cl12  S    
C28   N2    A    
