data_mof_unit_35306.cif
_audit_creation_date              2012-12-11T14:57:57-0500
_audit_creation_method            fapswitch 2.2
_symmetry_space_group_name_H-M    P1
_symmetry_Int_Tables_number       1
_space_group_crystal_system       triclinic
_cell_length_a                    6.970289
_cell_length_b                    16.704847
_cell_length_c                    17.007786
_cell_angle_alpha                 100.208264
_cell_angle_beta                  89.389784
_cell_angle_gamma                 90.418325
_cell_volume                      1948.85718689

loop_
_atom_site_label
_atom_site_type_symbol
_atom_type_description
_atom_site_fract_x
_atom_site_fract_y
_atom_site_fract_z
_atom_type_partial_charge
O1    O     O_R   0.506180 0.438940 0.579430 -0.540402
O2    O     O_R   0.170520 0.406230 0.413590 -0.536551
O3    O     O_R   0.005180 0.561060 0.420570 -0.534398
C1    C     C_R   0.340337 0.383045 0.385638 0.694998
O4    O     O_R   0.176140 0.429310 0.578370 -0.544479
O5    O     O_R   0.010830 0.584300 0.586530 -0.533735
C2    C     C_R   0.343361 0.411501 0.603115 0.689114
O6    O     O_R   0.500520 0.415700 0.413470 -0.535370
O7    O     O_3   0.340830 0.550820 0.502480 -0.363364
V1    V     V_3+5 0.064040 0.490570 0.499540 1.418830
O8    O     O_R   0.681400 0.593770 0.586410 -0.542539
C3    C     C_R   0.848713 0.613839 0.617419 0.675684
O9    O     O_R   0.675790 0.570690 0.421630 -0.535617
C4    C     C_R   0.845378 0.586709 0.395366 0.698598
V2    V     V_3+5 0.564650 0.509430 0.500460 1.419554
O10   O     O_3   0.837730 0.449180 0.497520 -0.369576
C5    C     C_R   0.909276 0.867175 0.171497 -0.067103
C6    C     C_R   0.857111 0.637568 0.332443 -0.044352
C7    C     C_R   0.858031 0.648876 0.191595 -0.148453
C8    C     C_R   0.846960 0.601259 0.251630 -0.178234
C9    C     C_R   0.878064 0.722488 0.352559 -0.211305
C10   C     C_R   0.887711 0.770965 0.292560 0.111114
C11   C     C_R   0.878504 0.733843 0.211452 0.151206
C12   C     C_R   0.889535 0.782145 0.151708 -0.203178
C13   C     C_R   0.913816 0.905394 0.253128 0.151337
C14   C     C_R   0.904714 0.855930 0.312690 -0.143671
H1    H     H_    0.881780 0.753666 0.089429 0.128442
H2    H     H_    0.850112 0.619232 0.129664 0.110567
H3    H     H_    0.909076 0.882730 0.375337 0.118675
H4    H     H_    0.830744 0.535908 0.235013 0.113992
H5    H     H_    0.886472 0.750754 0.414779 0.092517
H6    H     H_    0.968047 0.625264 0.985488 0.129780
C15   C     C_R   0.877193 0.908084 0.726914 -0.143384
C16   C     C_R   0.851483 0.924174 0.650147 -0.120784
C17   C     C_R   0.829298 0.860492 0.586291 -0.121027
C18   C     C_R   0.832483 0.780310 0.598809 -0.130797
C19   C     C_R   0.857645 0.761833 0.676231 0.081197
C20   C     C_R   0.880654 0.827203 0.741480 0.067713
C21   C     C_R   0.855549 0.679968 0.689032 -0.167862
C22   C     C_R   0.870065 0.663637 0.769220 -0.004335
C23   C     C_R   0.926889 0.729305 0.831165 0.033311
C24   C     C_R   0.913132 0.811223 0.819127 -0.157904
C25   C     C_R   0.827460 0.585859 0.792205 0.113861
C26   C     C_R   0.841150 0.579057 0.873522 -0.109204
C27   C     C_R   0.930570 0.638319 0.927444 -0.183802
C28   C     C_R   0.988550 0.710205 0.904923 0.112682
H7    H     H_    0.897214 0.959754 0.774412 0.095490
H8    H     H_    0.849704 0.986382 0.640113 0.109818
H9    H     H_    0.809073 0.873290 0.526734 0.104595
H10   H     H_    0.812585 0.733141 0.547182 0.093693
H11   H     H_    0.796584 0.525444 0.896218 0.135889
H12   H     H_    0.339161 0.486490 0.137575 0.135222
C29   C     C_R   0.379185 0.219067 0.411645 -0.132458
C30   C     C_R   0.401564 0.141777 0.428692 -0.171677
C31   C     C_R   0.419652 0.075915 0.367303 -0.119731
C32   C     C_R   0.417701 0.085488 0.287291 0.083385
C33   C     C_R   0.402872 0.165512 0.267210 0.026913
C34   C     C_R   0.379157 0.232902 0.332031 0.056265
C35   C     C_R   0.411019 0.181573 0.187024 -0.175273
C36   C     C_R   0.391645 0.262929 0.173265 0.048598
C37   C     C_R   0.364015 0.328158 0.238367 0.069858
C38   C     C_R   0.356004 0.313285 0.317516 -0.164748
C39   C     C_R   0.398115 0.280873 0.094775 -0.201772
C40   C     C_R   0.379793 0.360684 0.080362 0.187330
C41   C     C_R   0.354336 0.424068 0.145486 -0.117328
C42   C     C_R   0.346026 0.408104 0.222902 -0.202708
H13   H     H_    0.362258 0.268046 0.462092 0.093869
H14   H     H_    0.401963 0.132682 0.490171 0.124762
H15   H     H_    0.432155 0.015954 0.382615 0.137618
H16   H     H_    0.417622 0.232997 0.043423 0.089424
H17   H     H_    0.324700 0.459583 0.270596 0.117125
C43   C     C_R   0.421008 0.134913 0.830017 -0.057091
C44   C     C_R   0.341735 0.357576 0.663572 -0.046097
C45   C     C_R   0.199270 0.323312 0.784932 -0.189534
C46   C     C_R   0.217424 0.375617 0.729579 -0.173109
C47   C     C_R   0.452141 0.286235 0.654287 -0.267188
C48   C     C_R   0.441299 0.235016 0.712001 0.161349
C49   C     C_R   0.310337 0.252811 0.776884 0.163542
C50   C     C_R   0.296364 0.201089 0.833828 -0.252785
C51   C     C_R   0.553694 0.118738 0.766394 -0.160802
C52   C     C_R   0.561083 0.167151 0.707030 -0.187913
H18   H     H_    0.194223 0.214015 0.882839 0.109911
H19   H     H_    0.651302 0.068090 0.762479 0.116661
H20   H     H_    0.101239 0.338794 0.835017 0.115666
H21   H     H_    0.663605 0.152626 0.658333 0.115568
H22   H     H_    0.136027 0.431285 0.738525 0.133531
H23   H     H_    0.548576 0.271724 0.603400 0.115665
O11   O     O_R   0.265840 0.084300 0.086750 -0.535893
O12   O     O_R   0.589750 0.070740 0.921690 -0.547155
O13   O     O_R   0.755020 0.915730 0.913400 -0.533316
C53   C     C_R   0.422554 0.085444 0.894326 0.681172
O14   O     O_R   0.595830 0.093740 0.086480 -0.537127
O15   O     O_R   0.761150 0.938890 0.079360 -0.522055
C54   C     C_R   0.426401 0.114655 0.116715 0.742946
O16   O     O_R   0.259710 0.061140 0.920790 -0.540345
O17   O     O_3   0.425260 0.949200 0.997610 -0.331032
V3    V     V_3+5 0.702060 0.009430 0.000450 1.466679
O18   O     O_R   0.090530 0.929220 0.078150 -0.511370
C55   C     C_R   0.921163 0.915177 0.106024 0.736569
O19   O     O_R   0.084440 0.906220 0.913360 -0.525069
C56   C     C_R   0.916616 0.880313 0.888077 0.724634
V4    V     V_3+5 0.201450 0.990520 0.999290 1.506873
O20   O     O_3   0.928380 0.050800 0.002390 -0.380977
C57   C     C_3   0.760749 0.511640 0.733289 -0.344373
C58   C     C_3   0.726321 0.433138 0.766370 -0.779464
H24   H     H_    0.846208 0.419493 0.803800 0.213853
H25   H     H_    0.590285 0.436591 0.801207 0.235477
H26   H     H_    0.720104 0.381619 0.715900 0.239709
H27   H     H_    0.624644 0.527113 0.706627 0.198419
H28   H     H_    0.872697 0.495940 0.686604 0.183360
I1    I     I_    0.238649 0.758742 0.966510 -0.386747
I2    I     I_    0.427030 0.969082 0.210616 -0.422320
C59   C     C_3   0.924238 0.998232 0.274724 -0.326390
C60   C     C_3   0.929231 0.033986 0.363952 -0.742066
H29   H     H_    0.796287 0.017958 0.394234 0.221018
H30   H     H_    0.055797 0.011395 0.392242 0.227612
H31   H     H_    0.939520 0.101330 0.372024 0.231660
H32   H     H_    0.050865 0.020877 0.246066 0.191674
H33   H     H_    0.801454 0.025315 0.248832 0.190973
C61   C     C_3   0.384021 0.374099 0.994425 -0.374772
C62   C     C_3   0.373989 0.462731 0.982716 -0.754949
H34   H     H_    0.236894 0.490778 0.007118 0.225381
H35   H     H_    0.497589 0.498093 0.011817 0.227642
H36   H     H_    0.379494 0.465045 0.917925 0.225672
H37   H     H_    0.517445 0.347073 0.964927 0.185266
H38   H     H_    0.260021 0.341164 0.963449 0.175549

loop_
_geom_bond_atom_site_label_1
_geom_bond_atom_site_label_2
_ccdc_geom_bond_type
C34   C38   A    
C31   C32   A    
O17   V4    S    
C6    C9    A    
H6    C27   S    
C4    C6    S    
O2    C1    A    
C7    C8    A    
C12   H1    S    
C1    O6    A    
C60   H29   S    
C2    C44   S    
C8    H4    S    
C48   C49   A    
C61   C62   S    
C9    H5    S    
C36   C39   A    
C18   C19   A    
C20   C24   A    
C43   C50   A    
O5    C3    A    
C57   H27   S    
C61   H38   S    
C33   C35   A    
C30   H14   S    
V2    O10   S    
C1    C38   S    
C32   C33   A    
C16   C17   A    
C23   C24   A    
C25   C57   S    
C62   H36   S    
C59   H33   S    
O8    V2    S    
C37   C42   A    
C22   C25   A    
C17   C18   A    
C17   H9    S    
C23   C28   A    
O1    V2    S    
C35   C54   S    
O12   C53   A    
O7    V1    S    
O15   C55   A    
O13   V3    S    
O16   V4    S    
C35   C36   A    
O9    C4    A    
C44   C46   A    
V4    O20   S    
C51   H19   S    
O19   V4    S    
C57   C58   S    
O14   V3    S    
C58   H26   S    
O11   C54   A    
C5    C12   A    
C45   C46   A    
C47   C48   A    
C21   C22   A    
O4    C2    A    
C43   C53   S    
C49   C50   A    
C13   C14   A    
O18   V4    S    
C59   H32   S    
O12   V3    S    
C36   C37   A    
C7    C11   A    
C25   C26   A    
O13   C56   A    
C19   C20   A    
C13   C59   S    
C58   H25   S    
C46   H22   S    
O11   V4    S    
C42   H17   S    
C39   H16   S    
C48   C52   A    
C11   C12   A    
C28   I1    S    
O17   V3    S    
O14   C54   A    
C15   C16   A    
C31   H15   S    
C7    H2    S    
C5    C55   S    
C47   H23   S    
C62   H34   S    
V3    O20   S    
O3    C4    A    
C26   H11   S    
C22   C23   A    
C41   C42   A    
O6    V2    S    
O9    V2    S    
C10   C14   A    
C15   H7    S    
C44   C47   A    
C16   H8    S    
O2    V1    S    
C24   C56   S    
O15   V3    S    
C18   H10   S    
C26   C27   A    
C59   C60   S    
C30   C31   A    
O1    C2    A    
C45   H20   S    
C51   C52   A    
O5    V1    S    
C50   H18   S    
C60   H30   S    
C29   C34   A    
C29   C30   A    
C58   H24   S    
C15   C20   A    
C40   C61   S    
C5    C13   A    
C40   C41   A    
C3    C21   S    
O7    V2    S    
O4    V1    S    
C19   C21   A    
O3    V1    S    
V1    O10   S    
C57   H28   S    
C33   C34   A    
O19   C56   A    
C61   H37   S    
C6    C8    A    
C37   C38   A    
C29   H13   S    
C62   H35   S    
C60   H31   S    
C53   O16   A    
C39   C40   A    
C27   C28   A    
C14   H3    S    
C43   C51   A    
O18   C55   A    
C45   C49   A    
C10   C11   A    
C9    C10   A    
C32   I2    S    
C52   H21   S    
H12   C41   S    
O8    C3    A    
