data_mof_unit_10583.cif
_audit_creation_date              2012-12-10T20:32:46-0500
_audit_creation_method            fapswitch 2.2
_symmetry_space_group_name_H-M    P1
_symmetry_Int_Tables_number       1
_space_group_crystal_system       triclinic
_cell_length_a                    11.519936
_cell_length_b                    10.658088
_cell_length_c                    9.901936
_cell_angle_alpha                 89.836728
_cell_angle_beta                  89.911447
_cell_angle_gamma                 89.69389
_cell_volume                      1215.74085935

loop_
_atom_site_label
_atom_site_type_symbol
_atom_type_description
_atom_site_fract_x
_atom_site_fract_y
_atom_site_fract_z
_atom_type_partial_charge
C1    C     C_R   0.496884 0.259934 0.500346 0.932423
C2    C     C_R   0.591956 0.451853 0.072212 0.284113
C3    C     C_R   0.593408 0.453929 0.927216 0.499661
C4    C     C_R   0.282022 0.500266 0.499949 0.888049
C5    C     C_R   0.409482 0.550099 0.928929 -0.105556
C6    C     C_3   0.284041 0.510344 0.924237 0.778514
C7    C     C_3   0.284991 0.513790 0.079449 0.655091
C8    C     C_R   0.490686 0.739593 0.499788 0.902449
C9    C     C_R   0.717977 0.500228 0.499824 0.928766
C10   C     C_1   0.161588 0.500803 0.499250 -0.099137
C11   C     C_1   0.059347 0.501142 0.498289 -0.013142
C12   C     C_R   0.475906 0.128834 0.501858 -0.190768
C13   C     C_1   0.940685 0.501165 0.498417 -0.021243
C14   C     C_1   0.838444 0.500835 0.499100 -0.178409
C15   C     C_R   0.478264 0.063016 0.623333 -0.080940
C16   C     C_3   0.373839 0.868673 0.863778 -0.199750
C17   C     C_3   0.728364 0.847208 0.824800 -0.224756
C18   C     C_3   0.566443 0.124873 0.972707 -0.163306
C19   C     C_3   0.789604 0.453275 0.880243 -0.242926
C20   C     C_3   0.097163 0.566135 0.856174 -0.200004
C21   C     C_R   0.441666 0.067300 0.383357 -0.183454
C22   C     C_R   0.431431 0.937529 0.382906 0.433407
C23   C     C_R   0.464139 0.870616 0.501092 -0.200388
C24   C     C_R   0.473465 0.935685 0.622414 -0.206854
C25   C     C_3   0.549591 0.921584 0.746044 0.827808
C26   C     C_3   0.556004 0.067135 0.745716 0.759175
C27   C     C_R   0.410195 0.550989 0.071263 -0.030344
H1    H     H_    0.425808 0.118723 0.290560 0.183656
H2    H     H_    0.741674 0.937145 0.878938 0.162293
H3    H     H_    0.814695 0.813705 0.790100 0.166471
H4    H     H_    0.652451 0.169365 0.957798 0.235737
H5    H     H_    0.577847 0.027953 0.011590 0.178664
H6    H     H_    0.520317 0.178909 0.052095 0.165469
H7    H     H_    0.695395 0.082377 0.630915 0.324467
H8    H     H_    0.740193 0.455263 0.152854 0.329431
H9    H     H_    0.782438 0.554620 0.906841 0.093754
H10   H     H_    0.842968 0.447137 0.787293 0.187121
H11   H     H_    0.837900 0.400882 0.959281 0.178407
H12   H     H_    0.333294 0.334322 0.893895 0.324402
H13   H     H_    0.063054 0.534589 0.955487 0.144977
H14   H     H_    0.086356 0.490099 0.781010 0.200112
H15   H     H_    0.043438 0.646992 0.822459 0.153020
H16   H     H_    0.143782 0.574768 0.166012 0.350717
H17   H     H_    0.330207 0.339342 0.124374 0.307861
H18   H     H_    0.349601 0.806009 0.290550 0.362949
H19   H     H_    0.338977 0.804713 0.785542 0.197246
H20   H     H_    0.338683 0.965022 0.849861 0.179734
H21   H     H_    0.343114 0.834225 0.963338 0.241007
H22   H     H_    0.693245 0.774824 0.894556 0.187521
N1    N     N_R   0.499240 0.499140 0.142800 -0.150305
N2    N     N_R   0.499240 0.499180 0.857150 -0.159099
O1    O     O_R   0.500010 0.316790 0.614690 -0.542157
O2    O     O_3   0.218246 0.611510 0.135309 -0.749592
O3    O     O_3   0.264007 0.396826 0.142547 -0.758953
O4    O     O_3   0.395489 0.880880 0.265339 -0.740670
O5    O     O_3   0.496607 0.866452 0.863304 -0.643313
O6    O     O_3   0.656063 0.862156 0.710879 -0.639894
O7    O     O_3   0.498451 0.128070 0.854125 -0.624178
O8    O     O_3   0.666127 0.118830 0.716715 -0.756106
O9    O     O_3   0.678691 0.391542 0.141314 -0.732615
O10   O     O_3   0.681576 0.395409 0.855499 -0.528797
O11   O     O_3   0.214206 0.604595 0.863272 -0.608479
O12   O     O_R   0.500000 0.316760 0.385350 -0.611337
O13   O     O_R   0.334450 0.500030 0.614670 -0.575403
O14   O     O_R   0.334440 0.500000 0.385330 -0.571587
O15   O     O_R   0.500000 0.683240 0.614650 -0.573402
O16   O     O_R   0.499990 0.683210 0.385310 -0.608041
O17   O     O_R   0.665560 0.500000 0.614670 -0.562594
O18   O     O_R   0.665550 0.499970 0.385330 -0.593062
O19   O     O_3   0.267986 0.390037 0.866973 -0.758322
Zn1   Zn    Zn3+2 0.500010 0.500020 0.653130 1.069840
Zn2   Zn    Zn3+2 0.499990 0.499980 0.346870 1.014571

loop_
_geom_bond_atom_site_label_1
_geom_bond_atom_site_label_2
_ccdc_geom_bond_type
O18   Zn2   S    
C20   H15   S    
C23   C24   A    
C25   O5    S    
C8    O15   A    
C6    C7    S    
C19   H10   S    
C19   H11   S    
O14   Zn2   S    
C26   O7    S    
C26   O8    S    
C4    O13   A    
O15   Zn1   S    
C12   C15   A    
C9    C14   S    
C16   H21   S    
C16   O5    S    
C2    C3    A    
C9    O17   A    
O1    Zn1   S    
C5    C27   A    
C13   C14   T    
O12   Zn2   S    
C17   H3    S    
C11   C13   S    
C6    O11   S    
C22   O4    S    
C1    C12   S    
N2    Zn1   S    
C4    O14   A    
C19   O10   S    
O17   Zn1   S    
C1    O12   A    
C16   H20   S    
C15   C24   A    
C18   H6    S    
H12   O19   S    
C9    O18   A    
C20   H14   S    
C19   H9    S    
C3    O10   S    
C20   O11   S    
C5    C6    S    
C20   H13   S    
C1    O1    A    
C2    O9    S    
H16   O2    S    
C18   H5    S    
C10   C11   T    
C7    O2    S    
C17   H22   S    
C25   O6    S    
H17   O3    S    
C17   H2    S    
H8    O9    S    
C8    C23   S    
C7    C27   S    
C24   C25   S    
H18   O4    S    
C27   N1    A    
O16   Zn2   S    
O13   Zn1   S    
C16   H19   S    
C6    O19   S    
N1    Zn2   S    
C22   C23   A    
C5    N2    A    
C15   C26   S    
C3    N2    A    
C18   H4    S    
C2    N1    A    
C7    O3    S    
C25   C26   S    
C21   C22   A    
H7    O8    S    
C4    C10   S    
C12   C21   A    
C21   H1    S    
C8    O16   A    
C17   O6    S    
C18   O7    S    
