data_mof_unit_37216.cif
_audit_creation_date              2013-03-05T15:55:01-0500
_audit_creation_method            fapswitch 2.2
_symmetry_space_group_name_H-M    P1
_symmetry_Int_Tables_number       1
_space_group_crystal_system       triclinic
_cell_length_a                    11.691877
_cell_length_b                    12.375062
_cell_length_c                    12.978845
_cell_angle_alpha                 116.034952
_cell_angle_beta                  77.535721
_cell_angle_gamma                 101.130884
_cell_volume                      1637.17744006

loop_
_atom_site_label
_atom_site_type_symbol
_atom_site_description
_atom_site_fract_x
_atom_site_fract_y
_atom_site_fract_z
_atom_type_partial_charge
O1    O     O_R   0.533340 0.972510 0.318140 -0.607464
O2    O     O_R   0.488570 0.806530 0.359650 -0.593233
C1    C     C_R   0.508658 0.855412 0.285006 0.774326
O3    O     O_R   0.685190 0.083000 0.479260 -0.571960
O4    O     O_R   0.640410 0.917020 0.520770 -0.585781
C2    C     C_R   0.715752 0.999889 0.500120 0.821041
Cu1   Cu    Cu3+1 0.526510 0.098270 0.475420 0.921221
Cu2   Cu    Cu3+1 0.473490 0.901730 0.524580 0.919502
O5    O     O_R   0.511430 0.193470 0.640350 -0.580882
O6    O     O_R   0.466660 0.027490 0.681860 -0.577846
O7    O     O_R   0.359590 0.082980 0.479230 -0.576273
O8    O     O_R   0.314810 0.917000 0.520740 -0.584435
C3    C     C_R   0.479590 0.144461 0.714945 0.801751
C4    C     C_R   0.284181 0.000496 0.500432 0.809459
C5    C     C_1   0.837371 0.000063 0.500715 -0.192689
C6    C     C_1   0.939944 0.000653 0.501045 -0.007205
C7    C     C_1   0.059877 0.001191 0.501108 -0.006643
C8    C     C_1   0.162470 0.001166 0.500867 -0.194734
C9    C     C_R   0.357806 0.278560 0.038026 -0.227303
H1    H     H_    0.286669 0.461015 0.231589 0.140112
H2    H     H_    0.296639 0.253726 0.101990 0.134207
C10   C     C_R   0.457489 0.225676 0.840118 -0.107443
C11   C     C_R   0.577650 0.809828 0.070920 0.090844
C12   C     C_R   0.636539 0.724516 0.971576 -0.215794
C13   C     C_R   0.619810 0.602541 0.950078 0.371031
C14   C     C_R   0.526128 0.560168 0.018648 -0.037145
C15   C     C_R   0.475615 0.647534 0.125882 0.008191
C16   C     C_R   0.480901 0.435629 0.985908 0.083364
C17   C     C_R   0.400192 0.400094 0.066669 0.127795
C18   C     C_R   0.353728 0.486941 0.171942 -0.226878
C19   C     C_R   0.384966 0.608471 0.197401 -0.144979
C20   C     C_R   0.504543 0.347232 0.872443 -0.281261
C21   C     C_R   0.384272 0.190088 0.925542 0.162925
C22   C     C_R   0.514908 0.772714 0.158855 -0.169215
H3    H     H_    0.552119 0.373053 0.804725 0.224909
H4    H     H_    0.697811 0.753167 0.910328 0.169154
H5    H     H_    0.334851 0.671424 0.272934 0.167428
C23   C     C_R   0.692826 0.358591 0.338574 -0.294212
H6    H     H_    0.730348 0.554113 0.302536 0.143297
H7    H     H_    0.767961 0.363569 0.274255 0.138910
N1    N     N_R   0.566700 0.246290 0.438210 -0.195298
C24   C     C_R   0.341812 0.760691 0.646355 0.009875
C25   C     C_R   0.318640 0.677491 0.695287 -0.282926
C26   C     C_R   0.386350 0.580582 0.653281 0.169809
C27   C     C_R   0.469179 0.559333 0.549506 -0.048226
C28   C     C_R   0.496951 0.655555 0.510672 0.255479
C29   C     C_R   0.530301 0.452276 0.484996 -0.030672
C30   C     C_R   0.626390 0.454854 0.398322 0.141631
C31   C     C_R   0.656764 0.553053 0.369464 -0.275955
C32   C     C_R   0.591835 0.649645 0.422430 -0.152999
C33   C     C_R   0.498506 0.340290 0.496752 -0.028618
C34   C     C_R   0.665510 0.256129 0.361018 0.356754
N2    N     N_R   0.434010 0.754320 0.561170 -0.201300
H8    H     H_    0.418903 0.325273 0.550112 0.162818
H9    H     H_    0.290587 0.835912 0.681984 0.157680
H10   H     H_    0.252767 0.694012 0.771814 0.150276
H11   H     H_    0.620697 0.719011 0.392153 0.203368
C35   C     C_3   0.318862 0.065048 0.899876 -0.409676
C36   C     C_3   0.209057 0.049041 0.846389 -0.827919
H12   H     H_    0.233549 0.053300 0.760678 0.252089
H13   H     H_    0.157778 0.960231 0.835323 0.226955
H14   H     H_    0.151777 0.121156 0.904320 0.251200
H15   H     H_    0.376777 0.993237 0.845550 0.222798
H16   H     H_    0.289353 0.051739 0.981337 0.190874
C37   C     C_3   0.382804 0.522646 0.735798 -0.392058
C38   C     C_3   0.266433 0.443772 0.745569 -0.846212
H17   H     H_    0.193589 0.501366 0.791892 0.249232
H18   H     H_    0.244153 0.378785 0.658932 0.249397
H19   H     H_    0.273127 0.392446 0.795577 0.253038
H20   H     H_    0.459214 0.472062 0.714346 0.207676
H21   H     H_    0.392370 0.595612 0.823565 0.210461
C39   C     C_3   0.583256 0.935672 0.076058 -0.383888
C40   C     C_3   0.531532 0.932040 0.975666 -0.857500
H22   H     H_    0.584522 0.882327 0.890867 0.256767
H23   H     H_    0.439261 0.887871 0.975935 0.251024
H24   H     H_    0.531593 0.025856 0.985492 0.241463
H25   H     H_    0.532087 0.996828 0.155417 0.237573
H26   H     H_    0.676546 0.975849 0.071346 0.187361
O9    O     O_3   0.693892 0.527871 0.858989 -0.629330
C41   C     C_3   0.775595 0.495876 0.903774 0.040817
H27   H     H_    0.730071 0.452273 0.963037 0.147741
H28   H     H_    0.833938 0.577754 0.951764 0.140122
C42   C     C_3   0.851298 0.405941 0.802874 -0.305448
H29   H     H_    0.793349 0.325821 0.751974 0.225173
H30   H     H_    0.900612 0.449351 0.744855 0.223112
C43   C     C_3   0.938749 0.363903 0.845704 -0.943325
H31   H     H_    0.997257 0.442514 0.897498 0.253931
H32   H     H_    0.993946 0.300929 0.770286 0.265620
H33   H     H_    0.891009 0.315755 0.900034 0.256845
C44   C     C_3   0.750410 0.161391 0.295617 -0.385145
C45   C     C_3   0.867716 0.202382 0.343306 -0.823588
H34   H     H_    0.915732 0.279970 0.324623 0.235174
H35   H     H_    0.853420 0.230450 0.438523 0.272405
H36   H     H_    0.923677 0.126875 0.301352 0.235844
H37   H     H_    0.715641 0.072014 0.293356 0.247367
H38   H     H_    0.768977 0.147144 0.203188 0.154237

loop_
_geom_bond_atom_site_label_1
_geom_bond_atom_site_label_2
_geom_bond_distance
_ccdc_geom_bond_type
C38   H18   1.109379 S    
C21   C35   1.513527 S    
C40   H22   1.109994 S    
C4    C8    1.423431 S    
C34   C44   1.514062 S    
C44   H37   1.092014 S    
H1    C18   1.084381 S    
C27   C28   1.443700 A    
Cu1   O7    1.915984 S    
C14   C15   1.423222 A    
C12   H4    1.083683 S    
C10   C20   1.402709 A    
C16   C17   1.414202 A    
C9    H2    1.085315 S    
C41   C42   1.528916 S    
C24   N2    1.353672 A    
C18   C19   1.381376 A    
O7    C4    1.299745 A    
C43   H32   1.110766 S    
C38   H19   1.110772 S    
C23   C34   1.386472 A    
C5    C6    1.198794 T    
O5    C3    1.310128 A    
C39   H26   1.108678 S    
C39   H25   1.102767 S    
C2    C5    1.423224 S    
C42   H29   1.112376 S    
C6    C7    1.401149 S    
C11   C12   1.397720 A    
N1    C34   1.380717 A    
C23   C30   1.382075 A    
C38   H17   1.109946 S    
C36   H12   1.109245 S    
C13   O9    1.381949 S    
C40   H23   1.111305 S    
C26   C37   1.518599 S    
O3    Cu1   1.914093 S    
C27   C29   1.449290 A    
C15   C22   1.421989 A    
C35   H16   1.112411 S    
C36   H13   1.110019 S    
C15   C19   1.410677 A    
C20   H3    1.072784 S    
C16   C20   1.403073 A    
C12   C13   1.390824 A    
O3    C2    1.298808 A    
C9    C21   1.399460 A    
C45   H34   1.110560 S    
C43   H31   1.110718 S    
C39   C40   1.530914 S    
C29   C33   1.429771 A    
C1    C22   1.496577 S    
C13   C14   1.426125 A    
C37   H21   1.112881 S    
O6    C3    1.304017 A    
C19   H5    1.081274 S    
O1    C1    1.308874 A    
C25   C26   1.403017 A    
C17   C18   1.390323 A    
C24   H9    1.075585 S    
C45   H35   1.110065 S    
C29   C30   1.414487 A    
Cu2   O8    1.914093 S    
C11   C22   1.421373 A    
C7    C8    1.198900 T    
C41   H28   1.114648 S    
C30   C31   1.385158 A    
C42   H30   1.111837 S    
O8    C4    1.299251 A    
C31   C32   1.371659 A    
C40   H24   1.110803 S    
C24   C25   1.388830 A    
C9    C17   1.395243 A    
C26   C27   1.430194 A    
C35   H15   1.105257 S    
Cu1   O5    1.924758 S    
C10   C21   1.424562 A    
C36   H14   1.111139 S    
H6    C31   1.085341 S    
O1    Cu1   1.945304 S    
C32   H11   1.064039 S    
C11   C39   1.518326 S    
O2    Cu2   1.924758 S    
C41   H27   1.114812 S    
C43   H33   1.110993 S    
Cu2   N2    2.026591 S    
O4    Cu2   1.915984 S    
C44   H38   1.110859 S    
C28   C32   1.398958 A    
C14   C16   1.429286 A    
C33   H8    1.071604 S    
O2    C1    1.311873 A    
C35   C36   1.528119 S    
C45   H36   1.110552 S    
C23   H7    1.086316 S    
C44   C45   1.530914 S    
O4    C2    1.300017 A    
C28   N2    1.378704 A    
C3    C10   1.483892 S    
Cu1   N1    2.038540 S    
Cu1   Cu2   2.704874 S    
O9    C41   1.412401 S    
C25   H10   1.083429 S    
C42   C43   1.526327 S    
Cu2   O6    1.945302 S    
C37   C38   1.530178 S    
N1    C33   1.373641 A    
C37   H20   1.105925 S    
