data_mof_unit_42132.cif
_audit_creation_date              2012-12-10T20:41:54-0500
_audit_creation_method            fapswitch 2.2
_symmetry_space_group_name_H-M    P1
_symmetry_Int_Tables_number       1
_space_group_crystal_system       triclinic
_cell_length_a                    14.905224
_cell_length_b                    15.695847
_cell_length_c                    10.017024
_cell_angle_alpha                 89.703951
_cell_angle_beta                  93.654588
_cell_angle_gamma                 89.758108
_cell_volume                      2338.66279486

loop_
_atom_site_label
_atom_site_type_symbol
_atom_type_description
_atom_site_fract_x
_atom_site_fract_y
_atom_site_fract_z
_atom_type_partial_charge
C1    C     C_R   0.384821 0.876000 0.496880 0.892221
C2    C     C_R   0.931569 0.537765 0.065633 0.065935
C3    C     C_R   0.571517 0.970325 0.078390 0.034566
C4    C     C_R   0.071506 0.470290 0.078387 0.034549
C5    C     C_R   0.570174 0.968512 0.935471 0.495084
C6    C     C_R   0.070178 0.468519 0.935472 0.495024
C7    C     C_R   0.429447 0.034254 0.923364 0.055553
C8    C     C_R   0.929415 0.534186 0.923368 0.055404
C9    C     C_3   0.334154 0.001481 0.925550 0.166585
C10   C     C_3   0.834160 0.501315 0.925644 0.166534
C11   C     C_3   0.335891 0.015815 0.074428 -0.447230
C12   C     C_R   0.385075 0.124020 0.497213 0.897819
C13   C     C_3   0.835884 0.515806 0.074485 -0.446997
C14   C     C_R   0.620576 0.119335 0.501738 0.882707
C15   C     C_R   0.621381 0.881359 0.502579 0.887047
C16   C     C_R   0.120592 0.619318 0.501741 0.882521
C17   C     C_R   0.121393 0.381373 0.502590 0.886990
C18   C     C_R   0.332759 0.258806 0.595134 -0.039137
C19   C     C_R   0.336991 0.734444 0.580704 -0.044958
C20   C     C_R   0.832706 0.758772 0.595310 -0.038696
C21   C     C_R   0.836986 0.234427 0.580710 -0.044779
C22   C     C_R   0.332216 0.201451 0.488813 -0.251484
C23   C     C_R   0.884836 0.375988 0.496881 0.892062
C24   C     C_R   0.330254 0.799508 0.484845 -0.265782
C25   C     C_R   0.832296 0.701516 0.488845 -0.251727
C26   C     C_R   0.830280 0.299486 0.484841 -0.265858
C27   C     C_R   0.276302 0.220393 0.373843 0.541079
C28   C     C_R   0.267711 0.788556 0.374496 0.558879
C29   C     C_R   0.776509 0.720560 0.373779 0.541011
C30   C     C_R   0.767756 0.288525 0.374466 0.558858
C31   C     C_R   0.704584 0.775789 0.384266 -0.306097
C32   C     C_R   0.696961 0.231773 0.384484 -0.308631
C33   C     C_R   0.204381 0.275616 0.384398 -0.305962
C34   C     C_R   0.885101 0.624041 0.497221 0.897667
C35   C     C_R   0.196937 0.731784 0.384525 -0.308697
C36   C     C_R   0.693894 0.820641 0.502620 -0.166693
C37   C     C_R   0.691235 0.181656 0.499689 -0.161094
C38   C     C_R   0.193865 0.320615 0.502662 -0.166516
C39   C     C_R   0.191260 0.681628 0.499695 -0.160920
C40   C     C_R   0.762914 0.816235 0.603556 -0.078563
C41   C     C_R   0.764848 0.180210 0.592421 -0.049494
C42   C     C_R   0.263048 0.316349 0.603393 -0.079083
C43   C     C_R   0.264891 0.680174 0.592406 -0.049666
C44   C     C_3   0.767216 0.806058 0.753807 0.364278
C45   C     C_3   0.348553 0.248017 0.742707 0.241986
C46   C     C_3   0.774799 0.186218 0.742046 0.278781
C47   C     C_3   0.267704 0.306496 0.753723 0.364310
C48   C     C_3   0.274851 0.686175 0.742042 0.278761
C49   C     C_3   0.326616 0.236557 0.167196 -0.309391
C50   C     C_3   0.317419 0.777965 0.166406 -0.364531
C51   C     C_3   0.826874 0.736690 0.167133 -0.309189
C52   C     C_3   0.817779 0.277774 0.166593 -0.364476
C53   C     C_3   0.647982 0.704086 0.732783 -0.182903
C54   C     C_3   0.665808 0.299747 0.737527 -0.291525
C55   C     C_3   0.148197 0.204784 0.733942 -0.183033
C56   C     C_3   0.359247 0.737793 0.727047 0.288073
C57   C     C_3   0.165712 0.799579 0.737571 -0.292106
C58   C     C_3   0.480228 0.235783 0.878003 -0.291991
C59   C     C_3   0.456768 0.698521 0.903759 -0.359493
C60   C     C_3   0.980063 0.735510 0.877861 -0.292370
C61   C     C_3   0.956622 0.198096 0.903768 -0.361480
C62   C     C_3   0.701010 0.003652 0.851554 -0.301556
C63   C     C_3   0.201001 0.503716 0.851588 -0.300584
C64   C     C_3   0.848247 0.747799 0.742901 0.241253
C65   C     C_3   0.859271 0.237736 0.727055 0.288028
C66   C     C_R   0.431579 0.037780 0.065633 0.065964
H1    H     H_    0.293003 0.069488 0.100395 0.255558
H2    H     H_    0.793828 0.125242 0.789884 0.104099
H3    H     H_    0.288250 0.365666 0.805986 0.151511
H4    H     H_    0.293967 0.625215 0.789885 0.103989
H5    H     H_    0.338275 0.182412 0.778592 0.143679
H6    H     H_    0.359972 0.802339 0.762606 0.155630
H7    H     H_    0.838067 0.682141 0.778609 0.143930
H8    H     H_    0.860131 0.302280 0.762655 0.155738
H9    H     H_    0.400796 0.233259 0.186501 0.175908
H10   H     H_    0.303872 0.304002 0.174320 0.153563
H11   H     H_    0.309038 0.216820 0.062794 0.206855
H12   H     H_    0.326709 0.958180 0.135756 0.250232
H13   H     H_    0.324978 0.709691 0.197750 0.152926
H14   H     H_    0.385568 0.802933 0.151269 0.182135
H15   H     H_    0.277305 0.777936 0.069590 0.209083
H16   H     H_    0.901057 0.733285 0.186332 0.176021
H17   H     H_    0.804240 0.804164 0.174346 0.153382
H18   H     H_    0.809200 0.717001 0.062735 0.206761
H19   H     H_    0.825574 0.209580 0.198280 0.152887
H20   H     H_    0.885851 0.302904 0.151380 0.182270
H21   H     H_    0.777690 0.277453 0.069756 0.208950
H22   H     H_    0.691543 0.667965 0.667323 0.106715
H23   H     H_    0.793005 0.569532 0.100311 0.255437
H24   H     H_    0.591724 0.734287 0.671938 0.220672
H25   H     H_    0.619252 0.656408 0.798885 0.195017
H26   H     H_    0.609842 0.277527 0.668395 0.212612
H27   H     H_    0.713607 0.338759 0.683268 0.152043
H28   H     H_    0.635847 0.343222 0.809276 0.187193
H29   H     H_    0.191438 0.168502 0.668219 0.106963
H30   H     H_    0.091787 0.234984 0.673429 0.221211
H31   H     H_    0.119669 0.157264 0.800504 0.194833
H32   H     H_    0.109744 0.777304 0.668494 0.212329
H33   H     H_    0.213442 0.838638 0.683253 0.152236
H34   H     H_    0.826702 0.458234 0.135964 0.250299
H35   H     H_    0.135729 0.843023 0.809345 0.187189
H36   H     H_    0.512722 0.184266 0.822507 0.220764
H37   H     H_    0.439510 0.208608 0.956190 0.130202
H38   H     H_    0.533247 0.274002 0.931517 0.201394
H39   H     H_    0.396389 0.688073 0.961334 0.145850
H40   H     H_    0.486787 0.761787 0.927573 0.198059
H41   H     H_    0.505884 0.648658 0.938119 0.196887
H42   H     H_    0.012448 0.684227 0.821720 0.220883
H43   H     H_    0.939612 0.708041 0.956109 0.130521
H44   H     H_    0.033170 0.773629 0.931359 0.201519
H45   H     H_    0.656151 0.781419 0.299349 0.189949
H46   H     H_    0.896166 0.187750 0.961211 0.146300
H47   H     H_    0.986832 0.261242 0.927867 0.197953
H48   H     H_    0.005528 0.148028 0.938032 0.196835
H49   H     H_    0.702811 0.983835 0.136411 0.171270
H50   H     H_    0.667206 0.881773 0.121921 0.200665
H51   H     H_    0.202853 0.483508 0.136384 0.171323
H52   H     H_    0.166964 0.381526 0.121923 0.200830
H53   H     H_    0.761542 0.998520 0.921680 0.136142
H54   H     H_    0.671017 0.068521 0.861329 0.178152
H55   H     H_    0.722866 0.997785 0.748168 0.187171
H56   H     H_    0.646472 0.227941 0.301910 0.186808
H57   H     H_    0.261529 0.498596 0.921726 0.135912
H58   H     H_    0.170989 0.568575 0.861368 0.178131
H59   H     H_    0.222838 0.497887 0.748190 0.186924
H60   H     H_    0.270577 0.038422 0.748706 0.206387
H61   H     H_    0.203754 0.034400 0.876708 0.178166
H62   H     H_    0.375816 0.877863 0.947788 0.158767
H63   H     H_    0.264013 0.891514 0.927218 0.201026
H64   H     H_    0.703710 0.534026 0.876683 0.178212
H65   H     H_    0.770559 0.538023 0.748698 0.206298
H66   H     H_    0.764213 0.391229 0.927752 0.201393
H67   H     H_    0.155856 0.281177 0.299575 0.189832
H68   H     H_    0.876059 0.377761 0.948067 0.158930
H69   H     H_    0.146414 0.727980 0.301994 0.186809
H70   H     H_    0.787505 0.865138 0.806510 0.152315
N1    N     N_R   0.499140 0.000000 0.142800 -0.126069
N2    N     N_3   0.825280 0.411813 0.893939 -0.453365
N3    N     N_R   0.999140 0.500000 0.142800 -0.126068
N4    N     N_R   0.499160 0.000000 0.857150 -0.166583
N5    N     N_R   0.999160 0.500000 0.857150 -0.166672
N6    N     N_3   0.650307 0.942435 0.154916 -0.380955
N7    N     N_3   0.150237 0.442241 0.154900 -0.380936
N8    N     N_3   0.267375 0.053374 0.849903 -0.466515
N9    N     N_3   0.325157 0.912030 0.893595 -0.453178
N10   N     N_3   0.767309 0.553055 0.849858 -0.466239
O1    O     O_R   0.408400 0.908380 0.614690 -0.623432
O2    O     O_R   0.591610 0.908390 0.614650 -0.556237
O3    O     O_R   0.091610 0.591610 0.614650 -0.624683
O4    O     O_R   0.091610 0.408390 0.614650 -0.556481
O5    O     O_R   0.591590 0.091600 0.385310 -0.618674
O6    O     O_R   0.591590 0.908400 0.385310 -0.609821
O7    O     O_R   0.091590 0.591600 0.385310 -0.618648
O8    O     O_R   0.091590 0.408400 0.385310 -0.609761
O9    O     O_3   0.285049 0.179939 0.254153 -0.615702
O10   O     O_3   0.274732 0.831961 0.256101 -0.607544
O11   O     O_3   0.785289 0.680093 0.254100 -0.615658
O12   O     O_R   0.408400 0.091620 0.614690 -0.646600
O13   O     O_3   0.774888 0.331817 0.256000 -0.607617
O14   O     O_3   0.693621 0.766050 0.813410 -0.591691
O15   O     O_3   0.706457 0.229933 0.809215 -0.654228
O16   O     O_3   0.194203 0.266793 0.813996 -0.591669
O17   O     O_3   0.206464 0.729807 0.809237 -0.654264
O18   O     O_3   0.429113 0.289104 0.788542 -0.625757
O19   O     O_3   0.437903 0.690742 0.764283 -0.621416
O20   O     O_3   0.928612 0.789052 0.789185 -0.625768
O21   O     O_3   0.937854 0.190563 0.764234 -0.621260
O22   O     O_3   0.642597 0.936067 0.875318 -0.569318
O23   O     O_R   0.908400 0.408380 0.614690 -0.623582
O24   O     O_3   0.142616 0.436105 0.875315 -0.568596
O25   O     O_R   0.908400 0.591620 0.614690 -0.646809
O26   O     O_R   0.408370 0.908370 0.385350 -0.573776
O27   O     O_R   0.408370 0.091630 0.385350 -0.561589
O28   O     O_R   0.908370 0.408370 0.385350 -0.573747
O29   O     O_R   0.908370 0.591630 0.385350 -0.561445
O30   O     O_R   0.591610 0.091610 0.614650 -0.624504
Zn1   Zn    Zn3+2 0.500010 0.000000 0.653130 0.979852
Zn2   Zn    Zn3+2 0.000010 0.500000 0.653130 0.979509
Zn3   Zn    Zn3+2 0.499980 1.000000 0.346870 0.981123
Zn4   Zn    Zn3+2 0.999980 0.500000 0.346870 0.981091

loop_
_geom_bond_atom_site_label_1
_geom_bond_atom_site_label_2
_ccdc_geom_bond_type
C19   C56   S    
C44   H70   S    
C62   O22   S    
C21   C26   A    
C8    C10   S    
O2    Zn1   S    
O8    Zn4   S    
H64   N10   S    
O23   Zn2   S    
C17   O4    A    
C58   O18   S    
C50   H13   S    
C4    N7    S    
C63   H58   S    
C23   O28   A    
C27   C33   A    
C46   H2    S    
C59   H39   S    
C2    N3    A    
C52   H19   S    
H51   N7    S    
C45   O18   S    
C60   H43   S    
C18   C42   A    
C15   O2    A    
C20   C40   A    
H62   N9    S    
C23   C26   S    
C45   H5    S    
C20   C25   A    
O27   Zn3   S    
H66   N2    S    
C57   H33   S    
C12   C22   S    
C11   H1    S    
H65   N10   S    
C48   C56   S    
C5    O22   S    
C9    N9    S    
C2    C13   S    
C47   H3    S    
C54   H27   S    
C64   O20   S    
N3    Zn4   S    
C47   O16   S    
C28   C35   A    
C50   O10   S    
C56   H6    S    
C46   O15   S    
C57   O17   S    
C14   O5    A    
C53   H25   S    
C14   O30   A    
C41   C46   S    
C49   H9    S    
O25   Zn2   S    
C16   O3    A    
C58   H36   S    
C43   C48   S    
H63   N9    S    
C59   O19   S    
C11   C66   S    
C25   C34   S    
O4    Zn2   S    
C13   H23   S    
C52   O13   S    
O7    Zn4   S    
C25   C29   A    
C3    N6    S    
C17   O8    A    
C15   O6    A    
C9    N8    S    
C19   C43   A    
C45   C47   S    
C27   O9    S    
C30   O13   S    
C59   H40   S    
N5    Zn2   S    
C32   H56   S    
C36   C40   A    
C46   C65   S    
C55   H29   S    
H52   N7    S    
C35   H69   S    
C48   O17   S    
C16   O7    A    
C63   O24   S    
C29   O11   S    
C51   O11   S    
C59   H41   S    
C65   H8    S    
C50   H14   S    
C61   O21   S    
C20   C64   S    
C51   H17   S    
C35   C39   A    
C54   H26   S    
C11   H12   S    
O12   Zn1   S    
O1    Zn1   S    
O5    Zn3   S    
C23   O23   A    
C64   H7    S    
C55   H31   S    
N4    Zn1   S    
C49   H10   S    
C32   C37   A    
C6    N5    A    
C9    C11   S    
C51   H16   S    
C62   H53   S    
C63   H59   S    
C10   N10   S    
H50   N6    S    
O26   Zn3   S    
C4    C6    A    
O30   Zn1   S    
C26   C30   A    
C22   C27   A    
C61   H47   S    
C44   O14   S    
C8    N5    A    
C21   C41   A    
C1    O1    A    
C58   H38   S    
C44   C64   S    
C18   C45   S    
O28   Zn4   S    
C15   C36   S    
C53   H24   S    
C56   O19   S    
C5    N4    A    
C6    O24   S    
C7    C9    S    
H49   N6    S    
C53   O14   S    
C34   O29   A    
C21   C65   S    
C18   C22   A    
C62   H54   S    
C49   O9    S    
C52   H21   S    
C2    C8    A    
C24   C28   A    
C55   O16   S    
C48   H4    S    
C55   H30   S    
C3    C5    A    
C10   C13   S    
C60   H42   S    
H68   N2    S    
C63   H57   S    
N1    Zn3   S    
C38   C42   A    
O29   Zn4   S    
C57   H35   S    
C65   O21   S    
C1    O26   A    
C33   C38   A    
O6    Zn3   S    
C52   H20   S    
C19   C24   A    
C29   C31   A    
C14   C37   S    
C30   C32   A    
C7    N4    A    
C66   N1    A    
C13   H34   S    
C3    N1    A    
H60   N8    S    
O3    Zn2   S    
C49   H11   S    
C53   H22   S    
H61   N8    S    
C54   O15   S    
C37   C41   A    
C57   H32   S    
C54   H28   S    
C60   H44   S    
C16   C39   S    
C33   H67   S    
C40   C44   S    
C42   C47   S    
C17   C38   S    
C39   C43   A    
C1    C24   S    
C60   O20   S    
C61   H48   S    
C28   O10   S    
C31   H45   S    
C31   C36   A    
C58   H37   S    
C10   N2    S    
C12   O12   A    
C61   H46   S    
C51   H18   S    
C62   H55   S    
C34   O25   A    
C50   H15   S    
C12   O27   A    
C4    N3    A    
C7    C66   A    
