data_mof_unit_44062.cif
_audit_creation_date              2012-12-11T16:29:28-0500
_audit_creation_method            fapswitch 2.2
_symmetry_space_group_name_H-M    P1
_symmetry_Int_Tables_number       1
_space_group_crystal_system       triclinic
_cell_length_a                    6.953822
_cell_length_b                    17.292813
_cell_length_c                    18.785148
_cell_angle_alpha                 106.32086
_cell_angle_beta                  89.324267
_cell_angle_gamma                 90.219373
_cell_volume                      2167.7562227

loop_
_atom_site_label
_atom_site_type_symbol
_atom_type_description
_atom_site_fract_x
_atom_site_fract_y
_atom_site_fract_z
_atom_type_partial_charge
O1    O     O_R   0.494360 0.415680 0.413760 -0.532777
O2    O     O_R   0.818810 0.432910 0.557230 -0.514187
O3    O     O_R   0.994290 0.584320 0.586240 -0.526989
C1    C     C_R   0.649738 0.415834 0.580512 0.740328
O4    O     O_R   0.823740 0.406440 0.412520 -0.538480
O5    O     O_R   0.999250 0.557660 0.440500 -0.528786
C2    C     C_R   0.655975 0.382539 0.385836 0.684545
O6    O     O_R   0.489400 0.442340 0.559500 -0.511431
O7    O     O_3   0.662500 0.549650 0.509350 -0.363419
V1    V     V_3+5 0.935340 0.490790 0.498270 1.471877
O8    O     O_R   0.329270 0.567090 0.442770 -0.526090
C3    C     C_R   0.161280 0.584110 0.419448 0.700443
O9    O     O_R   0.324340 0.593560 0.587480 -0.529504
C4    C     C_R   0.154648 0.614307 0.616622 0.753067
V2    V     V_3+5 0.435970 0.509210 0.501730 1.467939
O10   O     O_3   0.158940 0.450350 0.490650 -0.347361
H1    H     H_    0.979049 0.858695 0.553427 0.159234
C5    C     C_R   0.208390 0.590958 0.768421 0.104543
C6    C     C_R   0.261148 0.584554 0.838122 -0.104406
C7    C     C_R   0.272838 0.651953 0.898539 -0.156113
C8    C     C_R   0.226838 0.727076 0.891075 -0.138584
C9    C     C_R   0.176313 0.737266 0.821560 0.056532
C10   C     C_R   0.175579 0.668734 0.757300 0.028808
C11   C     C_R   0.123097 0.814595 0.816476 -0.154564
C12   C     C_R   0.080566 0.825561 0.746551 0.037078
C13   C     C_R   0.092324 0.759377 0.681451 0.066100
C14   C     C_R   0.140398 0.681154 0.686327 -0.169838
C15   C     C_R   0.030504 0.902495 0.739887 -0.180102
C16   C     C_R   0.993823 0.914091 0.670833 0.216778
C17   C     C_R   0.006652 0.849667 0.607122 -0.118465
C18   C     C_R   0.055464 0.773312 0.612015 -0.179370
H2    H     H_    0.288403 0.526077 0.846377 0.145500
H3    H     H_    0.311785 0.645599 0.952248 0.126890
H4    H     H_    0.231411 0.777062 0.940858 0.101128
H5    H     H_    0.020747 0.954538 0.787886 0.121190
H6    H     H_    0.063993 0.725591 0.560565 0.106919
C19   C     C_1   0.111135 0.864130 0.132816 -0.161134
C20   C     C_1   0.118401 0.821672 0.176486 0.108421
C21   C     C_1   0.127937 0.771591 0.228484 0.085784
C22   C     C_1   0.136222 0.729327 0.272304 0.028572
C23   C     C_1   0.145926 0.679016 0.324110 0.010174
C24   C     C_1   0.153575 0.636298 0.367555 -0.207111
C25   C     C_1   0.641132 0.363716 0.632379 -0.151687
C26   C     C_1   0.637023 0.321019 0.675860 0.051936
C27   C     C_1   0.633767 0.270677 0.727648 0.045290
C28   C     C_1   0.631401 0.228249 0.771375 0.053599
C29   C     C_1   0.628320 0.177824 0.823097 0.061248
C30   C     C_1   0.624348 0.135076 0.866534 -0.151873
H7    H     H_    0.620687 0.122467 0.442132 0.182758
C31   C     C_R   0.709205 0.410424 0.243280 -0.145112
C32   C     C_R   0.706805 0.429290 0.176198 -0.142092
C33   C     C_R   0.637785 0.373523 0.113452 -0.095832
C34   C     C_R   0.582213 0.296582 0.116045 0.104023
C35   C     C_R   0.617732 0.271036 0.180513 0.040080
C36   C     C_R   0.660449 0.332201 0.247113 0.051116
C37   C     C_R   0.611707 0.188703 0.181782 -0.137162
C38   C     C_R   0.618395 0.170958 0.251237 -0.002061
C39   C     C_R   0.630598 0.234422 0.318485 0.074404
C40   C     C_R   0.650290 0.315161 0.316309 -0.142339
C41   C     C_R   0.609677 0.090449 0.255234 -0.236676
C42   C     C_R   0.610290 0.072900 0.323469 0.522907
C43   C     C_R   0.619287 0.135440 0.389008 -0.162911
C44   C     C_R   0.628949 0.215220 0.386793 -0.221216
H8    H     H_    0.751309 0.457596 0.291900 0.108676
H9    H     H_    0.745340 0.489323 0.174065 0.127370
H10   H     H_    0.613743 0.392489 0.064030 0.140367
H11   H     H_    0.601929 0.040416 0.205533 0.148552
H12   H     H_    0.637932 0.261568 0.439146 0.117683
O11   O     O_R   0.775690 0.057750 0.940570 -0.525451
O12   O     O_R   0.441200 0.093570 0.087490 -0.519581
O13   O     O_R   0.265840 0.942320 0.059480 -0.522019
C45   C     C_R   0.609040 0.120525 0.112073 0.736804
O14   O     O_R   0.446270 0.067110 0.942790 -0.513678
O15   O     O_R   0.270950 0.915660 0.913750 -0.537765
C46   C     C_R   0.615409 0.083222 0.918659 0.738482
O16   O     O_R   0.770580 0.084400 0.086300 -0.530600
O17   O     O_3   0.602640 0.950400 0.990690 -0.366485
V3    V     V_3+5 0.329740 0.009200 0.001730 1.496126
O18   O     O_R   0.940900 0.906360 0.912450 -0.538558
C47   C     C_R   0.110706 0.884008 0.884587 0.682267
O19   O     O_R   0.935830 0.932820 0.057160 -0.524580
C48   C     C_R   0.103745 0.915995 0.080646 0.706052
V4    V     V_3+5 0.829130 0.990680 0.998180 1.470224
O20   O     O_3   0.106100 0.049590 0.009310 -0.344343
I1    I     I_    0.367704 0.246882 0.037398 -0.411544
S1    S     S_3+6 0.603934 0.972170 0.326836 0.003697
O21   O     O_2   0.503500 0.920209 0.259846 -0.349558
O22   O     O_2   0.806833 0.942908 0.327854 -0.323968
O23   O     O_3   0.487541 0.966621 0.404247 -0.487405
H13   H     H_    0.501163 0.909745 0.404666 0.371478
I2    I     I_    0.156774 0.475137 0.693499 -0.406214
I3    I     I_    0.921385 0.029611 0.662654 -0.377566

loop_
_geom_bond_atom_site_label_1
_geom_bond_atom_site_label_2
_ccdc_geom_bond_type
C36   C40   A    
O12   V3    S    
C31   H8    S    
C23   C24   T    
C35   C36   A    
C6    C7    A    
C45   O16   A    
O19   C48   A    
O17   V3    S    
C26   C27   S    
C12   C15   A    
C13   C14   A    
C16   C17   A    
C5    I2    S    
C15   C16   A    
O5    C3    A    
C17   C18   A    
S1    O22   D    
O17   V4    S    
V2    O10   S    
C37   C38   A    
C5    C6    A    
C32   H9    S    
C3    C24   S    
C28   C29   S    
O8    V2    S    
C11   C47   S    
C29   C30   T    
C41   H11   S    
C37   C45   S    
O14   V3    S    
O1    V2    S    
C10   C14   A    
C4    C14   S    
O7    V1    S    
C1    O6    A    
O13   C48   A    
C13   C18   A    
O15   C47   A    
O9    C4    A    
H1    C17   S    
O14   C46   A    
C30   C46   S    
C6    H2    S    
O16   V4    S    
C2    C40   S    
O19   V4    S    
C9    C10   A    
C35   C37   A    
C5    C10   A    
C11   C12   A    
C15   H5    S    
C21   C22   T    
O4    C2    A    
S1    O21   D    
C38   C41   A    
C8    H4    S    
C12   C13   A    
C34   C35   A    
C32   C33   A    
C41   C42   A    
O2    C1    A    
C25   C26   T    
C19   C20   T    
O11   V4    S    
V3    O20   S    
V4    O20   S    
C43   C44   A    
C31   C32   A    
O3    C4    A    
C7    H3    S    
C22   C23   S    
O6    V2    S    
O9    V2    S    
C9    C11   A    
C19   C48   S    
O2    V1    S    
C33   H10   S    
C33   C34   A    
C39   C44   A    
C44   H12   S    
H7    C43   S    
O1    C2    A    
S1    O23   S    
O5    V1    S    
O12   C45   A    
O8    C3    A    
C1    C25   S    
C31   C36   A    
C39   C40   A    
O4    V1    S    
O3    V1    S    
V1    O10   S    
O18   V4    S    
C38   C39   A    
C20   C21   S    
O11   C46   A    
O13   V3    S    
O7    V2    S    
C42   C43   A    
C42   S1    S    
O18   C47   A    
C27   C28   T    
C7    C8    A    
O15   V3    S    
C18   H6    S    
C34   I1    S    
O23   H13   S    
C8    C9    A    
C16   I3    S    
