data_mof_unit_38922.cif
_audit_creation_date              2013-03-05T15:52:31-0500
_audit_creation_method            fapswitch 2.2
_symmetry_space_group_name_H-M    P1
_symmetry_Int_Tables_number       1
_space_group_crystal_system       triclinic
_cell_length_a                    6.952458
_cell_length_b                    20.513074
_cell_length_c                    24.344338
_cell_angle_alpha                 89.906298
_cell_angle_beta                  90.480009
_cell_angle_gamma                 89.691692
_cell_volume                      3471.72205222

loop_
_atom_site_label
_atom_site_type_symbol
_atom_site_description
_atom_site_fract_x
_atom_site_fract_y
_atom_site_fract_z
_atom_type_partial_charge
O1    O     O_R   0.507310 0.423620 0.460450 -0.583985
O2    O     O_R   0.170760 0.556060 0.437190 -0.585007
O3    O     O_R   0.004040 0.576380 0.539550 -0.594382
C1    C     C_R   0.338910 0.576117 0.421226 0.986323
O4    O     O_R   0.177350 0.422870 0.454070 -0.580070
O5    O     O_R   0.010680 0.442240 0.556560 -0.583096
C2    C     C_R   0.345843 0.398713 0.443600 0.998020
O6    O     O_R   0.500670 0.557760 0.443440 -0.591129
O7    O     O_3   0.340380 0.506510 0.533610 -0.277124
V1    V     V_3+5 0.064130 0.498790 0.493770 1.221102
O8    O     O_R   0.681170 0.443940 0.562810 -0.584615
C3    C     C_R   0.850582 0.423871 0.578625 0.969576
O9    O     O_R   0.674570 0.577130 0.545930 -0.594180
C4    C     C_R   0.843161 0.601011 0.556693 0.943700
V2    V     V_3+5 0.564560 0.501210 0.506230 1.211424
O10   O     O_3   0.838170 0.493490 0.466390 -0.262628
C5    C     C_R   0.977686 0.837732 0.911682 -0.184690
C6    C     C_R   0.851638 0.661960 0.588647 -0.151459
C7    C     C_R   0.054500 0.722275 0.907341 0.337024
C8    C     C_R   0.038096 0.780228 0.937125 -0.237257
C9    C     C_R   0.938338 0.838031 0.855096 -0.141573
C10   C     C_R   0.970950 0.781794 0.822259 0.121674
C11   C     C_R   0.014631 0.722394 0.850030 -0.011754
C12   C     C_R   0.953939 0.781962 0.763146 -0.078225
C13   C     C_R   0.941925 0.721034 0.734361 0.070793
C14   C     C_R   0.968848 0.663038 0.764770 -0.175785
C15   C     C_R   0.009662 0.663935 0.820606 -0.104715
C16   C     C_R   0.953101 0.840377 0.731490 0.301137
C17   C     C_R   0.903559 0.838650 0.675854 -0.194468
C18   C     C_R   0.880857 0.779876 0.647424 -0.081276
C19   C     C_R   0.905427 0.719904 0.676106 0.102602
C20   C     C_R   0.838884 0.780078 0.590172 0.381393
C21   C     C_R   0.821164 0.721148 0.561924 -0.252694
C22   C     C_R   0.892837 0.661131 0.645120 -0.209434
H1    H     H_    0.790362 0.721616 0.518190 0.154016
H2    H     H_    0.074685 0.780636 0.980507 0.176371
H3    H     H_    0.962324 0.615341 0.746608 0.129195
C23   C     C_3   0.815618 0.269413 0.808232 0.277012
C24   C     C_3   0.128815 0.227933 0.771182 -0.532826
C25   C     C_3   0.111039 0.276415 0.721644 0.213740
H4    H     H_    0.866096 0.364830 0.769950 0.200774
H5    H     H_    0.217564 0.184467 0.760894 0.246352
C26   C     C_1   0.862249 0.377822 0.623834 -0.200898
C27   C     C_3   0.927149 0.206153 0.790710 0.051130
C28   C     C_3   0.797882 0.317680 0.758622 -0.650049
C29   C     C_3   0.894518 0.289386 0.706253 0.004754
C30   C     C_3   0.786604 0.223753 0.693526 0.209302
C31   C     C_3   0.826162 0.173544 0.740615 -0.419410
C32   C     C_1   0.875070 0.338416 0.661051 0.144607
C33   C     C_1   0.948138 0.159238 0.837326 0.155847
C34   C     C_1   0.961690 0.121168 0.875478 -0.146328
H6    H     H_    0.919512 0.133206 0.725528 0.237860
H7    H     H_    0.629602 0.234536 0.693722 0.139180
C35   C     C_3   0.604578 0.719035 0.279359 -0.485936
C36   C     C_3   0.283797 0.683122 0.237229 0.090971
C37   C     C_3   0.333256 0.728446 0.187457 0.038148
C38   C     C_1   0.474502 0.878845 0.124776 -0.134830
C39   C     C_3   0.387519 0.706937 0.290770 0.101250
C40   C     C_3   0.631591 0.772675 0.234003 0.173574
C41   C     C_3   0.431921 0.792751 0.208651 -0.064276
C42   C     C_3   0.308959 0.822138 0.255917 -0.240631
C43   C     C_3   0.296856 0.774054 0.305437 -0.426928
C44   C     C_1   0.457811 0.840556 0.162702 0.187355
C45   C     C_1   0.363677 0.659785 0.337222 0.078833
C46   C     C_1   0.348822 0.621509 0.375275 -0.227133
H8    H     H_    0.372687 0.795214 0.341623 0.243980
C47   C     C_R   0.475303 0.162349 0.089143 -0.467357
C48   C     C_R   0.350246 0.337616 0.411712 -0.204005
C49   C     C_R   0.561355 0.277103 0.096986 0.287497
C50   C     C_R   0.562341 0.218348 0.067205 0.211029
C51   C     C_R   0.403491 0.163553 0.143412 0.283398
C52   C     C_R   0.427958 0.220606 0.176666 -0.028207
C53   C     C_R   0.480639 0.279503 0.150397 -0.237684
C54   C     C_R   0.403890 0.221314 0.235150 0.049513
C55   C     C_R   0.388429 0.281617 0.263961 -0.087525
C56   C     C_R   0.382624 0.339954 0.232442 0.193497
C57   C     C_R   0.442048 0.339431 0.177223 0.270823
C58   C     C_R   0.413455 0.163431 0.266079 -0.150498
C59   C     C_R   0.378181 0.162119 0.322415 0.328673
C60   C     C_R   0.339943 0.220982 0.350600 -0.170730
C61   C     C_R   0.372072 0.281073 0.322900 0.111608
C62   C     C_R   0.278609 0.221991 0.406293 0.382034
C63   C     C_R   0.285065 0.280384 0.435942 -0.214005
C64   C     C_R   0.395157 0.337800 0.355724 -0.106232
H9    H     H_    0.460025 0.118450 0.247375 0.198630
O11   O     O_R   0.323590 0.942280 0.056590 -0.577717
O12   O     O_R   0.647030 0.077140 0.045940 -0.584977
O13   O     O_R   0.813570 0.057750 0.943430 -0.571857
C65   C     C_R   0.478642 0.101174 0.056690 1.147426
O14   O     O_R   0.653510 0.943950 0.062820 -0.581572
O15   O     O_R   0.820100 0.923600 0.960440 -0.603095
C66   C     C_R   0.485246 0.924010 0.078802 0.994865
O16   O     O_R   0.317060 0.076430 0.039590 -0.568575
O17   O     O_3   0.483830 0.993520 0.966410 -0.281629
V3    V     V_3+5 0.760140 0.001200 0.006230 1.286861
O18   O     O_R   0.149560 0.922820 0.954030 -0.592037
C67   C     C_R   0.981259 0.898841 0.943434 0.968533
O19   O     O_R   0.143080 0.056020 0.937150 -0.584249
C68   C     C_R   0.973649 0.076062 0.921332 0.997503
V4    V     V_3+5 0.259690 0.998730 0.993720 1.285427
O20   O     O_3   0.986120 0.006480 0.033580 -0.251458
H10   H     H_    0.029342 0.617437 0.840954 0.186761
N1    N     N_R   0.818577 0.839594 0.559509 0.240604
O21   O     O_R   0.674604 0.846778 0.525505 -0.308312
O22   O     O_R   0.962798 0.879564 0.556396 -0.299577
H11   H     H_    0.903369 0.293693 0.840709 0.124404
H12   H     H_    0.205272 0.252507 0.805628 0.226489
H13   H     H_    0.172936 0.323664 0.735646 0.092733
N2    N     N_R   0.224208 0.254695 0.674323 0.256967
O23   O     O_R   0.240191 0.193176 0.661973 -0.299067
O24   O     O_R   0.320036 0.297242 0.645981 -0.403044
H14   H     H_    0.688711 0.150464 0.752693 0.216684
H15   H     H_    0.913998 0.613708 0.663223 0.101438
N3    N     N_R   0.625142 0.257364 0.832073 0.251435
O25   O     O_R   0.554328 0.199004 0.836367 -0.401609
O26   O     O_R   0.530823 0.305915 0.853453 -0.332183
H16   H     H_    0.643938 0.328995 0.749576 0.226370
N4    N     N_R   0.826969 0.194235 0.639645 0.285342
O27   O     O_R   0.746488 0.138979 0.627253 -0.250773
O28   O     O_R   0.913025 0.226183 0.600812 -0.297824
H17   H     H_    0.721218 0.750705 0.201048 0.126987
H18   H     H_    0.675544 0.673218 0.266073 0.211355
H19   H     H_    0.126116 0.687366 0.244867 0.110275
N5    N     N_R   0.324627 0.614508 0.224570 0.271017
O29   O     O_R   0.496027 0.595351 0.210563 -0.297949
O30   O     O_R   0.184478 0.572740 0.223704 -0.242462
H20   H     H_    0.440065 0.703370 0.160873 0.149375
N6    N     N_R   0.159841 0.738960 0.153284 0.238625
O31   O     O_R   0.080621 0.796142 0.147122 -0.396686
O32   O     O_R   0.083326 0.689458 0.128084 -0.279998
H21   H     H_    0.143616 0.767922 0.317214 0.190232
H22   H     H_    0.370648 0.869197 0.269979 0.237947
H23   H     H_    0.679112 0.732116 0.318316 0.214801
N7    N     N_R   0.735374 0.830033 0.255043 0.247366
O33   O     O_R   0.816328 0.869723 0.220627 -0.347585
O34   O     O_R   0.730106 0.846129 0.306725 -0.346590
H24   H     H_    0.161756 0.833378 0.241005 0.242931
N8    N     N_R   0.429639 0.398845 0.146149 0.279397
O35   O     O_R   0.301129 0.405053 0.107308 -0.241989
O36   O     O_R   0.547557 0.446488 0.156153 -0.195035
H25   H     H_    0.449799 0.382541 0.338840 0.156134
H26   H     H_    0.236340 0.281454 0.478121 0.184270
N9    N     N_R   0.407878 0.101573 0.351164 0.269630
O37   O     O_R   0.518544 0.099637 0.394531 -0.264810
O38   O     O_R   0.353048 0.047013 0.328926 -0.272383
N10   N     N_R   0.655303 0.332941 0.074111 0.276109
O39   O     O_R   0.802791 0.358106 0.099398 -0.268561
O40   O     O_R   0.606896 0.354404 0.025570 -0.229196
H27   H     H_    0.893980 0.884612 0.654243 0.231737
N11   N     N_R   0.650026 0.216029 0.013928 0.255742
O41   O     O_R   0.828243 0.233521 0.007896 -0.327647
O42   O     O_R   0.552341 0.196197 0.971354 -0.340145
N12   N     N_R   0.288115 0.110022 0.162084 0.232705
O43   O     O_R   0.351667 0.050344 0.159183 -0.413253
O44   O     O_R   0.118714 0.121075 0.182534 -0.343890
N13   N     N_R   0.288177 0.397300 0.252998 0.247347
O45   O     O_R   0.377814 0.452737 0.255064 -0.288314
O46   O     O_R   0.113960 0.393480 0.271830 -0.342662
N14   N     N_R   0.190897 0.166317 0.431607 0.264875
O47   O     O_R   0.212207 0.156085 0.484091 -0.236722
O48   O     O_R   0.064002 0.132483 0.404490 -0.285195
N15   N     N_R   0.119222 0.664537 0.935659 0.242030
O49   O     O_R   0.060904 0.652865 0.985354 -0.273579
O50   O     O_R   0.262016 0.630579 0.916331 -0.348772
H28   H     H_    0.881111 0.882593 0.837815 0.150796
N16   N     N_R   0.029360 0.900506 0.752356 0.230742
O51   O     O_R   0.949401 0.955843 0.738868 -0.360144
O52   O     O_R   0.195813 0.900770 0.777239 -0.379838

loop_
_geom_bond_atom_site_label_1
_geom_bond_atom_site_label_2
_geom_bond_distance
_ccdc_geom_bond_type
C39   C43   1.554461 S    
C36   C37   1.567635 S    
C13   C19   1.438871 A    
C38   C66   1.454411 S    
C4    C6    1.474759 S    
C7    C11   1.420179 A    
C7    C8    1.398112 A    
C50   N11   1.438489 S    
C1    O6    1.297552 A    
N6    O31   1.301084 A    
N3    O25   1.301253 A    
O14   V3    1.961592 S    
C28   C29   1.557618 S    
C22   H15   1.076179 S    
C24   H12   1.112048 S    
C29   C32   1.494380 S    
C14   C15   1.386438 A    
C41   C44   1.498991 S    
C10   C12   1.442938 A    
C16   C17   1.395284 A    
N10   O39   1.301171 A    
C3    C26   1.450660 S    
N2    O24   1.301390 A    
O5    C3    1.297427 A    
C18   C19   1.422351 A    
C23   N3    1.472269 S    
C27   C33   1.492471 S    
V2    O10   2.147676 S    
C51   N12   1.438683 S    
C47   C65   1.484130 S    
C5    C8    1.392615 A    
C9    H28   1.078384 S    
C37   H20   1.113499 S    
N4    O27   1.301523 A    
C23   C28   1.564089 S    
C42   H22   1.111784 S    
C2    C48   1.475631 S    
C36   N5    1.468049 S    
O8    V2    1.974937 S    
C30   N4    1.474064 S    
C59   N9    1.437688 S    
N14   O47   1.301576 A    
O12   V3    1.996008 S    
N14   O48   1.301590 A    
C49   C53   1.421308 A    
O1    V2    1.984667 S    
C11   C15   1.398257 A    
N12   O44   1.301411 A    
O11   V4    1.964191 S    
O7    V1    2.151063 S    
N15   O50   1.301405 A    
C57   N8    1.435225 S    
C16   N16   1.437044 S    
C25   H13   1.115295 S    
C35   H18   1.109080 S    
O13   V3    1.956856 S    
C40   C41   1.567238 S    
O9    C4    1.297673 A    
N16   O52   1.301738 A    
C49   N10   1.435529 S    
C49   C50   1.407536 A    
O15   C67   1.298877 A    
C38   C44   1.217878 T    
C24   H5    1.111675 S    
N10   O40   1.301389 A    
C35   C40   1.570644 S    
C10   C11   1.422616 A    
C39   C45   1.497703 S    
C36   H19   1.116430 S    
C19   C22   1.425895 A    
C54   C55   1.427017 A    
C43   H8    1.112800 S    
C48   C64   1.400835 A    
C56   C57   1.409665 A    
C52   C53   1.417360 A    
C60   C62   1.424855 A    
C24   C25   1.565542 S    
O4    C2    1.296904 A    
C58   C59   1.395494 A    
C26   C32   1.215612 T    
N7    O34   1.302032 A    
C13   C14   1.410954 A    
C35   H23   1.110866 S    
O15   V3    1.989150 S    
C56   N13   1.436823 S    
C5    C9    1.402185 A    
C37   C41   1.575700 S    
C41   C42   1.559289 S    
C7    N15   1.437668 S    
C23   H11   1.114375 S    
O2    C1    1.303561 A    
C55   C56   1.420702 A    
C23   C27   1.569610 S    
C17   C18   1.400167 A    
C34   C68   1.450308 S    
O14   C66   1.303642 A    
C30   C31   1.561516 S    
O17   V4    1.702237 S    
O18   C67   1.295840 A    
C33   C34   1.215200 T    
C20   N1    1.435633 S    
O17   V3    2.151155 S    
N1    O22   1.301261 A    
C12   C13   1.436336 A    
C6    C22   1.402007 A    
O16   V4    1.987881 S    
N7    O33   1.300860 A    
O3    C4    1.297287 A    
N8    O36   1.300988 A    
C58   H9    1.078949 S    
C52   C54   1.435011 A    
C31   H14   1.110375 S    
O19   C68   1.300603 A    
O6    V2    1.963868 S    
O19   V4    1.975011 S    
O9    V2    1.987397 S    
N16   O51   1.301664 A    
N11   O42   1.301324 A    
C25   C29   1.569457 S    
C24   C27   1.551973 S    
O2    V1    1.961666 S    
C61   C64   1.421720 A    
N5    O30   1.301023 A    
N15   O49   1.301398 A    
C35   C39   1.557865 S    
C28   H16   1.114044 S    
N9    O38   1.301581 A    
C29   C30   1.574760 S    
N13   O45   1.300531 A    
H4    C28   1.113572 S    
C40   N7    1.473861 S    
O1    C2    1.299486 A    
C48   C63   1.392669 A    
C43   H21   1.113341 S    
C55   C61   1.440293 A    
C12   C16   1.423583 A    
C60   C61   1.423662 A    
N6    O32   1.301099 A    
O5    V1    1.956691 S    
C63   H26   1.084157 S    
N3    O26   1.301219 A    
O8    C3    1.300636 A    
C14   H3    1.075366 S    
C25   N2    1.468934 S    
C15   H10   1.081569 S    
V3    O20   1.705284 S    
C30   H7    1.112618 S    
C47   C50   1.407780 A    
C45   C46   1.218758 T    
O12   C65   1.296713 A    
O7    V2    1.703283 S    
O4    V1    1.995873 S    
O3    V1    1.989036 S    
V1    O10   1.705465 S    
N2    O23   1.302137 A    
C20   C21   1.397243 A    
C18   C20   1.421569 A    
C62   N14   1.437835 S    
C42   H24   1.106029 S    
C1    C46   1.456604 S    
C64   H25   1.077356 S    
O18   V4    1.987436 S    
N13   O46   1.301387 A    
V4    O20   2.147697 S    
C21   H1    1.084244 S    
C47   C51   1.416454 A    
C37   N6    1.473776 S    
C65   O16   1.300747 A    
C42   C43   1.559486 S    
C6    C21   1.390899 A    
N4    O28   1.301100 A    
O13   C68   1.297308 A    
N8    O35   1.301071 A    
C17   H27   1.080383 S    
C59   C60   1.414822 A    
C8    H2    1.084296 S    
C27   C31   1.555963 S    
C31   H6    1.113549 S    
C51   C52   1.434209 A    
C62   C63   1.400234 A    
C54   C58   1.405902 A    
C36   C39   1.564526 S    
N1    O21   1.301164 A    
C53   C57   1.418350 A    
N11   O41   1.301237 A    
O11   C66   1.296393 A    
N12   O43   1.301454 A    
C9    C10   1.422830 A    
C40   H17   1.114260 S    
C5    C67   1.473990 S    
N9    O37   1.301563 A    
N5    O29   1.301132 A    
