data_mof_unit_33852.cif
_audit_creation_date              2012-12-10T18:10:22-0500
_audit_creation_method            fapswitch 2.2
_symmetry_space_group_name_H-M    P1
_symmetry_Int_Tables_number       1
_space_group_crystal_system       triclinic
_cell_length_a                    10.725596
_cell_length_b                    9.420468
_cell_length_c                    15.876956
_cell_angle_alpha                 89.661513
_cell_angle_beta                  89.925821
_cell_angle_gamma                 90.001535
_cell_volume                      1604.18042052

loop_
_atom_site_label
_atom_site_type_symbol
_atom_type_description
_atom_site_fract_x
_atom_site_fract_y
_atom_site_fract_z
_atom_type_partial_charge
C1    C     C_R   0.259655 0.500212 0.499674 0.755723
C2    C     C_3   0.641922 0.556632 0.952121 0.884215
C3    C     C_3   0.639895 0.535635 0.050317 -0.395270
C4    C     C_1   0.504449 0.501427 0.824807 -0.117164
C5    C     C_1   0.503672 0.503906 0.174978 -0.087429
C6    C     C_1   0.501845 0.502004 0.250541 -0.210413
C7    C     C_3   0.071236 0.655317 0.492699 -0.376763
C8    C     C_3   0.071524 0.433076 0.581904 -0.384013
C9    C     C_3   0.928530 0.655172 0.491637 -0.380761
C10   C     C_3   0.927615 0.434062 0.582107 -0.384620
C11   C     C_3   0.071972 0.415467 0.423263 -0.381539
C12   C     C_3   0.121671 0.500974 0.499372 0.173104
C13   C     C_3   0.878005 0.500973 0.499235 0.173412
C14   C     C_R   0.500167 0.500466 0.340222 0.832255
C15   C     C_3   0.928074 0.414504 0.423567 -0.382681
C16   C     C_3   0.627268 0.083780 0.489075 -0.184895
C17   C     C_3   0.627203 0.916569 0.488848 -0.188732
C18   C     C_3   0.452548 0.083038 0.582498 -0.185631
C19   C     C_3   0.452613 0.915601 0.582526 -0.185785
C20   C     C_3   0.420309 0.084262 0.433901 -0.188332
C21   C     C_3   0.420145 0.916902 0.434000 -0.189562
C22   C     C_R   0.740079 0.500222 0.499542 0.762013
C23   C     C_R   0.499939 0.499563 0.659800 0.841644
C24   C     C_3   0.415707 0.620788 0.047978 -0.372239
C25   C     C_3   0.465232 0.359184 0.049337 -0.406680
C26   C     C_3   0.463149 0.361364 0.952237 -0.461021
C27   C     C_3   0.410701 0.616376 0.950245 -0.412515
C28   C     C_1   0.501744 0.498866 0.749328 -0.217309
C29   C     C_3   0.505949 0.505400 0.082770 0.227994
C30   C     C_3   0.508363 0.507943 0.916844 0.180750
Cu1   Cu    Cu3+1 0.499860 0.642410 0.500040 0.887280
Cu2   Cu    Cu3+1 0.499860 0.357590 0.500040 0.889597
H1    H     H_    0.315157 0.585772 0.929843 0.171311
H2    H     H_    0.365484 0.342200 0.931330 0.187556
H3    H     H_    0.895184 0.705147 0.432049 0.156540
H4    H     H_    0.892633 0.323376 0.589226 0.159528
H5    H     H_    0.106461 0.463380 0.363363 0.145833
H6    H     H_    0.106734 0.304202 0.426017 0.159434
H7    H     H_    0.892790 0.460573 0.363436 0.146222
H8    H     H_    0.894403 0.302866 0.427394 0.159963
H9    H     H_    0.690439 0.120963 0.539912 0.138774
H10   H     H_    0.690658 0.878136 0.539335 0.140863
H11   H     H_    0.666804 0.123918 0.428639 0.136193
H12   H     H_    0.666395 0.877998 0.428228 0.136677
H13   H     H_    0.511255 0.119717 0.635772 0.143095
H14   H     H_    0.511344 0.878281 0.635830 0.140771
H15   H     H_    0.323074 0.123379 0.440957 0.135270
H16   H     H_    0.322861 0.877949 0.441351 0.135339
H17   H     H_    0.453308 0.122360 0.371380 0.145255
H18   H     H_    0.452750 0.879478 0.371496 0.144755
H19   H     H_    0.320308 0.603953 0.073843 0.165007
H20   H     H_    0.370744 0.331972 0.073685 0.178009
H21   H     H_    0.530189 0.275080 0.071902 0.162230
H22   H     H_    0.447383 0.727603 0.068548 0.175524
H23   H     H_    0.514607 0.269457 0.926782 0.150788
H24   H     H_    0.426618 0.724592 0.924349 0.174770
H25   H     H_    0.676340 0.632347 0.082039 0.172410
H26   H     H_    0.703601 0.449529 0.071243 0.131301
H27   H     H_    0.106485 0.707296 0.434161 0.155695
H28   H     H_    0.105392 0.321804 0.588079 0.161012
H29   H     H_    0.104235 0.719218 0.547106 0.161135
H30   H     H_    0.106666 0.492814 0.637308 0.146743
H31   H     H_    0.893621 0.720949 0.544586 0.164950
H32   H     H_    0.893137 0.495395 0.637149 0.155555
N1    N     N_3   0.500250 0.143650 0.501830 -0.111590
N2    N     N_3   0.500250 0.856350 0.501830 -0.110999
O1    O     O_R   0.317570 0.620260 0.500050 -0.596769
O2    O     O_R   0.317570 0.379740 0.500050 -0.595749
O3    O     O_R   0.499890 0.620310 0.379470 -0.585040
O4    O     O_R   0.499890 0.379690 0.379470 -0.585582
O5    O     O_R   0.682190 0.620260 0.500020 -0.597543
O6    O     O_R   0.682190 0.379740 0.500020 -0.598119
O7    O     O_R   0.499870 0.620210 0.620600 -0.588124
O8    O     O_R   0.499870 0.379790 0.620600 -0.585165
H33   H     H_    0.356554 0.122754 0.594703 0.134917
H34   H     H_    0.356675 0.875567 0.594857 0.135110
O9    O     O_3   0.660704 0.706741 0.941557 -0.639760
C31   C     C_3   0.668281 0.762058 0.857876 0.063361
H35   H     H_    0.676291 0.878929 0.864793 0.156489
H36   H     H_    0.581014 0.748838 0.822056 0.123638
C32   C     C_3   0.782593 0.712912 0.806989 -0.276529
H37   H     H_    0.867863 0.721889 0.846298 0.239008
H38   H     H_    0.770696 0.601388 0.786509 0.237759
C33   C     C_3   0.799388 0.800761 0.726718 -1.023583
H39   H     H_    0.718763 0.784469 0.684113 0.266690
H40   H     H_    0.885571 0.766307 0.693934 0.254368
H41   H     H_    0.808021 0.915279 0.741145 0.255958
O10   O     O_3   0.749198 0.488187 0.917472 -0.643499
C34   C     C_3   0.747247 0.338717 0.914079 -0.029899
H42   H     H_    0.692991 0.304698 0.858189 0.158665
H43   H     H_    0.710160 0.289621 0.972537 0.146667
C35   C     C_3   0.880969 0.286312 0.902808 -0.319853
H44   H     H_    0.920427 0.331616 0.843674 0.215619
H45   H     H_    0.938863 0.322984 0.956487 0.220062
C36   C     C_3   0.886276 0.124725 0.898672 -0.937685
H46   H     H_    0.851356 0.077061 0.958363 0.261725
H47   H     H_    0.984039 0.089915 0.888604 0.253587
H48   H     H_    0.828485 0.086586 0.845601 0.248720

loop_
_geom_bond_atom_site_label_1
_geom_bond_atom_site_label_2
_ccdc_geom_bond_type
Cu1   N2    S    
C18   H33   S    
C21   N2    S    
C36   H46   S    
C33   H41   S    
C26   H23   S    
C32   H37   S    
C19   H14   S    
Cu2   O6    S    
O9    C31   S    
C27   H1    S    
C18   N1    S    
Cu1   O1    S    
C17   N2    S    
C19   H34   S    
C33   H40   S    
Cu2   O8    S    
C5    C6    T    
C31   H36   S    
Cu1   O7    S    
C24   H22   S    
C1    O2    A    
C19   N2    S    
C11   H5    S    
C18   C19   S    
C7    H27   S    
C3    C29   S    
C9    C13   S    
C24   C29   S    
C7    H29   S    
C32   H38   S    
C17   H10   S    
C11   C15   S    
C26   H2    S    
C16   C17   S    
C24   C27   S    
C2    O10   S    
C34   H43   S    
Cu2   O2    S    
C21   H16   S    
C24   H19   S    
Cu1   O5    S    
C27   C30   S    
C14   O4    A    
C1    C12   S    
C23   O7    A    
C22   O6    A    
C21   H18   S    
C4    C28   T    
C5    C29   S    
C25   C29   S    
C7    C12   S    
C36   H48   S    
C20   N1    S    
C33   H39   S    
C27   H24   S    
Cu2   O4    S    
C25   C26   S    
C35   C36   S    
C11   H6    S    
C20   H17   S    
C6    C14   S    
Cu1   Cu2   S    
C8    C12   S    
C35   H45   S    
C23   C28   S    
C20   C21   S    
C34   C35   S    
C16   H11   S    
C15   H7    S    
C3    H25   S    
C26   C30   S    
C13   C15   S    
C14   O3    A    
C23   O8    A    
C18   H13   S    
C22   O5    A    
C32   C33   S    
C7    C9    S    
C9    H31   S    
C10   H32   S    
C25   H21   S    
C10   C13   S    
C11   C12   S    
C36   H47   S    
C2    C30   S    
C2    C3    S    
C25   H20   S    
C2    O9    S    
C8    H28   S    
C31   H35   S    
C31   C32   S    
C35   H44   S    
C1    O1    A    
C13   C22   S    
C15   H8    S    
C17   H12   S    
C20   H15   S    
C3    H26   S    
Cu1   O3    S    
O10   C34   S    
C8    C10   S    
C9    H3    S    
C10   H4    S    
C16   N1    S    
C34   H42   S    
C16   H9    S    
C4    C30   S    
C8    H30   S    
Cu2   N1    S    
