data_mof_unit_39241.cif
_audit_creation_date              2012-12-11T15:14:51-0500
_audit_creation_method            fapswitch 2.2
_symmetry_space_group_name_H-M    P1
_symmetry_Int_Tables_number       1
_space_group_crystal_system       triclinic
_cell_length_a                    11.204743
_cell_length_b                    11.327463
_cell_length_c                    18.372887
_cell_angle_alpha                 89.219988
_cell_angle_beta                  90.870847
_cell_angle_gamma                 120.557912
_cell_volume                      2007.7662991

loop_
_atom_site_label
_atom_site_type_symbol
_atom_type_description
_atom_site_fract_x
_atom_site_fract_y
_atom_site_fract_z
_atom_type_partial_charge
C1    C     C_R   0.538615 0.433097 0.637682 0.541800
C2    C     C_R   0.458311 0.519713 0.353715 0.533919
C3    C     C_R   0.474830 0.926912 0.142248 0.538956
C4    C     C_R   0.069398 0.545170 0.356286 0.538535
C5    C     C_3   0.404253 0.013302 0.466447 0.173773
C6    C     C_3   0.627131 0.565794 0.045003 0.177702
C7    C     C_3   0.004236 0.389769 0.480337 0.168093
C8    C     C_3   0.382840 0.981157 0.014975 0.161865
C9    C     C_3   0.629488 0.585996 0.467399 0.164573
C10   C     C_3   0.003808 0.398601 0.024486 0.162977
C11   C     C_3   0.096553 0.465002 0.958517 0.156306
C12   C     C_R   0.935223 0.479088 0.854485 0.531331
C13   C     C_3   0.557280 0.610942 0.530012 0.183019
C14   C     C_3   0.430191 0.924585 0.954154 0.158327
C15   C     C_3   0.098453 0.484463 0.540057 0.146844
C16   C     C_3   0.596144 0.604147 0.969637 0.167653
C17   C     C_3   0.394573 0.946331 0.540864 0.183527
C18   C     C_3   0.545013 0.137305 0.487277 -0.188850
C19   C     C_3   0.587025 0.423471 0.017760 -0.163310
C20   C     C_3   0.880496 0.390786 0.512486 -0.135990
C21   C     C_3   0.489492 0.126311 0.992504 -0.170437
C22   C     C_3   0.602936 0.451631 0.502603 -0.168183
C23   C     C_R   0.574564 0.119140 0.636898 0.543469
C24   C     C_3   0.893370 0.424965 0.990916 -0.134041
C25   C     C_3   0.169290 0.605825 0.997333 -0.103478
C26   C     C_3   0.417706 0.534635 0.488501 -0.083734
C27   C     C_3   0.532991 0.913502 0.007141 -0.143957
C28   C     C_3   0.133226 0.610663 0.491435 -0.115460
C29   C     C_3   0.447396 0.556808 0.993475 -0.143948
C30   C     C_3   0.464568 0.871246 0.510222 -0.136704
C31   C     C_3   0.536046 0.067838 0.562051 0.032391
C32   C     C_3   0.548427 0.458750 0.941694 0.015411
C33   C     C_3   0.977942 0.491391 0.570662 0.045081
C34   C     C_R   0.549008 0.422448 0.863268 0.533886
C35   C     C_3   0.541502 0.068657 0.934613 0.039725
C36   C     C_3   0.525453 0.474145 0.564566 0.052155
C37   C     C_3   0.990277 0.495697 0.926790 0.052752
C38   C     C_3   0.072120 0.538632 0.062311 0.026487
C39   C     C_3   0.491568 0.506552 0.427716 0.036995
C40   C     C_3   0.486925 0.975380 0.067745 0.049690
C41   C     C_3   0.033027 0.512739 0.432427 0.029227
C42   C     C_3   0.480147 0.517121 0.068008 0.055648
C43   C     C_3   0.476352 0.941171 0.435994 0.037481
C44   C     C_3   0.607166 0.994816 0.530829 -0.131140
C45   C     C_R   0.932468 0.478588 0.644691 0.526192
C46   C     C_3   0.401005 0.409079 0.968602 -0.133334
C47   C     C_3   0.008941 0.615470 0.522926 -0.117882
C48   C     C_3   0.645778 0.062257 0.987046 -0.146425
C49   C     C_3   0.387342 0.396765 0.522957 -0.120329
C50   C     C_3   0.059132 0.634953 0.963959 -0.110782
C51   C     C_3   0.963238 0.566966 0.028564 -0.164874
C52   C     C_3   0.462893 0.372209 0.461369 -0.190496
C53   C     C_3   0.595558 0.121769 0.046682 -0.169407
C54   C     C_3   0.910538 0.515684 0.464045 -0.167746
C55   C     C_3   0.437951 0.373566 0.043113 -0.163687
C56   C     C_R   0.577401 0.120467 0.861721 0.543259
C57   C     C_3   0.617102 0.063351 0.456997 -0.156163
C58   C     C_3   0.203411 0.046532 0.467139 -0.333282
C59   C     C_3   0.760893 0.585964 0.156851 -0.286371
C60   C     C_3   0.961089 0.158721 0.506288 -0.341510
C61   C     C_3   0.209122 0.998733 0.088845 -0.271130
C62   C     C_3   0.871442 0.784718 0.452809 -0.329576
C63   C     C_3   0.904057 0.215316 0.120116 -0.264434
C64   C     C_3   0.201308 0.437129 0.845022 -0.281835
C65   C     C_3   0.622003 0.758366 0.642781 -0.300908
C66   C     C_3   0.375875 0.781824 0.843491 -0.317557
C67   C     C_R   0.432980 0.537835 0.137021 0.531647
C68   C     C_3   0.256251 0.532276 0.645238 -0.334238
C69   C     C_3   0.674219 0.789049 0.874635 -0.284251
C70   C     C_3   0.276234 0.830477 0.656124 -0.283986
C71   C     C_R   0.457645 0.883525 0.363135 0.550096
C72   C     C_R   0.117526 0.574456 0.137860 0.548257
Cr1   Cr    Cr6+3 0.769930 0.543130 0.750000 0.960465
Cr2   Cr    Cr6+3 0.773200 0.230070 0.750000 0.953070
Cr3   Cr    Cr6+3 0.456870 0.226800 0.750000 0.955123
Cr4   Cr    Cr6+3 0.543130 0.769930 0.250000 0.989318
Cr5   Cr    Cr6+3 0.230070 0.773200 0.250000 0.985820
Cr6   Cr    Cr6+3 0.226800 0.456870 0.250000 0.976411
H1    H     H_    0.696721 0.997721 0.557538 0.138588
H2    H     H_    0.834820 0.519201 0.426592 0.135269
H3    H     H_    0.372324 0.278943 0.074508 0.132910
H4    H     H_    0.710625 0.112535 0.422283 0.174022
H5    H     H_    0.589875 0.238993 0.463341 0.108509
H6    H     H_    0.647406 0.378289 0.036918 0.109743
H7    H     H_    0.785676 0.299348 0.530509 0.108433
H8    H     H_    0.448808 0.190303 0.972451 0.123147
H9    H     H_    0.677654 0.424442 0.522956 0.099245
H10   H     H_    0.786027 0.345974 0.978052 0.100784
H11   H     H_    0.275092 0.685115 0.012075 0.121186
H12   H     H_    0.306761 0.325113 0.943201 0.175423
H13   H     H_    0.340783 0.563850 0.473293 0.116004
H14   H     H_    0.553460 0.828841 0.016449 0.127774
H15   H     H_    0.227738 0.699744 0.471704 0.120506
H16   H     H_    0.396977 0.612176 0.975685 0.115185
H17   H     H_    0.427274 0.763874 0.522357 0.135975
H18   H     H_    0.326778 0.072208 0.378040 0.260210
H19   H     H_    0.151274 0.085113 0.430162 0.139356
H20   H     H_    0.261590 0.122142 0.509971 0.139509
H21   H     H_    0.124085 0.952176 0.493930 0.145381
H22   H     H_    0.757074 0.747361 0.100989 0.270827
H23   H     H_    0.015801 0.708502 0.545605 0.150130
H24   H     H_    0.853022 0.661872 0.188272 0.161134
H25   H     H_    0.775782 0.499740 0.142065 0.140734
H26   H     H_    0.669923 0.543296 0.192832 0.175959
H27   H     H_    0.088919 0.289931 0.424745 0.278904
H28   H     H_    0.886602 0.061512 0.479759 0.142774
H29   H     H_    0.911080 0.172397 0.554506 0.157490
H30   H     H_    0.051935 0.153012 0.525801 0.112359
H31   H     H_    0.185758 0.935275 0.982255 0.231350
H32   H     H_    0.170500 0.065870 0.067910 0.099460
H33   H     H_    0.301797 0.060885 0.123662 0.160647
H34   H     H_    0.754780 0.096967 0.973027 0.161560
H35   H     H_    0.126505 0.916884 0.122621 0.177108
H36   H     H_    0.751399 0.644221 0.372140 0.248671
H37   H     H_    0.957164 0.774687 0.430434 0.170768
H38   H     H_    0.871295 0.777833 0.512995 0.140841
H39   H     H_    0.889599 0.885952 0.435201 0.147619
H40   H     H_    0.071955 0.262480 0.053532 0.256154
H41   H     H_    0.819110 0.109017 0.110048 0.163407
H42   H     H_    0.861390 0.278986 0.138954 0.159341
H43   H     H_    0.969976 0.210290 0.164416 0.155499
H44   H     H_    0.072871 0.284664 0.917314 0.256001
H45   H     H_    0.289682 0.317205 0.547571 0.148812
H46   H     H_    0.172237 0.348475 0.808829 0.149944
H47   H     H_    0.315499 0.495487 0.848472 0.165112
H48   H     H_    0.163761 0.500368 0.818985 0.141132
H49   H     H_    0.706029 0.818834 0.538919 0.252369
H50   H     H_    0.612323 0.847679 0.656299 0.159092
H51   H     H_    0.722364 0.776784 0.665531 0.161889
H52   H     H_    0.534686 0.669187 0.669272 0.160297
H53   H     H_    0.273702 0.878203 0.878122 0.256776
H54   H     H_    0.289853 0.724492 0.804258 0.116739
H55   H     H_    0.404881 0.712107 0.868790 0.141416
H56   H     H_    0.070955 0.726976 0.935791 0.140607
H57   H     H_    0.462782 0.862559 0.812123 0.189214
H58   H     H_    0.118640 0.344371 0.604886 0.257676
H59   H     H_    0.314003 0.489579 0.673547 0.170596
H60   H     H_    0.187386 0.536975 0.686122 0.125689
H61   H     H_    0.330723 0.633690 0.623108 0.163719
H62   H     H_    0.799003 0.737692 0.936502 0.265298
H63   H     H_    0.768702 0.846085 0.840937 0.129987
H64   H     H_    0.644233 0.863151 0.891679 0.173431
H65   H     H_    0.591553 0.708798 0.840387 0.161483
H66   H     H_    0.237130 0.957842 0.593561 0.249968
H67   H     H_    0.926264 0.628452 0.053385 0.191859
H68   H     H_    0.186513 0.725791 0.658365 0.155626
H69   H     H_    0.262848 0.885966 0.701781 0.162557
H70   H     H_    0.375103 0.832030 0.665221 0.148379
H71   H     H_    0.426146 0.284183 0.424790 0.138672
H72   H     H_    0.655856 0.200929 0.087789 0.105352
N1    N     N_2   0.294305 0.018036 0.426273 -0.485732
N2    N     N_2   0.177219 0.443744 0.586410 -0.526822
N3    N     N_2   0.704312 0.732216 0.938314 -0.518011
N4    N     N_2   0.273121 0.891427 0.587023 -0.518574
N5    N     N_2   0.743967 0.651810 0.092041 -0.536286
N6    N     N_2   0.002760 0.269232 0.454198 -0.509987
N7    N     N_2   0.238714 0.936457 0.028773 -0.508581
N8    N     N_2   0.742984 0.681338 0.421587 -0.504195
N9    N     N_2   0.984342 0.270528 0.054512 -0.533497
N10   N     N_2   0.143207 0.388652 0.916691 -0.537562
N11   N     N_2   0.619584 0.743758 0.564571 -0.542773
N12   N     N_2   0.330596 0.837218 0.899360 -0.517902
O1    O     O_R   0.913270 0.574260 0.668550 -0.535934
O2    O     O_R   0.574260 0.913270 0.331450 -0.509445
O3    O     O_R   0.086730 0.660990 0.168550 -0.529987
O4    O     O_R   0.339010 0.425740 0.331450 -0.532429
O5    O     O_R   0.640160 0.530400 0.673300 -0.509844
O6    O     O_R   0.890240 0.359840 0.826700 -0.515675
O7    O     O_R   0.469600 0.109760 0.673300 -0.507883
O8    O     O_R   0.640160 0.530400 0.826700 -0.498404
O9    O     O_R   0.890240 0.359840 0.673300 -0.525902
O10   O     O_R   0.469600 0.109760 0.826700 -0.524536
O11   O     O_R   0.530400 0.640160 0.173300 -0.518843
O12   O     O_R   0.660990 0.086730 0.831450 -0.539490
O13   O     O_R   0.359840 0.890240 0.326700 -0.494630
O14   O     O_R   0.109760 0.469600 0.173300 -0.511614
O15   O     O_R   0.530400 0.640160 0.326700 -0.500884
O16   O     O_R   0.359840 0.890240 0.173300 -0.508667
O17   O     O_R   0.109760 0.469600 0.326700 -0.506903
O18   O     O_3   0.666667 0.333333 0.750000 -0.317557
O19   O     O_3   0.333333 0.666667 0.250000 -0.313736
O20   O     O_R   0.425740 0.339010 0.668550 -0.540477
O21   O     O_R   0.913270 0.574260 0.831450 -0.538621
O22   O     O_R   0.660990 0.086730 0.668550 -0.547064
O23   O     O_R   0.425740 0.339010 0.831450 -0.541572
O24   O     O_R   0.574260 0.913270 0.168550 -0.535748
O25   O     O_R   0.086730 0.660990 0.331450 -0.521220
O26   O     O_R   0.339010 0.425740 0.168550 -0.532413

loop_
_geom_bond_atom_site_label_1
_geom_bond_atom_site_label_2
_ccdc_geom_bond_type
C27   C48   S    
C21   C53   S    
C28   C47   S    
C13   C26   S    
C47   H23   S    
C29   C42   S    
C33   C45   S    
C72   O3    A    
C68   H60   S    
C58   H20   S    
C63   N9    S    
Cr1   O5    S    
H31   N7    S    
Cr2   O6    S    
C65   H52   S    
C68   H59   S    
Cr4   O24   S    
C67   O26   A    
C6    C19   S    
C59   H26   S    
C4    O25   A    
Cr4   O11   S    
C3    O16   A    
Cr2   O12   S    
C51   H67   S    
C29   H16   S    
C25   C38   S    
C9    C22   S    
C12   O21   A    
C5    C17   S    
C4    C41   S    
C1    O5    A    
C69   H63   S    
C49   H45   S    
C28   C41   S    
C9    C39   S    
C66   N12   S    
C12   C37   S    
C11   C37   S    
C9    C13   S    
C25   C50   S    
H36   N8    S    
C62   H39   S    
C63   H42   S    
C63   H43   S    
Cr1   O18   S    
C2    C39   S    
C7    N6    S    
C35   C48   S    
C52   H71   S    
C46   C55   S    
Cr3   O7    S    
Cr5   O19   S    
C62   N8    S    
C16   C32   S    
C70   H68   S    
C2    O15   A    
C14   C27   S    
C55   H3    S    
C2    O4    A    
C54   H2    S    
C6    N5    S    
C60   H30   S    
H62   N3    S    
C24   C51   S    
C7    C15   S    
C39   C52   S    
C5    C43   S    
Cr5   O13   S    
C56   O10   A    
Cr6   O14   S    
C17   C30   S    
C30   C44   S    
H40   N9    S    
Cr3   O23   S    
C58   H19   S    
C8    N7    S    
C45   O9    A    
C15   N2    S    
H58   N2    S    
C11   N10   S    
C24   C37   S    
C66   H54   S    
C46   H12   S    
C48   C53   S    
C38   C72   S    
Cr6   O4    S    
C31   C44   S    
Cr6   O17   S    
C65   H50   S    
C43   C71   S    
C13   C36   S    
C20   C54   S    
Cr4   O15   S    
C71   O2    A    
C26   C49   S    
C14   C35   S    
C59   N5    S    
C38   C51   S    
H53   N12   S    
C10   C24   S    
C69   H64   S    
C64   H46   S    
H18   N1    S    
C69   N3    S    
C18   C31   S    
C56   O12   A    
C28   H15   S    
C23   C31   S    
C14   N12   S    
C34   O23   A    
C60   N6    S    
C62   H38   S    
C30   H17   S    
C68   N2    S    
C61   N7    S    
C42   C55   S    
C66   H55   S    
C63   H41   S    
C18   C57   S    
C23   O7    A    
C44   C57   S    
C49   C52   S    
C19   C32   S    
C20   H7    S    
C64   N10   S    
C18   H5    S    
Cr2   O18   S    
C27   H14   S    
C50   C51   S    
C22   H9    S    
C61   H32   S    
Cr3   O18   S    
C24   H10   S    
Cr2   O9    S    
C60   H29   S    
C47   C54   S    
C21   C35   S    
C20   C33   S    
H22   N5    S    
C48   H34   S    
C3    C40   S    
C40   C53   S    
C64   H47   S    
C64   H48   S    
C50   H56   S    
C53   H72   S    
C33   C47   S    
C30   C43   S    
Cr4   O2    S    
Cr6   O26   S    
C4    O17   A    
Cr4   O19   S    
C61   H33   S    
C3    O24   A    
Cr3   O10   S    
C60   H28   S    
C58   N1    S    
C22   C52   S    
C19   C55   S    
H66   N4    S    
C21   H8    S    
C8    C14   S    
C27   C40   S    
C35   C56   S    
C70   N4    S    
C59   H24   S    
C32   C46   S    
C44   H1    S    
C58   H21   S    
C17   N4    S    
C15   C33   S    
C8    C21   S    
C12   O6    A    
C65   H51   S    
C1    O20   A    
C13   N11   S    
C5    C18   S    
C69   H65   S    
C22   C36   S    
C70   H70   S    
C25   H11   S    
Cr5   O16   S    
C5    N1    S    
C29   C46   S    
C10   C38   S    
Cr6   O19   S    
C59   H25   S    
C26   H13   S    
C62   H37   S    
Cr1   O1    S    
Cr1   O21   S    
C61   H35   S    
C37   C50   S    
C15   C28   S    
C42   C67   S    
C9    N8    S    
C67   O11   A    
C17   C31   S    
C71   O13   A    
C7    C41   S    
C45   O1    A    
C26   C39   S    
C72   O14   A    
C41   C54   S    
Cr5   O25   S    
C10   C11   S    
C43   C57   S    
C6    C16   S    
C66   H57   S    
C11   C25   S    
C23   O22   A    
H27   N6    S    
Cr2   O22   S    
C16   C29   S    
H49   N11   S    
C7    C20   S    
C6    C42   S    
C65   N11   S    
C16   N3    S    
H44   N10   S    
C57   H4    S    
C68   H61   S    
C70   H69   S    
C8    C40   S    
C34   O8    A    
Cr3   O20   S    
Cr5   O3    S    
C10   N9    S    
Cr1   O8    S    
C36   C49   S    
C19   H6    S    
C1    C36   S    
C32   C34   S    
