data_mof_unit_61032.cif
_audit_creation_date              2012-12-10T17:20:08-0500
_audit_creation_method            fapswitch 2.2
_symmetry_space_group_name_H-M    P1
_symmetry_Int_Tables_number       1
_space_group_crystal_system       triclinic
_cell_length_a                    10.27399
_cell_length_b                    10.673444
_cell_length_c                    14.137854
_cell_angle_alpha                 91.25433
_cell_angle_beta                  81.690529
_cell_angle_gamma                 95.420171
_cell_volume                      1527.15271922

loop_
_atom_site_label
_atom_site_type_symbol
_atom_type_description
_atom_site_fract_x
_atom_site_fract_y
_atom_site_fract_z
_atom_type_partial_charge
C1    C     C_R   0.555866 0.733438 0.497604 0.790319
C2    C     C_1   0.500377 0.499903 0.042615 0.030872
C3    C     C_2   0.587842 0.868440 0.509219 0.275884
C4    C     C_2   0.412820 0.132344 0.526833 0.248333
C5    C     C_2   0.493110 0.933912 0.555541 -0.121638
C6    C     C_2   0.507668 0.069383 0.553867 -0.130698
C7    C     C_2   0.923891 0.492402 0.522761 0.097641
C8    C     C_2   0.066969 0.471611 0.506386 0.104709
C9    C     C_2   0.102222 0.350697 0.462232 0.527431
C10   C     C_2   0.873979 0.555143 0.613007 0.543023
C11   C     C_R   0.444213 0.266646 0.508731 0.789280
C12   C     C_R   0.499739 0.500268 0.670531 0.879796
C13   C     C_R   0.500276 0.499735 0.329475 0.909404
C14   C     C_1   0.499301 0.500351 0.772128 -0.184278
C15   C     C_1   0.500807 0.499653 0.227858 -0.153321
C16   C     C_1   0.499463 0.500282 0.857431 0.004107
C17   C     C_1   0.500764 0.499717 0.142538 0.022329
C18   C     C_1   0.499936 0.500092 0.957342 0.026741
H1    H     H_    0.603537 0.116280 0.563684 0.182514
H2    H     H_    0.397093 0.888385 0.585054 0.175161
H3    H     H_    0.202182 0.710715 0.583664 0.377505
H4    H     H_    0.819968 0.381732 0.344696 0.380186
H5    H     H_    0.239142 0.129950 0.487861 0.353745
H6    H     H_    0.763183 0.865968 0.436598 0.365578
H7    H     H_    0.050374 0.263569 0.491286 0.018666
H8    H     H_    0.893649 0.519675 0.680379 0.000470
N1    N     N_2   0.842710 0.448890 0.464580 0.018813
N2    N     N_2   0.157290 0.551110 0.535420 0.018522
O1    O     O_R   0.431050 0.692470 0.507130 -0.631278
O2    O     O_3   0.895968 0.407212 0.378684 -0.668242
O3    O     O_3   0.292227 0.069939 0.514012 -0.737185
O4    O     O_3   0.709139 0.928647 0.472008 -0.734251
O5    O     O_2   0.179834 0.347833 0.388468 -0.514558
O6    O     O_2   0.820649 0.652411 0.612370 -0.507794
O7    O     O_R   0.568950 0.307530 0.492870 -0.621118
O8    O     O_R   0.651120 0.659650 0.484400 -0.548625
O9    O     O_R   0.348880 0.340350 0.515600 -0.609231
O10   O     O_R   0.389940 0.516410 0.637650 -0.603952
O11   O     O_R   0.610060 0.483590 0.362350 -0.608463
O12   O     O_R   0.610010 0.483590 0.614920 -0.599650
O13   O     O_R   0.389990 0.516410 0.385080 -0.525339
O14   O     O_3   0.121527 0.664878 0.565026 -0.663590
Zn1   Zn    Zn3+2 0.353060 0.521920 0.515180 1.012312
Zn2   Zn    Zn3+2 0.646940 0.478080 0.484820 1.009871

loop_
_geom_bond_atom_site_label_1
_geom_bond_atom_site_label_2
_ccdc_geom_bond_type
O9    Zn1   S    
C7    C10   S    
H6    O4    S    
C12   O12   A    
O11   Zn2   S    
C6    H1    S    
C2    C18   T    
N2    Zn1   S    
C10   H8    S    
C1    O1    A    
C9    H7    S    
C7    C8    S    
C10   O6    D    
C5    H2    S    
O1    Zn1   S    
C2    C17   S    
C9    O5    D    
O7    Zn2   S    
O13   Zn1   S    
C3    O4    S    
N1    Zn2   S    
C13   O13   A    
C12   C14   S    
C13   C15   S    
C12   O10   A    
C5    C6    S    
C8    N2    D    
C14   C16   T    
C13   O11   A    
C4    O3    S    
O8    Zn2   S    
H3    O14   S    
C3    C5    D    
O12   Zn2   S    
C7    N1    D    
C16   C18   S    
C4    C6    D    
N2    O14   S    
C11   O9    A    
N1    O2    S    
H4    O2    S    
C1    C3    S    
C15   C17   T    
C11   O7    A    
O10   Zn1   S    
C1    O8    A    
C8    C9    S    
C4    C11   S    
H5    O3    S    
