data_mof_unit_65001.cif
_audit_creation_date              2012-12-10T18:16:23-0500
_audit_creation_method            fapswitch 2.2
_symmetry_space_group_name_H-M    P1
_symmetry_Int_Tables_number       1
_space_group_crystal_system       triclinic
_cell_length_a                    18.294267
_cell_length_b                    18.351793
_cell_length_c                    18.293766
_cell_angle_alpha                 120.052852
_cell_angle_beta                  60.074618
_cell_angle_gamma                 119.923991
_cell_volume                      4346.11207459

loop_
_atom_site_label
_atom_site_type_symbol
_atom_type_description
_atom_site_fract_x
_atom_site_fract_y
_atom_site_fract_z
_atom_type_partial_charge
C1    C     C_R   0.390185 0.109960 0.609823 0.518018
C2    C     C_R   0.028771 0.962839 0.906734 -0.141147
C3    C     C_R   0.946264 0.944460 0.051937 0.021509
C4    C     C_R   0.053731 0.055539 0.948062 0.021511
C5    C     C_R   0.975485 0.906788 0.957256 -0.028230
C6    C     C_R   0.024506 0.093211 0.042744 -0.028230
C7    C     C_R   0.068321 0.516639 0.921648 0.086863
C8    C     C_R   0.931665 0.483350 0.078351 0.086871
C9    C     C_R   0.011902 0.567359 0.975992 -0.113837
C10   C     C_R   0.988084 0.432629 0.024006 -0.113835
C11   C     C_R   0.944053 0.551626 0.054245 0.036830
C12   C     C_R   0.609815 0.890040 0.390177 0.518023
C13   C     C_R   0.055938 0.448367 0.945756 0.036832
C14   C     C_R   0.967041 0.056819 0.587172 0.072128
C15   C     C_R   0.032929 0.943148 0.412863 0.072109
C16   C     C_R   0.111313 0.391615 0.890034 0.534223
C17   C     C_R   0.888687 0.608385 0.109966 0.534216
C18   C     C_R   0.912766 0.002416 0.533027 0.079386
C19   C     C_R   0.087219 0.997569 0.466988 0.079386
C20   C     C_R   0.946097 0.945963 0.446260 0.009010
C21   C     C_R   0.053898 0.054034 0.553745 0.009013
C22   C     C_R   0.539585 0.092855 0.528629 -0.117515
C23   C     C_R   0.993052 0.236062 0.113913 -0.093755
C24   C     C_R   0.460414 0.907145 0.471371 -0.117513
C25   C     C_R   0.593008 0.039292 0.475243 -0.113842
C26   C     C_R   0.406992 0.960708 0.524757 -0.113840
C27   C     C_R   0.553676 0.946180 0.446337 0.042802
C28   C     C_R   0.446324 0.053820 0.553663 0.042802
C29   C     C_R   0.443360 0.413070 0.466838 0.073727
C30   C     C_R   0.556613 0.586943 0.533177 0.073720
C31   C     C_R   0.497649 0.467070 0.412662 0.076566
C32   C     C_R   0.502345 0.532939 0.587349 0.076587
C33   C     C_R   0.553902 0.553711 0.446169 0.010323
C34   C     C_R   0.006947 0.763937 0.886022 -0.093808
C35   C     C_R   0.446093 0.446290 0.553833 0.010311
C36   C     C_R   0.407067 0.477629 0.039539 -0.120210
C37   C     C_R   0.592932 0.522372 0.960462 -0.120216
C38   C     C_R   0.460623 0.530957 0.093036 -0.113816
C39   C     C_R   0.539376 0.469044 0.906964 -0.113812
C40   C     C_R   0.390063 0.390233 0.890213 0.518525
C41   C     C_R   0.609936 0.609767 0.109787 0.518522
C42   C     C_R   0.553791 0.553620 0.053697 0.043339
C43   C     C_R   0.446209 0.446381 0.946303 0.043341
C44   C     C_R   0.110008 0.110091 0.609936 0.552122
C45   C     C_R   0.017779 0.328656 0.156038 -0.073524
C46   C     C_R   0.889999 0.889909 0.390057 0.552112
C47   C     C_R   0.390007 0.390143 0.609961 0.556093
C48   C     C_R   0.609993 0.609852 0.390035 0.556107
C49   C     C_R   0.109850 0.110397 0.890637 0.508019
C50   C     C_R   0.890149 0.889602 0.109363 0.508011
C51   C     C_R   0.151209 0.330279 0.155659 -0.078901
C52   C     C_R   0.848741 0.669729 0.844380 -0.078880
C53   C     C_R   0.126630 0.237679 0.113658 -0.083888
C54   C     C_R   0.873324 0.762326 0.886392 -0.083842
C55   C     C_R   0.047855 0.190291 0.091797 0.047766
C56   C     C_R   0.982215 0.671346 0.843887 -0.073556
C57   C     C_R   0.952123 0.809709 0.908202 0.047764
C58   C     C_R   0.097165 0.375894 0.176291 0.122002
C59   C     C_R   0.902806 0.624112 0.823685 0.121986
C60   C     C_R   0.971223 0.037160 0.093265 -0.141150
H1    H     H_    0.664944 0.070821 0.456757 0.158218
H2    H     H_    0.067864 0.799755 0.902615 0.124052
H3    H     H_    0.571318 0.164642 0.550295 0.155427
H4    H     H_    0.428682 0.835358 0.449705 0.155425
H5    H     H_    0.169527 0.203095 0.096800 0.123855
H6    H     H_    0.830413 0.796910 0.903298 0.123852
H7    H     H_    0.975629 0.363721 0.172358 0.149502
H8    H     H_    0.024380 0.636280 0.827519 0.149542
H9    H     H_    0.949257 0.066731 0.165657 0.156459
H10   H     H_    0.050737 0.933269 0.834343 0.156464
H11   H     H_    0.022477 0.620870 0.958273 0.140792
H12   H     H_    0.335056 0.929179 0.543243 0.158223
H13   H     H_    0.977509 0.379117 0.041722 0.140750
H14   H     H_    0.335259 0.461216 0.071131 0.154608
H15   H     H_    0.664738 0.538785 0.928871 0.154603
H16   H     H_    0.429074 0.554544 0.164982 0.159911
H17   H     H_    0.570925 0.445457 0.835019 0.159922
H18   H     H_    0.212495 0.366555 0.171535 0.128937
H19   H     H_    0.787437 0.633457 0.828544 0.128925
H20   H     H_    0.932157 0.200241 0.097275 0.124041
I1    I     I_    0.135910 0.515902 0.236702 -0.300740
I2    I     I_    0.826134 0.447059 0.190793 -0.264807
I3    I     I_    0.917198 0.140444 0.721410 -0.221967
I4    I     I_    0.082709 0.859417 0.278725 -0.221887
I5    I     I_    0.864061 0.484108 0.763245 -0.300785
I6    I     I_    0.778548 0.001599 0.582940 -0.211590
I7    I     I_    0.221403 0.998325 0.417094 -0.211623
I8    I     I_    0.359875 0.279338 0.416601 -0.202785
I9    I     I_    0.640029 0.720678 0.583423 -0.202758
I10   I     I_    0.498908 0.417049 0.278129 -0.231806
I11   I     I_    0.501134 0.582950 0.721884 -0.231785
I12   I     I_    0.173847 0.552940 0.809211 -0.264846
O1    O     O_3   0.249960 0.250040 0.750040 -0.463716
O2    O     O_R   0.865890 0.634160 0.194850 -0.497203
O3    O     O_R   0.305100 0.073510 0.634200 -0.538356
O4    O     O_R   0.694900 0.926490 0.365800 -0.538358
O5    O     O_R   0.134110 0.365830 0.926590 -0.543426
O6    O     O_R   0.865890 0.634170 0.073410 -0.543427
O7    O     O_R   0.426490 0.365840 0.805130 -0.537464
O8    O     O_R   0.573510 0.634160 0.194870 -0.537469
O9    O     O_R   0.134150 0.194970 0.634230 -0.503660
O10   O     O_R   0.865850 0.805030 0.365770 -0.503641
O11   O     O_R   0.426480 0.365860 0.634240 -0.517600
O12   O     O_3   0.750040 0.749960 0.249960 -0.463715
O13   O     O_R   0.573520 0.634140 0.365760 -0.517601
O14   O     O_R   0.134190 0.073490 0.805100 -0.548012
O15   O     O_R   0.865810 0.926510 0.194900 -0.548019
O16   O     O_R   0.305020 0.365860 0.634250 -0.500542
O17   O     O_R   0.694980 0.634140 0.365750 -0.500534
O18   O     O_R   0.134160 0.194930 0.926560 -0.539185
O19   O     O_R   0.865840 0.805070 0.073440 -0.539187
O20   O     O_R   0.305030 0.365830 0.926580 -0.543749
O21   O     O_R   0.694970 0.634170 0.073420 -0.543755
O22   O     O_R   0.134180 0.073510 0.634210 -0.519188
O23   O     O_R   0.865820 0.926490 0.365790 -0.519210
O24   O     O_R   0.426530 0.194970 0.634210 -0.544175
O25   O     O_R   0.573470 0.805030 0.365790 -0.544172
O26   O     O_R   0.134110 0.365840 0.805150 -0.497208
Zn1   Zn    Zn3+2 0.206570 0.293400 0.880180 0.957645
Zn2   Zn    Zn3+2 0.793430 0.706600 0.119820 0.957638
Zn3   Zn    Zn3+2 0.380110 0.293420 0.706660 0.982204
Zn4   Zn    Zn3+2 0.619890 0.706580 0.293340 0.982205
Zn5   Zn    Zn3+2 0.206560 0.293420 0.706670 1.035220
Zn6   Zn    Zn3+2 0.793440 0.706580 0.293330 1.035233
Zn7   Zn    Zn3+2 0.206610 0.119900 0.706640 0.972594
Zn8   Zn    Zn3+2 0.793390 0.880100 0.293360 0.972577

loop_
_geom_bond_atom_site_label_1
_geom_bond_atom_site_label_2
_ccdc_geom_bond_type
C34   C56   A    
C23   C45   A    
C26   H12   S    
C41   C42   S    
C14   C18   A    
C24   C27   A    
C6    C55   S    
C35   C47   S    
C40   O7    A    
C40   O20   A    
C38   H16   S    
C15   C19   A    
C46   O10   A    
O14   Zn7   S    
O9    Zn5   S    
O23   Zn8   S    
C46   O23   A    
C8    I2    S    
C39   H17   S    
C14   C21   A    
C19   C21   A    
C24   C26   A    
C38   C42   A    
C19   I7    S    
C10   H13   S    
C16   O5    A    
C32   I11   S    
O12   Zn4   S    
C21   C44   S    
C34   H2    S    
C37   C42   A    
C29   I8    S    
C22   H3    S    
C40   C43   S    
C22   C25   A    
O1    Zn5   S    
C45   H7    S    
C1    C28   S    
C31   C33   A    
C1    O24   A    
C23   H20   S    
C52   H19   S    
C53   H5    S    
C17   O6    A    
O8    Zn4   S    
O7    Zn3   S    
C3    C60   A    
C48   O17   A    
C37   H15   S    
C44   O22   A    
C24   H4    S    
C22   C28   A    
C14   I3    S    
C30   I9    S    
O10   Zn6   S    
C25   H1    S    
C3    C50   S    
C52   C54   A    
C53   C55   A    
C15   C20   A    
C45   C58   A    
C47   O11   A    
O24   Zn3   S    
C12   C27   S    
C32   C35   A    
C6    C60   A    
C4    C6    A    
C58   I1    S    
O22   Zn7   S    
C39   C43   A    
C56   H8    S    
O19   Zn2   S    
C51   C53   A    
O5    Zn1   S    
C2    C4    A    
O25   Zn4   S    
C59   I5    S    
C52   C59   A    
C16   O26   A    
C34   C57   A    
O21   Zn2   S    
O3    Zn7   S    
C48   O13   A    
C1    O3    A    
C31   I10   S    
O1    Zn3   S    
C41   O8    A    
O4    Zn8   S    
C51   C58   A    
C18   I6    S    
O6    Zn2   S    
C9    C11   A    
C15   I4    S    
C36   H14   S    
O12   Zn6   S    
C8    C10   A    
C50   O15   A    
C2    C5    A    
O16   Zn5   S    
O11   Zn3   S    
C7    C9    A    
C11   C17   S    
C30   C33   A    
C9    H11   S    
O15   Zn8   S    
C41   O21   A    
C3    C5    A    
C10   C13   A    
O18   Zn1   S    
O20   Zn1   S    
C44   O9    A    
O17   Zn6   S    
C23   C55   A    
C49   O14   A    
C54   H6    S    
C25   C27   A    
C29   C35   A    
C26   C28   A    
C56   C59   A    
C5    C57   S    
C4    C49   S    
C36   C38   A    
C51   H18   S    
C29   C31   A    
C30   C32   A    
C60   H9    S    
C8    C11   A    
C7    I12   S    
C50   O19   A    
O13   Zn4   S    
C18   C20   A    
O26   Zn5   S    
O1    Zn7   S    
C12   O25   A    
C7    C13   A    
O12   Zn8   S    
C37   C39   A    
C47   O16   A    
C13   C16   S    
C33   C48   S    
C12   O4    A    
C36   C43   A    
C17   O2    A    
O1    Zn1   S    
C2    H10   S    
C20   C46   S    
C49   O18   A    
O12   Zn2   S    
C54   C57   A    
O2    Zn6   S    
