data_mof_unit_20825.cif
_audit_creation_date              2012-12-10T18:45:05-0500
_audit_creation_method            fapswitch 2.2
_symmetry_space_group_name_H-M    P1
_symmetry_Int_Tables_number       1
_space_group_crystal_system       triclinic
_cell_length_a                    10.787947
_cell_length_b                    9.943166
_cell_length_c                    10.672972
_cell_angle_alpha                 86.044431
_cell_angle_beta                  93.140793
_cell_angle_gamma                 88.946221
_cell_volume                      1140.12545281

loop_
_atom_site_label
_atom_site_type_symbol
_atom_type_description
_atom_site_fract_x
_atom_site_fract_y
_atom_site_fract_z
_atom_type_partial_charge
C1    C     C_R   0.259934 0.501744 0.501138 0.895124
C2    C     C_R   0.739207 0.500216 0.493839 0.941768
C3    C     C_R   0.931137 0.626514 0.461502 0.345099
C4    C     C_R   0.058557 0.629766 0.480074 0.395625
C5    C     C_R   0.586598 0.063869 0.571670 -0.009809
C6    C     C_R   0.413115 0.079091 0.427537 0.031668
C7    C     C_R   0.578541 0.920413 0.581241 0.029939
C8    C     C_R   0.420010 0.935615 0.419196 0.055531
C9    C     C_R   0.512991 0.504930 0.261142 0.926329
C10   C     C_R   0.500042 0.495818 0.741084 0.908773
C11   C     C_R   0.502833 0.765123 0.074339 -0.057668
C12   C     C_R   0.346807 0.681212 0.875416 -0.046236
C13   C     C_R   0.430549 0.862660 0.996137 0.019398
C14   C     C_R   0.342937 0.818389 0.904280 -0.072282
C15   C     C_R   0.441908 0.595553 0.934402 -0.020695
C16   C     C_R   0.492170 0.627024 0.050615 -0.048803
C17   C     C_R   0.541262 0.517409 0.130130 -0.322495
C18   C     C_R   0.500807 0.488970 0.876928 -0.281046
C19   C     C_R   0.597590 0.408289 0.078064 0.364433
C20   C     C_R   0.587840 0.402757 0.948613 0.346042
C21   C     C_R   0.065865 0.384089 0.516215 -0.155708
C22   C     C_R   0.938810 0.382624 0.510858 -0.120803
C23   C     C_R   0.871084 0.502994 0.485351 -0.213990
C24   C     C_R   0.126685 0.506516 0.500677 -0.221434
H1    H     H_    0.116234 0.289138 0.535854 0.231419
H2    H     H_    0.893979 0.287182 0.527836 0.228564
N1    N     N_R   0.500000 0.857200 0.500000 -0.189217
N2    N     N_R   0.500000 0.142810 0.500000 -0.190200
O1    O     O_R   0.316770 0.614620 0.499990 -0.617380
O2    O     O_R   0.683230 0.614620 0.500010 -0.615499
O3    O     O_R   0.316800 0.385290 0.500000 -0.652645
O4    O     O_R   0.683200 0.385290 0.500000 -0.641872
O5    O     O_R   0.500010 0.614690 0.316770 -0.679717
O6    O     O_R   0.499990 0.614690 0.683230 -0.656745
O7    O     O_R   0.500040 0.385360 0.316770 -0.600223
O8    O     O_R   0.499960 0.385360 0.683230 -0.613721
Zn1   Zn    Zn3+2 0.500000 0.653120 0.500000 0.958843
Zn2   Zn    Zn3+2 0.500000 0.346880 0.500000 0.975801
Cl1   Cl    Cl    0.693617 0.289777 0.172284 -0.405145
Cl2   Cl    Cl    0.699661 0.304723 0.881304 -0.485799
C25   C     C_2   0.605005 0.804752 0.163396 0.597177
H3    H     H_    0.682024 0.734710 0.188745 0.104355
O9    O     O_2   0.603894 0.912680 0.211265 -0.501351
C26   C     C_2   0.246097 0.619890 0.798329 0.462862
H4    H     H_    0.257278 0.517960 0.770038 0.045805
O10   O     O_2   0.146019 0.677483 0.773469 -0.522559
C27   C     C_2   0.452509 0.009131 0.001864 0.538434
H5    H     H_    0.376790 0.078831 0.015279 0.117782
O11   O     O_2   0.555844 0.053520 0.987725 -0.440757
C28   C     C_2   0.260395 0.916420 0.826254 0.493975
H6    H     H_    0.244352 0.904808 0.726370 0.138237
O12   O     O_2   0.207070 0.008344 0.872916 -0.516801
Cl3   Cl    Cl    0.852188 0.779083 0.403456 -0.455839
Cl4   Cl    Cl    0.124560 0.791461 0.486187 -0.481665
C29   C     C_2   0.691531 0.128534 0.634879 0.594640
H7    H     H_    0.679503 0.228077 0.662964 0.143495
O13   O     O_2   0.793499 0.072801 0.652009 -0.493124
C30   C     C_2   0.308911 0.158956 0.362337 0.556754
H8    H     H_    0.324612 0.249971 0.305108 0.093036
O14   O     O_2   0.202149 0.123072 0.373159 -0.494361
C31   C     C_2   0.650011 0.840450 0.684172 0.570601
H9    H     H_    0.696035 0.746726 0.668906 0.127950
O15   O     O_2   0.656736 0.879109 0.790403 -0.531934
C32   C     C_2   0.344807 0.870593 0.320030 0.548775
H10   H     H_    0.332265 0.763970 0.324947 0.135473
O16   O     O_2   0.296736 0.935339 0.228266 -0.566186

loop_
_geom_bond_atom_site_label_1
_geom_bond_atom_site_label_2
_ccdc_geom_bond_type
C15   C18   A    
C28   O12   D    
C29   H7    S    
O3    Zn2   S    
O4    Zn2   S    
O6    Zn1   S    
C3    Cl3   S    
C11   C16   A    
C6    C30   S    
C3    C23   A    
C27   H5    S    
C12   C15   A    
N2    Zn2   S    
C2    O2    A    
C32   H10   S    
C19   C20   A    
O8    Zn2   S    
C28   H6    S    
C27   O11   D    
C21   C22   A    
C9    O5    A    
C25   O9    D    
C32   O16   D    
C14   C28   S    
C19   Cl1   S    
C8    C32   S    
C20   Cl2   S    
C2    O4    A    
C10   C18   S    
C1    O1    A    
C17   C19   A    
N1    Zn1   S    
C11   C25   S    
C18   C20   A    
C29   O13   D    
C1    O3    A    
C22   H2    S    
C31   H9    S    
C4    C24   A    
C9    O7    A    
O1    Zn1   S    
C30   O14   D    
C15   C16   A    
C5    N2    A    
C6    N2    A    
C11   C13   A    
O7    Zn2   S    
C7    N1    A    
C26   H4    S    
C1    C24   S    
C10   O6    A    
C25   H3    S    
C21   C24   A    
C9    C17   S    
C2    C23   S    
C5    C7    A    
C8    N1    A    
C21   H1    S    
C22   C23   A    
C12   C26   S    
C6    C8    A    
C26   O10   D    
C4    Cl4   S    
C30   H8    S    
C13   C14   A    
C13   C27   S    
C5    C29   S    
C31   O15   D    
O5    Zn1   S    
C3    C4    A    
O2    Zn1   S    
C12   C14   A    
C16   C17   A    
C10   O8    A    
C7    C31   S    
