data_mof_unit_10663.cif
_audit_creation_date              2012-12-11T15:54:35-0500
_audit_creation_method            fapswitch 2.2
_symmetry_space_group_name_H-M    P1
_symmetry_Int_Tables_number       1
_space_group_crystal_system       triclinic
_cell_length_a                    6.968161
_cell_length_b                    14.515153
_cell_length_c                    16.112953
_cell_angle_alpha                 90.082222
_cell_angle_beta                  89.92108
_cell_angle_gamma                 90.05362
_cell_volume                      1629.72334348

loop_
_atom_site_label
_atom_site_type_symbol
_atom_type_description
_atom_site_fract_x
_atom_site_fract_y
_atom_site_fract_z
_atom_type_partial_charge
O1    O     O_R   0.638180 0.333920 0.163320 -0.541251
O2    O     O_R   0.361820 0.666080 0.836680 -0.545906
O3    O     O_R   0.308470 0.344960 0.336080 -0.543701
O4    O     O_R   0.691530 0.655040 0.663920 -0.543556
O5    O     O_R   0.138140 0.166110 0.336680 -0.533461
O6    O     O_R   0.861860 0.833890 0.663320 -0.535690
C1    C     C_R   0.477459 0.367193 0.364885 0.680852
C2    C     C_R   0.522569 0.633036 0.634922 0.685100
O7    O     O_R   0.308460 0.344950 0.163930 -0.542565
O8    O     O_R   0.691540 0.655050 0.836070 -0.512096
O9    O     O_R   0.138140 0.166100 0.163310 -0.542824
O10   O     O_R   0.861860 0.833900 0.836690 -0.543825
C3    C     C_R   0.477302 0.369133 0.136795 0.709295
C4    C     C_R   0.523383 0.635432 0.866888 0.724852
O11   O     O_R   0.638180 0.333930 0.336700 -0.542714
O12   O     O_R   0.361820 0.666070 0.663300 -0.543404
O13   O     O_3   0.471670 0.191340 0.250000 -0.365520
O14   O     O_3   0.528330 0.808660 0.750000 -0.370951
V1    V     V_3+5 0.196830 0.260900 0.250000 1.392720
V2    V     V_3+5 0.803170 0.739100 0.750000 1.424460
O15   O     O_R   0.808420 0.155070 0.163920 -0.542982
O16   O     O_R   0.191580 0.844930 0.836080 -0.545035
C5    C     C_R   0.977483 0.132702 0.135211 0.673043
C6    C     C_R   0.022514 0.867324 0.864757 0.658894
O17   O     O_R   0.808420 0.155080 0.336070 -0.536596
O18   O     O_R   0.191580 0.844920 0.663930 -0.537211
C7    C     C_R   0.977140 0.133035 0.364498 0.698484
C8    C     C_R   0.022867 0.866844 0.635405 0.694534
V3    V     V_3+5 0.696830 0.239130 0.250000 1.404270
V4    V     V_3+5 0.303170 0.760870 0.750000 1.406144
O19   O     O_3   0.971850 0.308690 0.250010 -0.373350
O20   O     O_3   0.028150 0.691310 0.749990 -0.364550
H1    H     H_    0.269739 0.845187 0.265769 0.110383
H2    H     H_    0.726992 0.153985 0.733698 0.114190
C9    C     C_R   0.834417 0.175272 0.529274 -0.140449
C10   C     C_R   0.164310 0.824296 0.470431 -0.140180
C11   C     C_R   0.766199 0.198340 0.607892 -0.123084
C12   C     C_R   0.231418 0.801007 0.391674 -0.125951
C13   C     C_R   0.778934 0.135450 0.672567 -0.120944
C14   C     C_R   0.218676 0.863901 0.326997 -0.123311
C15   C     C_R   0.859918 0.048965 0.659146 -0.130877
C16   C     C_R   0.138795 0.950611 0.340552 -0.129585
C17   C     C_R   0.928698 0.023022 0.579771 0.069860
C18   C     C_R   0.070780 0.976694 0.420015 0.069824
C19   C     C_R   0.915719 0.087610 0.513360 0.069371
C20   C     C_R   0.083762 0.912103 0.486430 0.069485
C21   C     C_R   0.012875 0.935191 0.566447 -0.185586
C22   C     C_R   0.987020 0.064614 0.433399 -0.186336
H3    H     H_    0.823704 0.227313 0.481547 0.108016
H4    H     H_    0.175027 0.772283 0.518185 0.106357
H5    H     H_    0.704315 0.265690 0.618779 0.119625
H6    H     H_    0.292425 0.733491 0.380674 0.116946
H7    H     H_    0.869308 0.003258 0.711940 0.105245
H8    H     H_    0.129394 0.996352 0.287780 0.104064
C23   C     C_R   0.178718 0.973835 0.968206 -0.158932
C24   C     C_R   0.821337 0.025445 0.032306 -0.157767
H9    H     H_    0.318899 0.954946 0.944658 0.115992
H10   H     H_    0.681155 0.044304 0.055871 0.116681
C25   C     C_R   0.167562 0.037283 0.033585 -0.157930
C26   C     C_R   0.832501 0.961965 0.966948 -0.160815
H11   H     H_    0.299731 0.065450 0.058191 0.119252
H12   H     H_    0.700358 0.933711 0.942395 0.117499
C27   C     C_R   0.988698 0.064110 0.066489 -0.044115
C28   C     C_R   0.011336 0.935400 0.933858 -0.044092
C29   C     C_R   0.322470 0.479098 0.464069 -0.162180
C30   C     C_R   0.677664 0.521660 0.535268 -0.158842
H13   H     H_    0.183227 0.463982 0.437543 0.117479
H14   H     H_    0.816943 0.536835 0.561726 0.118145
C31   C     C_R   0.333675 0.542847 0.529207 -0.158072
C32   C     C_R   0.666452 0.457890 0.470157 -0.160296
H15   H     H_    0.202487 0.575022 0.550667 0.116552
H16   H     H_    0.797656 0.425742 0.448679 0.117150
C33   C     C_R   0.511398 0.564899 0.565846 -0.044440
C34   C     C_R   0.488686 0.435683 0.433649 -0.045872
C35   C     C_R   0.330452 0.499185 0.050820 0.290132
C36   C     C_R   0.680160 0.528110 0.971092 0.303778
C37   C     C_R   0.346042 0.559921 0.983537 -0.260402
C38   C     C_R   0.663270 0.458339 0.030978 -0.253572
H17   H     H_    0.230634 0.604497 0.968486 0.164370
H18   H     H_    0.790426 0.421500 0.049761 0.132754
C39   C     C_R   0.515551 0.570908 0.939252 -0.140185
C40   C     C_R   0.487572 0.441360 0.071069 -0.136987
N1    N     N_2   0.160627 0.502949 0.099611 -0.533471
H19   H     H_    0.085084 0.442330 0.103976 0.268787
C41   C     C_3   0.178069 0.553340 0.176799 -0.525659
H20   H     H_    0.035086 0.558310 0.206966 0.189647
H21   H     H_    0.231351 0.624269 0.164764 0.188056
H22   H     H_    0.277988 0.517815 0.219772 0.187852
N2    N     N_2   0.862234 0.566551 0.954419 -0.499146
H23   H     H_    0.973278 0.520412 0.959270 0.255180
C42   C     C_3   0.892109 0.655961 0.993830 -0.465224
H24   H     H_    0.988075 0.698755 0.954831 0.179791
H25   H     H_    0.955110 0.647310 0.056366 0.200912
H26   H     H_    0.756521 0.695488 0.001076 0.165467

loop_
_geom_bond_atom_site_label_1
_geom_bond_atom_site_label_2
_ccdc_geom_bond_type
C7    C22   S    
C30   H14   S    
C8    C21   S    
C23   C25   A    
O13   V3    S    
O4    C2    A    
V1    O19   S    
C13   C15   A    
C41   H20   S    
O9    V1    S    
C9    C11   A    
C36   C38   A    
O3    C1    A    
C11   H5    S    
C38   H18   S    
C19   C22   A    
C12   H6    S    
O12   V4    S    
C26   H12   S    
C31   H15   S    
O7    C3    A    
O5    C7    A    
O7    V1    S    
O6    C8    A    
O8    V2    S    
C29   H13   S    
C9    H3    S    
C31   C33   A    
O14   V4    S    
N2    C42   S    
C36   N2    S    
C5    C27   S    
C2    O12   A    
C15   C17   A    
C16   C18   A    
C18   C20   A    
O11   V3    S    
C1    C34   S    
C37   H17   S    
O17   V3    S    
C11   C13   A    
C25   H11   S    
H1    C14   S    
C41   H21   S    
H2    C13   S    
V4    O20   S    
O8    C4    A    
C42   H24   S    
C1    O11   A    
C30   C33   A    
O15   V3    S    
C3    C40   S    
C29   C34   A    
C24   C26   A    
C32   C34   A    
C42   H25   S    
C17   C19   A    
C38   C40   A    
N1    H19   S    
C37   C39   A    
C23   C28   A    
O10   V2    S    
O1    V3    S    
C24   C27   A    
O3    V1    S    
C35   C37   A    
C15   H7    S    
N1    C41   S    
O18   V4    S    
C23   H9    S    
O16   C6    A    
O1    C3    A    
C10   C12   A    
C9    C19   A    
C10   H4    S    
V2    O20   S    
C41   H22   S    
C20   C21   A    
O16   V4    S    
O18   C8    A    
C14   C16   A    
C36   C39   A    
C35   C40   A    
O5    V1    S    
O17   C7    A    
O6    V2    S    
O10   C6    A    
C25   C27   A    
O2    V4    S    
C26   C28   A    
O15   C5    A    
V3    O19   S    
C16   H8    S    
C42   H26   S    
C12   C14   A    
C10   C20   A    
C35   N1    S    
C30   C32   A    
C29   C31   A    
O9    C5    A    
C2    C33   S    
O13   V1    S    
C24   H10   S    
O14   V2    S    
O2    C4    A    
O4    V2    S    
C6    C28   S    
C32   H16   S    
C4    C39   S    
N2    H23   S    
C17   C21   A    
C18   C22   A    
