data_mof_unit_54645.cif
_audit_creation_date              2012-12-10T16:55:49-0500
_audit_creation_method            fapswitch 2.2
_symmetry_space_group_name_H-M    P1
_symmetry_Int_Tables_number       1
_space_group_crystal_system       triclinic
_cell_length_a                    7.766922
_cell_length_b                    8.62112
_cell_length_c                    10.476479
_cell_angle_alpha                 91.053755
_cell_angle_beta                  85.675544
_cell_angle_gamma                 93.883268
_cell_volume                      697.835142751

loop_
_atom_site_label
_atom_site_type_symbol
_atom_type_description
_atom_site_fract_x
_atom_site_fract_y
_atom_site_fract_z
_atom_type_partial_charge
C1    C     C_R   0.545969 0.794457 0.507205 0.930512
C2    C     C_3   0.504267 0.499822 0.877333 0.029924
C3    C     C_3   0.336065 0.514516 0.048118 -0.138160
C4    C     C_3   0.663905 0.485384 0.951760 -0.138173
C5    C     C_2   0.572287 0.957075 0.533036 -0.281138
C6    C     C_2   0.433166 0.046248 0.548890 -0.306553
C7    C     C_2   0.755213 0.018250 0.545063 0.475163
C8    C     C_2   0.252867 0.988277 0.588804 0.482492
C9    C     C_R   0.455488 0.207185 0.518317 0.917432
C10   C     C_R   0.501873 0.500243 0.742507 0.849332
C11   C     C_R   0.498133 0.499790 0.257483 0.877514
C12   C     C_3   0.443567 0.634482 0.962129 -0.175721
C13   C     C_3   0.556409 0.365424 0.037747 -0.179538
C14   C     C_3   0.603122 0.620051 0.039316 -0.175904
C15   C     C_3   0.396858 0.379849 0.960551 -0.172363
C16   C     C_3   0.495714 0.500091 0.122579 0.021211
H1    H     H_    0.686378 0.717915 0.076416 0.148771
H2    H     H_    0.174067 0.924964 0.521650 0.141613
H3    H     H_    0.313699 0.281988 0.923312 0.167825
H4    H     H_    0.398424 0.743962 0.926200 0.153598
H5    H     H_    0.601595 0.255909 0.073547 0.144437
H6    H     H_    0.202617 0.526304 0.091537 0.152037
H7    H     H_    0.797328 0.473579 0.908292 0.152023
H8    H     H_    0.013590 0.382071 0.404661 0.203217
H9    H     H_    0.986415 0.617932 0.595351 0.200729
H10   H     H_    0.785426 0.101872 0.620271 0.093942
N1    N     N_2   0.950320 0.457950 0.465730 -0.169488
N2    N     N_2   0.049680 0.542050 0.534270 -0.171124
O1    O     O_R   0.389250 0.738570 0.508410 -0.649678
O2    O     O_2   0.190833 0.016054 0.696637 -0.598610
O3    O     O_R   0.610750 0.261430 0.491590 -0.629231
O4    O     O_R   0.678390 0.711620 0.486450 -0.578640
O5    O     O_R   0.321610 0.288380 0.513550 -0.605700
O6    O     O_R   0.355460 0.513510 0.697030 -0.613968
O7    O     O_R   0.644540 0.486490 0.302970 -0.612579
O8    O     O_R   0.644600 0.486560 0.675070 -0.648957
O9    O     O_R   0.355400 0.513440 0.324930 -0.631519
O10   O     O_2   0.871517 0.978888 0.468987 -0.592576
Zn1   Zn    Zn3+2 0.306940 0.517990 0.514670 0.962189
Zn2   Zn    Zn3+2 0.693060 0.482010 0.485330 0.965655

loop_
_geom_bond_atom_site_label_1
_geom_bond_atom_site_label_2
_ccdc_geom_bond_type
C2    C4    S    
C11   O9    A    
C11   C16   S    
H8    N1    S    
N1    Zn2   S    
C2    C12   S    
O1    Zn1   S    
C6    C9    S    
C11   O7    A    
O7    Zn2   S    
C8    O2    D    
C10   O6    A    
H9    N2    S    
C9    O5    A    
C2    C15   S    
C14   H1    S    
C12   H4    S    
O5    Zn1   S    
C7    H10   S    
C1    C5    S    
C6    C8    S    
C1    O1    A    
C7    O10   D    
C12   C14   S    
C13   C15   S    
C4    C14   S    
C5    C6    D    
C14   C16   S    
C9    O3    A    
C13   H5    S    
O6    Zn1   S    
C2    C10   S    
O8    Zn2   S    
O4    Zn2   S    
C3    C15   S    
O3    Zn2   S    
O9    Zn1   S    
C13   C16   S    
C4    C13   S    
C5    C7    S    
C4    H7    S    
C3    H6    S    
C10   O8    A    
C3    C12   S    
N2    Zn1   S    
C15   H3    S    
C1    O4    A    
C8    H2    S    
C3    C16   S    
N1    N2    D    
