data_mof_unit_40567.cif
_audit_creation_date              2012-12-10T17:06:43-0500
_audit_creation_method            fapswitch 2.2
_symmetry_space_group_name_H-M    P1
_symmetry_Int_Tables_number       1
_space_group_crystal_system       triclinic
_cell_length_a                    15.83435
_cell_length_b                    11.055442
_cell_length_c                    9.850291
_cell_angle_alpha                 111.866219
_cell_angle_beta                  98.215839
_cell_angle_gamma                 90.751589
_cell_volume                      1579.73276274

loop_
_atom_site_label
_atom_site_type_symbol
_atom_type_description
_atom_site_fract_x
_atom_site_fract_y
_atom_site_fract_z
_atom_type_partial_charge
C1    C     C_R   0.495428 0.254267 0.440031 0.851724
C2    C     C_R   0.504914 0.746035 0.559729 0.852837
C3    C     C_2   0.518267 0.066163 0.508952 0.375279
C4    C     C_2   0.488297 0.932608 0.486046 0.386126
C5    C     C_2   0.513186 0.500070 0.079028 0.095741
C6    C     C_2   0.494128 0.488464 0.919133 0.088573
C7    C     C_R   0.339901 0.499766 0.501086 0.788055
C8    C     C_R   0.660068 0.499263 0.498789 0.802376
C9    C     C_3   0.974109 0.394914 0.533498 -0.308823
C10   C     C_3   0.025941 0.600632 0.470302 -0.324094
C11   C     C_3   0.018911 0.388221 0.402056 0.553173
C12   C     C_3   0.981375 0.607780 0.602520 0.568889
C13   C     C_1   0.250447 0.500268 0.503751 -0.168944
C14   C     C_1   0.749522 0.497118 0.496581 -0.171611
C15   C     C_3   0.039347 0.509030 0.638271 -0.281299
C16   C     C_3   0.960771 0.486211 0.365688 -0.298138
C17   C     C_3   0.083274 0.500238 0.504703 0.071189
C18   C     C_3   0.916973 0.495388 0.499327 0.066770
C19   C     C_1   0.174962 0.500457 0.504888 -0.000407
C20   C     C_1   0.825134 0.495798 0.497142 0.001275
C21   C     C_2   0.489473 0.115131 0.406103 -0.469266
C22   C     C_2   0.513177 0.885296 0.591848 -0.433640
Cu1   Cu    Cu3+1 0.514700 0.521810 0.644910 0.986405
Cu2   Cu    Cu3+1 0.485300 0.478190 0.355090 0.962607
H1    H     H_    0.440451 0.423239 0.847144 0.142312
H2    H     H_    0.572085 0.552783 0.147088 0.130259
N1    N     N_2   0.463210 0.445420 0.137360 -0.020668
N2    N     N_2   0.536790 0.554580 0.862640 -0.021079
O1    O     O_R   0.507840 0.332340 0.577400 -0.541863
O2    O     O_R   0.492160 0.667660 0.422600 -0.527169
O3    O     O_R   0.483020 0.295500 0.332650 -0.609328
O4    O     O_R   0.516980 0.704500 0.667350 -0.598574
O5    O     O_R   0.391490 0.518400 0.622350 -0.594399
O6    O     O_R   0.608510 0.481600 0.377650 -0.603671
O7    O     O_R   0.366660 0.481570 0.377600 -0.571267
O8    O     O_R   0.633340 0.518430 0.622400 -0.532002
O9    O     O_3   0.045425 0.275138 0.296357 -0.614523
C23   C     C_3   0.976676 0.178531 0.228496 0.040218
H3    H     H_    0.973043 0.146422 0.106548 0.158728
H4    H     H_    0.912658 0.212990 0.254045 0.126846
C24   C     C_3   0.994507 0.061302 0.272617 -0.346798
H5    H     H_    0.057276 0.025190 0.243539 0.233540
H6    H     H_    0.997727 0.092012 0.394353 0.213011
C25   C     C_3   0.925088 0.950226 0.194168 -0.919274
H7    H     H_    0.862247 0.982770 0.225869 0.255676
H8    H     H_    0.940718 0.866311 0.226998 0.259592
H9    H     H_    0.920848 0.917391 0.072053 0.269734
O10   O     O_3   0.953258 0.717945 0.710939 -0.614006
C26   C     C_3   0.013091 0.827453 0.759394 0.050757
H10   H     H_    0.978306 0.915212 0.812111 0.167512
H11   H     H_    0.037867 0.842815 0.666609 0.124594
C27   C     C_3   0.086768 0.820689 0.875372 -0.368941
H12   H     H_    0.060446 0.799152 0.963342 0.233735
H13   H     H_    0.127891 0.741813 0.822255 0.213819
C28   C     C_3   0.142439 0.949009 0.945909 -0.925245
H14   H     H_    0.170074 0.971532 0.859798 0.252398
H15   H     H_    0.195564 0.940705 0.028060 0.252817
H16   H     H_    0.104128 0.030386 0.003587 0.267460
H17   H     H_    0.951045 0.310653 0.557134 0.148835
H18   H     H_    0.048536 0.682761 0.442669 0.146684
H19   H     H_    0.927210 0.473943 0.253931 0.156107
H20   H     H_    0.072603 0.518663 0.749296 0.151589
O11   O     O_3   0.440403 0.853624 0.351017 -0.609361
C29   C     C_3   0.352753 0.879042 0.349341 0.016482
H21   H     H_    0.330458 0.898680 0.247781 0.154346
H22   H     H_    0.339427 0.966060 0.445503 0.122165
C30   C     C_3   0.300844 0.758663 0.342083 -0.252811
H23   H     H_    0.315888 0.671215 0.249356 0.263620
H24   H     H_    0.318634 0.743393 0.447437 0.198320
C31   C     C_3   0.204885 0.774305 0.318419 -0.964281
H25   H     H_    0.187654 0.857971 0.412904 0.251648
H26   H     H_    0.169547 0.683901 0.310344 0.266040
H27   H     H_    0.185349 0.790604 0.214000 0.259720
O12   O     O_3   0.570629 0.141401 0.641188 -0.615392
C32   C     C_3   0.654680 0.160168 0.614681 0.101484
H28   H     H_    0.686833 0.246457 0.710001 0.180610
H29   H     H_    0.655608 0.183871 0.514375 0.121194
C33   C     C_3   0.706436 0.041475 0.604228 -0.391866
H30   H     H_    0.707546 0.021607 0.707065 0.226248
H31   H     H_    0.676037 0.954016 0.508536 0.216588
C34   C     C_3   0.798133 0.064927 0.583513 -0.916556
H32   H     H_    0.798460 0.083032 0.479938 0.255385
H33   H     H_    0.833861 0.977426 0.575789 0.264645
H34   H     H_    0.831061 0.150301 0.679092 0.251768
H35   H     H_    0.546241 0.948330 0.700507 0.157160
H36   H     H_    0.455536 0.053122 0.297965 0.147499
O13   O     O_3   0.609324 0.623709 0.946404 -0.519613
C35   C     C_3   0.588919 0.754203 0.016548 0.133783
H37   H     H_    0.555606 0.762510 0.111398 0.145484
H38   H     H_    0.546550 0.788100 0.939660 0.165524
C36   C     C_3   0.671277 0.843546 0.074401 -0.354887
H39   H     H_    0.714695 0.810736 0.151041 0.227442
H40   H     H_    0.704067 0.837580 0.979777 0.233748
C37   C     C_3   0.652703 0.985202 0.156541 -0.946697
H41   H     H_    0.608278 0.019898 0.083024 0.264062
H42   H     H_    0.713132 0.048574 0.193543 0.251276
H43   H     H_    0.623800 0.993640 0.255519 0.263761
O14   O     O_3   0.384025 0.405332 0.057869 -0.551797
C38   C     C_3   0.362865 0.277110 0.046518 0.184494
H44   H     H_    0.297084 0.248282 0.983015 0.128293
H45   H     H_    0.359153 0.273212 0.155994 0.180539
C39   C     C_3   0.423052 0.178042 0.962269 -0.382145
H46   H     H_    0.425732 0.185869 0.853650 0.227259
H47   H     H_    0.488745 0.199216 0.026774 0.232453
C40   C     C_3   0.392500 0.038379 0.935755 -0.938193
H48   H     H_    0.386594 0.028947 0.042422 0.252492
H49   H     H_    0.439293 0.969927 0.881775 0.259842
H50   H     H_    0.329567 0.010785 0.862130 0.256011

loop_
_geom_bond_atom_site_label_1
_geom_bond_atom_site_label_2
_ccdc_geom_bond_type
O13   C35   S    
N1    O14   S    
C1    C21   S    
C24   H6    S    
C24   H5    S    
Cu2   N1    S    
C12   O10   S    
C34   H32   S    
C25   H7    S    
C40   H49   S    
C4    O11   S    
Cu1   O1    S    
C23   H3    S    
C39   H47   S    
C33   H31   S    
C6    H1    S    
C10   C17   S    
Cu1   O8    S    
C1    O3    A    
C4    C22   D    
C39   C40   S    
C2    O4    A    
C8    O8    A    
C22   H35   S    
C11   O9    S    
C3    O12   S    
C5    N1    D    
C6    N2    D    
C25   H8    S    
C26   H11   S    
C2    C22   S    
Cu1   Cu2   S    
C35   C36   S    
C31   H25   S    
C25   H9    S    
C7    O5    A    
C39   H46   S    
C31   H27   S    
C34   H33   S    
C27   H13   S    
C40   H50   S    
Cu2   O7    S    
O12   C32   S    
C13   C19   T    
C30   H23   S    
C29   C30   S    
C14   C20   T    
C23   C24   S    
N2    O13   S    
C36   H39   S    
C33   H30   S    
C37   H43   S    
Cu1   O5    S    
Cu2   O6    S    
C5    H2    S    
C30   H24   S    
C29   H22   S    
C10   H18   S    
C32   H28   S    
O9    C23   S    
C36   H40   S    
C9    C11   S    
C11   C16   S    
C38   H44   S    
C12   C15   S    
C26   C27   S    
C28   H14   S    
C1    O1    A    
C8    O6    A    
Cu1   N2    S    
C37   H42   S    
C32   H29   S    
C10   C12   S    
O10   C26   S    
C38   H45   S    
C35   H38   S    
O14   C38   S    
C28   H15   S    
C24   C25   S    
C3    C21   D    
C16   H19   S    
C3    C4    S    
C34   H34   S    
C27   H12   S    
C15   C17   S    
C21   H36   S    
C11   C17   S    
C8    C14   S    
C7    O7    A    
C27   C28   S    
C40   H48   S    
C2    O2    A    
C30   C31   S    
Cu1   O4    S    
C9    C15   S    
Cu2   O3    S    
C10   C16   S    
C29   H21   S    
C36   C37   S    
C23   H4    S    
C33   C34   S    
C5    C6    S    
C17   C19   S    
C15   H20   S    
C18   C20   S    
C37   H41   S    
C32   C33   S    
Cu2   O2    S    
O11   C29   S    
C9    C18   S    
C7    C13   S    
C38   C39   S    
C35   H37   S    
C16   C18   S    
C26   H10   S    
C28   H16   S    
C12   C18   S    
C31   H26   S    
C9    H17   S    
