data_mof_unit_37088.cif
_audit_creation_date              2012-12-10T20:31:51-0500
_audit_creation_method            fapswitch 2.2
_symmetry_space_group_name_H-M    P1
_symmetry_Int_Tables_number       1
_space_group_crystal_system       triclinic
_cell_length_a                    9.899402
_cell_length_b                    10.695463
_cell_length_c                    15.365247
_cell_angle_alpha                 90.867662
_cell_angle_beta                  70.506292
_cell_angle_gamma                 89.414599
_cell_volume                      1533.22091134

loop_
_atom_site_label
_atom_site_type_symbol
_atom_type_description
_atom_site_fract_x
_atom_site_fract_y
_atom_site_fract_z
_atom_type_partial_charge
C1    C     C_R   0.499960 0.739876 0.498730 0.920702
C2    C     C_R   0.435364 0.386168 0.900046 0.082358
C3    C     C_R   0.297471 0.339892 0.945410 0.190151
C4    C     C_R   0.540949 0.381479 0.942411 0.036764
C5    C     C_R   0.497503 0.367838 0.038405 0.104567
C6    C     C_R   0.361429 0.315860 0.083298 -0.169737
C7    C     C_R   0.264921 0.296629 0.035464 -0.309781
C8    C     C_R   0.687672 0.392613 0.892026 -0.208417
C9    C     C_R   0.786162 0.411621 0.936991 -0.177478
C10   C     C_R   0.738594 0.426794 0.032817 0.040336
C11   C     C_R   0.592131 0.408741 0.084607 -0.039281
C12   C     C_R   0.411498 0.491957 0.675363 0.878977
C13   C     C_R   0.834270 0.467405 0.076148 -0.347921
C14   C     C_R   0.787328 0.491850 0.171582 0.478863
C15   C     C_R   0.541865 0.448554 0.177710 0.395046
C16   C     C_R   0.373705 0.939086 0.512214 -0.053876
C17   C     C_R   0.502440 0.871606 0.489428 -0.100644
C18   C     C_R   0.633829 0.932799 0.454122 -0.182094
C19   C     C_R   0.635168 0.062269 0.454202 -0.166992
C20   C     C_R   0.505128 0.128534 0.489913 -0.123116
C21   C     C_R   0.375873 0.066702 0.513472 -0.081851
C22   C     C_3   0.250428 0.079159 0.600246 0.363653
C23   C     C_R   0.501519 0.260327 0.498316 0.875285
C24   C     C_3   0.243287 0.937204 0.597325 0.958365
C25   C     C_R   0.905272 0.592235 0.545585 0.031879
C26   C     C_R   0.956109 0.417780 0.445857 0.481440
C27   C     C_R   0.102100 0.416137 0.446047 0.464447
C28   C     C_R   0.047435 0.591480 0.545891 0.023762
C29   C     C_3   0.005240 0.618437 0.646276 -0.518588
C30   C     C_3   0.851981 0.618430 0.646974 1.001781
C31   C     C_R   0.588152 0.499044 0.323969 0.911055
C32   C     C_R   0.362121 0.450155 0.771557 -0.066152
C33   C     C_R   0.640129 0.481963 0.222694 -0.285085
C34   C     C_R   0.194909 0.341638 0.900413 -0.229577
C35   C     C_R   0.227843 0.395239 0.813021 -0.202993
C36   C     C_R   0.461235 0.447498 0.817228 -0.250920
H1    H     H_    0.161849 0.255841 0.070687 0.146801
H2    H     H_    0.944607 0.484511 0.035057 0.165113
H3    H     H_    0.734769 0.881320 0.430509 0.181934
H4    H     H_    0.736735 0.109822 0.430447 0.204832
H5    H     H_    0.278751 0.120391 0.658639 0.040889
H6    H     H_    0.030939 0.539674 0.684817 0.188477
H7    H     H_    0.042065 0.710208 0.662122 0.249763
H8    H     H_    0.897865 0.422938 0.896282 0.146462
H9    H     H_    0.090098 0.302199 0.932773 0.140689
H10   H     H_    0.149749 0.392391 0.777748 0.163608
H11   H     H_    0.557175 0.498636 0.789674 0.227573
H12   H     H_    0.330108 0.287059 0.154350 0.202916
H13   H     H_    0.727151 0.383271 0.817874 0.227878
N1    N     N_R   0.856900 0.500860 0.500610 -0.156236
N2    N     N_R   0.142540 0.500820 0.500610 -0.149373
O1    O     O_R   0.385310 0.683210 0.499990 -0.592753
O2    O     O_R   0.614650 0.683240 0.500000 -0.610983
O3    O     O_R   0.319830 0.499970 0.632240 -0.621279
O4    O     O_R   0.549170 0.500000 0.632250 -0.556281
O5    O     O_R   0.385350 0.316760 0.500000 -0.556132
O6    O     O_R   0.614690 0.316790 0.500010 -0.577796
O7    O     O_R   0.450830 0.500000 0.367750 -0.541764
O8    O     O_R   0.680170 0.500030 0.367760 -0.540745
Zn1   Zn    Zn3+2 0.346870 0.499980 0.499990 1.049073
Zn2   Zn    Zn3+2 0.653130 0.500020 0.500010 1.072968
F1    F     F_    0.134431 0.137208 0.585863 -0.640807
O9    O     O_3   0.269933 0.875695 0.671072 -0.665076
C37   C     C_3   0.156508 0.899175 0.754671 -0.345074
H14   H     H_    0.048798 0.896348 0.746843 0.201701
H15   H     H_    0.170574 0.990812 0.785220 0.165009
H16   H     H_    0.159803 0.825920 0.804299 0.193055
F2    F     F_    0.126074 0.892924 0.576794 -0.653156
F3    F     F_    0.913436 0.338337 0.390947 -0.689198
O10   O     O_3   0.209077 0.338408 0.388084 -0.552608
C38   C     C_3   0.161771 0.216586 0.378533 -0.114366
H17   H     H_    0.126492 0.210684 0.317193 0.164235
H18   H     H_    0.075966 0.184684 0.441387 0.217683
H19   H     H_    0.253953 0.150723 0.365681 0.168581
O11   O     O_3   0.396230 0.466202 0.222641 -0.569170
C39   C     C_3   0.358335 0.589495 0.207110 -0.259410
H20   H     H_    0.362689 0.599955 0.134324 0.151187
H21   H     H_    0.427096 0.660424 0.224869 0.147552
H22   H     H_    0.246843 0.609483 0.252537 0.179854
F4    F     F_    0.776947 0.518869 0.693307 -0.744786
O12   O     O_3   0.779995 0.735644 0.668412 -0.592436
C40   C     C_3   0.732212 0.758324 0.764688 -0.223352
H23   H     H_    0.818881 0.744308 0.794858 0.128122
H24   H     H_    0.639499 0.698882 0.799908 0.175829
H25   H     H_    0.695320 0.857213 0.778325 0.188089
O13   O     O_3   0.878968 0.542191 0.213942 -0.593338
C41   C     C_3   0.004238 0.467849 0.195140 -0.193806
H26   H     H_    0.982065 0.365835 0.196316 0.168473
H27   H     H_    0.051674 0.486646 0.249746 0.208015
H28   H     H_    0.084554 0.494429 0.128516 0.148633

loop_
_geom_bond_atom_site_label_1
_geom_bond_atom_site_label_2
_ccdc_geom_bond_type
C8    C9    A    
C15   O11   S    
C41   H26   S    
C16   C21   A    
C29   H6    S    
C19   C20   A    
C39   H22   S    
C4    C8    A    
C14   C33   A    
O12   C40   S    
C23   O5    A    
O3    Zn1   S    
C25   C28   A    
C26   C27   A    
C6    H12   S    
C32   C36   A    
C31   O7    A    
C28   C29   S    
C39   H21   S    
C5    C11   A    
C3    C7    A    
C26   N1    A    
C5    C6    A    
C28   N2    A    
C22   H5    S    
O7    Zn1   S    
C36   H11   S    
C34   C35   A    
C31   O8    A    
C18   H3    S    
C1    O2    A    
C25   N1    A    
O1    Zn1   S    
C11   C15   A    
C16   C17   A    
C31   C33   S    
O10   C38   S    
C9    C10   A    
C30   F4    S    
C16   C24   S    
C13   C14   A    
C12   C32   S    
O2    Zn2   S    
C27   N2    A    
C26   F3    S    
O8    Zn2   S    
C37   H16   S    
C39   H20   S    
C14   O13   S    
C19   H4    S    
C38   H18   S    
O13   C41   S    
C18   C19   A    
C3    C34   A    
O5    Zn1   S    
C37   H15   S    
C2    C4    A    
O11   C39   S    
C32   C35   A    
C29   C30   S    
C22   F1    S    
C20   C23   S    
C17   C18   A    
C7    H1    S    
C34   H9    S    
C13   H2    S    
C27   O10   S    
C29   H7    S    
C24   O9    S    
C40   H24   S    
C41   H27   S    
C22   C24   S    
C2    C36   A    
C25   C30   S    
C23   O6    A    
C9    H8    S    
C4    C5    A    
C10   C13   A    
C38   H19   S    
O6    Zn2   S    
C6    C7    A    
C40   H25   S    
C1    C17   S    
C37   H14   S    
C30   O12   S    
C2    C3    A    
C38   H17   S    
O4    Zn2   S    
C1    O1    A    
C12   O4    A    
C10   C11   A    
C24   F2    S    
O9    C37   S    
C20   C21   A    
C40   H23   S    
C41   H28   S    
N1    Zn2   S    
N2    Zn1   S    
C21   C22   S    
C35   H10   S    
C8    H13   S    
C15   C33   A    
C12   O3    A    
