data_mof_unit_23683.cif
_audit_creation_date              2012-12-11T14:13:32-0500
_audit_creation_method            fapswitch 2.2
_symmetry_space_group_name_H-M    P1
_symmetry_Int_Tables_number       1
_space_group_crystal_system       triclinic
_cell_length_a                    11.633699
_cell_length_b                    18.44057
_cell_length_c                    10.017299
_cell_angle_alpha                 90.348993
_cell_angle_beta                  111.132343
_cell_angle_gamma                 89.791496
_cell_volume                      2004.47000597

loop_
_atom_site_label
_atom_site_type_symbol
_atom_type_description
_atom_site_fract_x
_atom_site_fract_y
_atom_site_fract_z
_atom_type_partial_charge
C1    C     C_R   0.074717 0.645636 0.140168 0.543578
C2    C     C_2   0.598611 0.069931 0.064985 0.228805
C3    C     C_2   0.647247 0.440771 0.980962 0.231030
C4    C     C_2   0.401888 0.572935 0.914730 0.232141
C5    C     C_2   0.454710 0.968630 0.995014 -0.143308
C6    C     C_2   0.481924 0.046014 0.009620 -0.164514
C7    C     C_2   0.542764 0.475615 0.902848 -0.161399
C8    C     C_2   0.517174 0.551479 0.932895 -0.111608
C9    C     C_2   0.003793 0.920933 0.111769 -0.116976
C10   C     C_2   0.979076 0.074088 0.882656 -0.130452
C11   C     C_2   0.999450 0.419386 0.891481 -0.113049
C12   C     C_R   0.928190 0.353189 0.860705 0.555715
C13   C     C_2   0.021120 0.574202 0.114885 -0.119253
C14   C     C_2   0.999976 0.958621 0.997313 -0.140014
C15   C     C_2   0.957786 0.032413 0.979567 -0.159343
C16   C     C_2   0.011231 0.455788 0.010853 -0.138954
C17   C     C_2   0.050937 0.530236 0.026289 -0.170025
C18   C     C_R   0.437883 0.637454 0.374852 0.583723
C19   C     C_R   0.523249 0.347144 0.546814 0.578156
C20   C     C_R   0.529566 0.145903 0.557899 0.582731
C21   C     C_R   0.474104 0.850991 0.447829 0.585141
C22   C     C_R   0.376584 0.644805 0.961558 0.587238
C23   C     C_R   0.924711 0.145400 0.858949 0.548918
C24   C     C_R   0.650879 0.360861 0.984343 0.622340
C25   C     C_R   0.624500 0.143782 0.034200 0.592688
C26   C     C_R   0.348890 0.860585 0.015546 0.640550
C27   C     C_R   0.474754 0.406272 0.441389 0.016770
C28   C     C_R   0.451783 0.556915 0.395051 -0.017234
C29   C     C_R   0.514282 0.919333 0.530053 -0.007730
C30   C     C_R   0.503422 0.071028 0.498167 -0.008633
C31   C     C_R   0.258737 0.398083 0.420241 0.260200
C32   C     C_R   0.651845 0.546594 0.331246 0.250460
C33   C     C_R   0.726604 0.920869 0.527556 0.252156
C34   C     C_R   0.072442 0.853577 0.140176 0.561088
C35   C     C_R   0.290435 0.064351 0.504038 0.260452
C36   C     C_R   0.151371 0.434170 0.415484 -0.090994
C37   C     C_R   0.755484 0.503106 0.345744 -0.046051
C38   C     C_R   0.814620 0.956581 0.487261 -0.068825
C39   C     C_R   0.209869 0.029080 0.557822 -0.065137
C40   C     C_R   0.154319 0.507291 0.446597 0.236472
C41   C     C_R   0.753088 0.429074 0.359411 0.295278
C42   C     C_R   0.798156 0.028087 0.440445 0.265377
C43   C     C_R   0.235309 0.959404 0.613958 0.251119
C44   C     C_R   0.257437 0.547548 0.454486 -0.074254
C45   C     C_R   0.363272 0.439706 0.427250 0.023343
C46   C     C_R   0.643729 0.398447 0.356752 -0.072806
C47   C     C_R   0.689574 0.064255 0.433875 -0.072225
C48   C     C_R   0.343390 0.924983 0.616109 -0.086241
C49   C     C_R   0.357682 0.516238 0.424750 -0.095942
C50   C     C_R   0.555730 0.440729 0.388026 -0.095485
C51   C     C_R   0.602817 0.031309 0.482971 -0.088708
C52   C     C_R   0.422903 0.958957 0.558403 -0.085351
C53   C     C_3   0.066366 0.557963 0.593868 -0.107778
C54   C     C_3   0.887061 0.331686 0.437530 -0.093937
C55   C     C_3   0.913341 0.127825 0.423771 -0.091442
C56   C     C_R   0.551600 0.516947 0.369061 0.007436
C57   C     C_3   0.111150 0.860960 0.597756 -0.074719
C58   C     C_3   0.206060 0.286094 0.486867 -0.059900
C59   C     C_3   0.742498 0.652449 0.288174 -0.073227
C60   C     C_3   0.799028 0.846898 0.720125 -0.127591
C61   C     C_3   0.209825 0.114718 0.283975 -0.118523
C62   C     C_R   0.615286 0.956758 0.515905 0.007722
C63   C     C_R   0.405527 0.032301 0.519182 0.020009
C64   C     C_2   0.356249 0.939057 0.012711 0.270881
Cr1   Cr    Cr6+3 0.187610 0.750000 0.979860 0.991292
Cr2   Cr    Cr6+3 0.812390 0.250000 0.020140 1.028127
Cr3   Cr    Cr6+3 0.245810 0.750000 0.341640 0.982481
Cr4   Cr    Cr6+3 0.754190 0.250000 0.658360 0.955728
Cr5   Cr    Cr6+3 0.485760 0.750000 0.219910 1.031365
Cr6   Cr    Cr6+3 0.514240 0.250000 0.780090 0.996597
H1    H     H_    0.067430 0.404629 0.394269 0.171704
H2    H     H_    0.521594 0.933322 0.974158 0.123925
H3    H     H_    0.592000 0.589645 0.977996 0.135176
H4    H     H_    0.466887 0.444077 0.830619 0.149878
H5    H     H_    0.909034 0.052770 0.046684 0.213011
H6    H     H_    0.039344 0.937388 0.921731 0.211725
H7    H     H_    0.104470 0.549260 0.963996 0.190360
H8    H     H_    0.979159 0.433432 0.091447 0.215770
H9    H     H_    0.023295 0.052767 0.811664 0.131275
H10   H     H_    0.970957 0.943932 0.191778 0.141729
H11   H     H_    0.970192 0.554656 0.179167 0.166774
H12   H     H_    0.831364 0.524599 0.321292 0.201758
H13   H     H_    0.026790 0.443191 0.808921 0.093830
H14   H     H_    0.977523 0.577726 0.597940 0.114020
H15   H     H_    0.135167 0.601960 0.636177 0.169752
H16   H     H_    0.093090 0.509100 0.662321 0.163493
H17   H     H_    0.930415 0.290555 0.390156 0.087221
H18   H     H_    0.813569 0.302720 0.461342 0.137429
H19   H     H_    0.958558 0.352085 0.537175 0.130567
H20   H     H_    0.955373 0.132298 0.541817 0.125195
H21   H     H_    0.835507 0.166164 0.379634 0.119653
H22   H     H_    0.984415 0.144570 0.380479 0.133687
H23   H     H_    0.894474 0.927393 0.486573 0.142236
H24   H     H_    0.184430 0.819063 0.621588 0.131693
H25   H     H_    0.067723 0.869046 0.480464 0.132179
H26   H     H_    0.039745 0.839236 0.635800 0.129043
H27   H     H_    0.123855 0.256127 0.417346 0.116227
H28   H     H_    0.182109 0.320022 0.565544 0.052817
H29   H     H_    0.273314 0.246225 0.552449 0.223868
H30   H     H_    0.804033 0.637078 0.229827 0.092331
H31   H     H_    0.793730 0.652331 0.406068 0.114087
H32   H     H_    0.712337 0.709050 0.257462 0.155662
H33   H     H_    0.742906 0.877349 0.771439 0.120879
H34   H     H_    0.125776 0.055348 0.553396 0.147803
H35   H     H_    0.803110 0.789551 0.754334 0.139944
H36   H     H_    0.894700 0.867625 0.757760 0.122724
H37   H     H_    0.170373 0.165438 0.226423 0.155562
H38   H     H_    0.135315 0.073288 0.252746 0.142599
H39   H     H_    0.286384 0.097545 0.249183 0.129544
H40   H     H_    0.672180 0.980560 0.163744 0.324884
H41   H     H_    0.275665 0.030521 0.031997 0.310068
H42   H     H_    0.324309 0.479925 0.912299 0.319877
H43   H     H_    0.755060 0.524736 0.015759 0.305615
H44   H     H_    0.252861 0.602096 0.487074 0.189856
H45   H     H_    0.629007 0.340772 0.337377 0.133089
H46   H     H_    0.668342 0.116426 0.382392 0.130701
H47   H     H_    0.366108 0.871526 0.662410 0.131712
H48   H     H_    0.407154 0.084121 0.961429 0.109020
O1    O     O_R   0.267710 0.668200 0.902110 -0.515955
O2    O     O_R   0.883280 0.330790 0.732340 -0.548500
O3    O     O_R   0.883280 0.169210 0.732340 -0.538540
O4    O     O_R   0.116720 0.830790 0.267660 -0.531547
O5    O     O_R   0.366710 0.675440 0.427590 -0.534660
O6    O     O_R   0.633290 0.324560 0.572410 -0.529812
O7    O     O_R   0.633290 0.175440 0.572410 -0.522016
O8    O     O_R   0.366710 0.824560 0.427590 -0.510641
O9    O     O_R   0.534870 0.669390 0.371760 -0.456506
O10   O     O_R   0.465130 0.330610 0.628240 -0.511753
O11   O     O_R   0.465130 0.169390 0.628240 -0.480138
O12   O     O_R   0.732290 0.331800 0.097890 -0.442861
O13   O     O_R   0.534870 0.830610 0.371760 -0.468976
O14   O     O_R   0.453080 0.674480 0.075160 -0.485668
O15   O     O_R   0.546920 0.325520 0.924840 -0.550611
O16   O     O_R   0.546920 0.174480 0.924840 -0.530166
O17   O     O_R   0.453080 0.825520 0.075160 -0.553989
O18   O     O_3   0.306390 0.750000 0.180470 -0.293370
O19   O     O_3   0.693610 0.250000 0.819530 -0.275673
O20   O     O_3   0.049733 0.541125 0.451001 -0.609591
O21   O     O_3   0.846356 0.389058 0.339226 -0.534591
O22   O     O_3   0.879851 0.055587 0.380795 -0.544707
O23   O     O_R   0.732290 0.168200 0.097890 -0.493067
O24   O     O_3   0.154949 0.927195 0.669487 -0.564007
O25   O     O_3   0.258830 0.323458 0.399649 -0.558240
O26   O     O_3   0.636778 0.607244 0.245547 -0.536961
O27   O     O_3   0.747189 0.849217 0.569781 -0.565098
O28   O     O_3   0.253124 0.128878 0.432314 -0.597654
O29   O     O_3   0.698353 0.024158 0.124983 -0.681887
O30   O     O_3   0.264876 0.977889 0.039655 -0.736718
O31   O     O_3   0.302243 0.526766 0.861255 -0.761096
O32   O     O_3   0.753980 0.477013 0.059898 -0.712317
O33   O     O_R   0.267710 0.831800 0.902110 -0.502415
O34   O     O_R   0.099480 0.674460 0.038850 -0.508683
O35   O     O_R   0.900520 0.325540 0.961150 -0.500679
O36   O     O_R   0.900520 0.174460 0.961150 -0.501095
O37   O     O_R   0.099480 0.825540 0.038850 -0.510803
O38   O     O_R   0.116720 0.669210 0.267660 -0.516437

loop_
_geom_bond_atom_site_label_1
_geom_bond_atom_site_label_2
_ccdc_geom_bond_type
C24   O15   A    
C44   C49   A    
C15   H5    S    
C30   C51   A    
C58   H28   S    
C12   O35   A    
C4    C8    D    
C61   H39   S    
Cr4   O6    S    
C28   C56   A    
C7    C8    S    
C23   O3    A    
Cr2   O23   S    
C20   C30   S    
C34   O37   A    
C4    O31   S    
C51   C62   A    
C46   H45   S    
C53   H14   S    
C26   O33   A    
C38   C42   A    
C5    H2    S    
C3    C7    D    
C10   C15   D    
C31   C36   A    
C54   H17   S    
C13   H11   S    
C19   O10   A    
C1    O34   A    
C11   C16   D    
C61   H38   S    
C26   C64   S    
C21   O13   A    
C36   C40   A    
C55   H21   S    
C26   O17   A    
C12   O2    A    
C58   O25   S    
C33   C62   A    
C57   H26   S    
C40   O20   S    
Cr6   O15   S    
C41   C46   A    
C53   H16   S    
C60   H33   S    
C19   C27   S    
C43   C48   A    
C20   O11   A    
C27   C50   A    
C18   O5    A    
C27   C45   A    
C35   C63   A    
C44   H44   S    
C34   O4    A    
C30   C63   A    
C64   O30   S    
C31   O25   S    
C59   H30   S    
Cr4   O19   S    
C2    C6    D    
C58   H27   S    
C7    H4    S    
C22   O1    A    
C19   O6    A    
C32   O26   S    
C42   O22   S    
C53   O20   S    
C59   H31   S    
C39   H34   S    
C18   C28   S    
C54   H19   S    
Cr3   O8    S    
Cr2   O36   S    
C9    C14   D    
C16   C17   S    
C39   C43   A    
C11   H13   S    
C2    O29   S    
C21   C29   S    
Cr6   O11   S    
C50   C56   A    
C55   O22   S    
C5    C64   D    
Cr3   O38   S    
C35   O28   S    
C14   H6    S    
Cr1   O33   S    
C1    O38   A    
C35   C39   A    
C61   O28   S    
C55   H22   S    
C18   O9    A    
C4    C22   S    
C28   C49   A    
C54   O21   S    
C45   C49   A    
Cr5   O13   S    
C17   H7    S    
Cr1   O1    S    
C32   C37   A    
C25   O16   A    
C33   O27   S    
C57   O24   S    
C59   O26   S    
Cr5   O18   S    
C57   H24   S    
C31   C45   A    
C9    C34   S    
C37   H12   S    
C1    C13   S    
C60   O27   S    
H40   O29   S    
Cr3   O4    S    
C60   H36   S    
Cr6   O10   S    
C29   C62   A    
C3    O32   S    
C22   O14   A    
C14   C15   S    
C59   H32   S    
H43   O32   S    
C25   O23   A    
C58   H29   S    
C3    C24   S    
C52   C63   A    
Cr3   O5    S    
Cr4   O3    S    
Cr2   O35   S    
C47   C51   A    
C10   H9    S    
C36   H1    S    
C48   H47   S    
C10   C23   S    
C55   H20   S    
C46   C50   A    
C33   C38   A    
C13   C17   D    
Cr1   O34   S    
Cr3   O18   S    
C20   O7    A    
Cr1   O37   S    
H41   O30   S    
Cr4   O2    S    
C54   H18   S    
C5    C6    S    
Cr2   O19   S    
Cr5   O14   S    
C38   H23   S    
C8    H3    S    
C6    H48   S    
C2    C25   S    
C16   H8    S    
C42   C47   A    
C37   C41   A    
C61   H37   S    
C41   O21   S    
Cr1   O18   S    
C47   H46   S    
C24   O12   A    
C40   C44   A    
Cr5   O9    S    
Cr6   O19   S    
Cr5   O17   S    
C57   H25   S    
C23   O36   A    
Cr6   O16   S    
C32   C56   A    
H42   O31   S    
C43   O24   S    
C53   H15   S    
C21   O8    A    
C48   C52   A    
Cr4   O7    S    
C9    H10   S    
C60   H35   S    
C11   C12   S    
Cr2   O12   S    
C29   C52   A    
