data_mof_unit_38402.cif
_audit_creation_date              2012-12-10T17:32:41-0500
_audit_creation_method            fapswitch 2.2
_symmetry_space_group_name_H-M    P1
_symmetry_Int_Tables_number       1
_space_group_crystal_system       triclinic
_cell_length_a                    12.184403
_cell_length_b                    12.756839
_cell_length_c                    14.098358
_cell_angle_alpha                 90.658205
_cell_angle_beta                  87.477368
_cell_angle_gamma                 94.106985
_cell_volume                      2183.54888508

loop_
_atom_site_label
_atom_site_type_symbol
_atom_type_description
_atom_site_fract_x
_atom_site_fract_y
_atom_site_fract_z
_atom_type_partial_charge
C1    C     C_R   0.522739 0.699599 0.504587 0.886269
C2    C     C_R   0.139968 0.494852 0.441281 0.244347
C3    C     C_R   0.975468 0.515793 0.543385 0.008742
C4    C     C_R   0.023326 0.478694 0.458318 -0.050986
C5    C     C_R   0.500754 0.499219 0.670339 0.882168
C6    C     C_R   0.499261 0.500730 0.329660 0.867398
C7    C     C_1   0.502206 0.497851 0.771815 -0.175352
C8    C     C_1   0.497562 0.500181 0.228171 -0.165540
C9    C     C_1   0.501880 0.497474 0.857222 0.005529
C10   C     C_1   0.497599 0.499390 0.142771 0.024644
C11   C     C_1   0.500385 0.497816 0.957263 0.035738
C12   C     C_R   0.477596 0.300236 0.496877 0.880839
C13   C     C_1   0.498888 0.498446 0.042726 0.038342
C14   C     C_R   0.464227 0.188643 0.484600 -0.051386
C15   C     C_R   0.538293 0.811226 0.514804 -0.055163
C16   C     C_R   0.575344 0.968167 0.609321 0.005363
C17   C     C_R   0.438159 0.033594 0.385116 -0.011755
C18   C     C_R   0.583860 0.859330 0.596245 0.078416
C19   C     C_R   0.430443 0.142508 0.398193 0.078391
C20   C     C_R   0.491667 0.868206 0.446241 -0.218350
C21   C     C_R   0.508957 0.131150 0.553949 -0.223343
C22   C     C_3   0.398381 0.210411 0.317145 -0.455749
C23   C     C_R   0.484482 0.975527 0.456583 0.060209
C24   C     C_3   0.276099 0.228076 0.323864 -0.661857
C25   C     C_3   0.631797 0.794580 0.672628 -0.397787
C26   C     C_3   0.547515 0.770160 0.754055 -0.826574
C27   C     C_2   0.619943 0.021801 0.694921 0.878471
C28   C     C_2   0.403991 0.981916 0.294961 0.872598
C29   C     C_3   0.183256 0.512585 0.339483 -0.387481
C30   C     C_3   0.227375 0.626800 0.323831 -0.739567
C31   C     C_3   0.814180 0.458336 0.657132 -0.397722
C32   C     C_3   0.890078 0.388544 0.708226 -0.822105
C33   C     C_2   0.231929 0.620074 0.665196 1.018874
C34   C     C_R   0.522552 0.025041 0.540787 0.057281
C35   C     C_2   0.767582 0.386607 0.330645 1.025222
C36   C     C_2   0.994113 0.344599 0.327667 0.881069
C37   C     C_2   0.996789 0.637518 0.683715 0.915365
C38   C     C_R   0.952610 0.426468 0.393103 -0.172402
C39   C     C_R   0.045018 0.568318 0.609090 -0.178758
C40   C     C_R   0.837871 0.437347 0.402853 0.009849
C41   C     C_R   0.161258 0.563505 0.596608 0.003555
C42   C     C_R   0.858826 0.497200 0.560223 0.263639
H1    H     H_    0.537956 0.172404 0.616706 0.162994
H2    H     H_    0.584764 0.723266 0.808455 0.251368
H3    H     H_    0.660388 0.719551 0.644352 0.236564
H4    H     H_    0.706665 0.836371 0.700650 0.261747
H5    H     H_    0.587672 0.094235 0.819850 0.353389
H6    H     H_    0.449163 0.902586 0.176710 0.352774
H7    H     H_    0.157991 0.678899 0.327379 0.255489
H8    H     H_    0.285712 0.654589 0.378011 0.287345
H9    H     H_    0.269698 0.634487 0.252607 0.241345
H10   H     H_    0.242290 0.454469 0.317641 0.220418
H11   H     H_    0.117875 0.501481 0.287743 0.213161
H12   H     H_    0.457132 0.826051 0.386040 0.159565
H13   H     H_    0.842831 0.347309 0.767657 0.266744
H14   H     H_    0.921831 0.328332 0.658629 0.278113
H15   H     H_    0.960073 0.434776 0.739376 0.287224
H16   H     H_    0.790337 0.524574 0.703528 0.229050
H17   H     H_    0.741397 0.403591 0.645917 0.253814
H18   H     H_    0.292314 0.623827 0.796182 0.339159
H19   H     H_    0.667532 0.261595 0.293479 0.332681
H20   H     H_    0.009292 0.287935 0.193986 0.356514
H21   H     H_    0.991719 0.686419 0.820323 0.358808
H22   H     H_    0.254623 0.273657 0.261536 0.228904
H23   H     H_    0.225784 0.152111 0.324517 0.308572
H24   H     H_    0.255501 0.272500 0.389501 0.276035
H25   H     H_    0.446732 0.287280 0.316690 0.184490
H26   H     H_    0.418824 0.174758 0.246970 0.225155
H27   H     H_    0.520894 0.843445 0.788172 0.292679
H28   H     H_    0.474347 0.724220 0.727315 0.268839
N1    N     N_R   0.207800 0.519340 0.515940 -0.140823
N2    N     N_R   0.792200 0.480660 0.484060 -0.160825
O1    O     O_R   0.421690 0.658830 0.504250 -0.594146
O2    O     O_R   0.547660 0.058515 0.765399 -0.798187
O3    O     O_2   0.307964 0.979860 0.272933 -0.607259
O4    O     O_R   0.482198 0.935635 0.235670 -0.795259
O5    O     O_2   0.274967 0.707051 0.645728 -0.622864
O6    O     O_R   0.244374 0.576419 0.754264 -0.754077
O7    O     O_2   0.763608 0.427458 0.252929 -0.586892
O8    O     O_R   0.711765 0.289004 0.348937 -0.781362
O9    O     O_2   0.041813 0.272878 0.359921 -0.622071
O10   O     O_R   0.977151 0.348390 0.230371 -0.768406
O11   O     O_2   0.925881 0.695526 0.663138 -0.622636
O12   O     O_R   0.578310 0.341170 0.495750 -0.582808
O13   O     O_R   0.031310 0.636161 0.776902 -0.767729
O14   O     O_R   0.609320 0.646410 0.494030 -0.606709
O15   O     O_R   0.390680 0.353590 0.505970 -0.606324
O16   O     O_R   0.406170 0.506210 0.631400 -0.582397
O17   O     O_R   0.593830 0.493790 0.368600 -0.584495
O18   O     O_R   0.593790 0.493790 0.621170 -0.641068
O19   O     O_R   0.406210 0.506210 0.378830 -0.618580
O20   O     O_2   0.719511 0.034902 0.702823 -0.600057
Zn1   Zn    Zn3+2 0.374720 0.508290 0.506830 0.963013
Zn2   Zn    Zn3+2 0.625280 0.491710 0.493170 0.968578

loop_
_geom_bond_atom_site_label_1
_geom_bond_atom_site_label_2
_ccdc_geom_bond_type
C15   C18   A    
C30   H9    S    
C3    C42   A    
C31   C42   S    
H6    O4    S    
O1    Zn1   S    
C26   H2    S    
C39   C41   A    
H18   O6    S    
C17   C23   A    
C2    C29   S    
C14   C21   A    
C37   O13   S    
C33   O6    S    
H19   O8    S    
C6    O19   A    
C35   O8    S    
C12   O12   A    
C31   H17   S    
O17   Zn2   S    
O14   Zn2   S    
C16   C34   A    
C21   H1    S    
C5    O16   A    
C36   O10   S    
C1    C15   S    
C27   O2    S    
C32   H13   S    
C5    O18   A    
C24   H24   S    
C41   N1    A    
N2    Zn2   S    
C16   C27   S    
C30   H8    S    
C3    C39   A    
C24   H22   S    
H21   O13   S    
C18   C25   S    
C32   H15   S    
O18   Zn2   S    
C15   C20   A    
C19   C22   S    
C20   H12   S    
C5    C7    S    
C6    C8    S    
C21   C34   A    
C25   C26   S    
C2    C4    A    
C29   C30   S    
O19   Zn1   S    
C31   C32   S    
C20   C23   A    
C36   O9    D    
C23   C34   A    
C42   N2    A    
C27   O20   D    
O12   Zn2   S    
C9    C11   S    
C22   H26   S    
C24   H23   S    
C16   C18   A    
C30   H7    S    
C12   C14   S    
C26   H28   S    
C22   C24   S    
C2    N1    A    
C28   O4    S    
C25   H3    S    
C31   H16   S    
C1    O14   A    
C7    C9    T    
O16   Zn1   S    
C40   N2    A    
C12   O15   A    
C17   C28   S    
C14   C19   A    
H5    O2    S    
C4    C38   A    
C10   C13   S    
N1    Zn1   S    
C6    O17   A    
C1    O1    A    
C36   C38   S    
C35   C40   S    
C33   C41   S    
C37   C39   S    
C38   C40   A    
C11   C13   T    
C33   O5    D    
C29   H11   S    
O15   Zn1   S    
C35   O7    D    
C17   C19   A    
H20   O10   S    
C22   H25   S    
C8    C10   T    
C26   H27   S    
C37   O11   D    
C28   O3    D    
C25   H4    S    
C32   H14   S    
C3    C4    A    
C29   H10   S    
