data_mof_unit_56399.cif
_audit_creation_date              2013-03-05T15:54:33-0500
_audit_creation_method            fapswitch 2.2
_symmetry_space_group_name_H-M    P1
_symmetry_Int_Tables_number       1
_space_group_crystal_system       triclinic
_cell_length_a                    19.010948
_cell_length_b                    18.452719
_cell_length_c                    12.38598
_cell_angle_alpha                 90.001243
_cell_angle_beta                  129.040231
_cell_angle_gamma                 89.929679
_cell_volume                      3374.81105705

loop_
_atom_site_label
_atom_site_type_symbol
_atom_site_description
_atom_site_fract_x
_atom_site_fract_y
_atom_site_fract_z
_atom_type_partial_charge
O1    O     O_R   0.608610 0.924520 0.551740 -0.524473
O2    O     O_R   0.608610 0.075480 0.551740 -0.549686
O3    O     O_R   0.108610 0.424520 0.551740 -0.524488
O4    O     O_R   0.108610 0.575480 0.551740 -0.549671
O5    O     O_R   0.564110 0.924510 0.685150 -0.601370
O6    O     O_R   0.564110 0.075490 0.685150 -0.599487
O7    O     O_R   0.064110 0.424510 0.685150 -0.601259
O8    O     O_R   0.064110 0.575490 0.685150 -0.599523
C1    C     C_R   0.612091 0.898004 0.652687 0.802589
C2    C     C_R   0.611881 0.102095 0.652474 0.792234
C3    C     C_R   0.112157 0.398055 0.652772 0.802375
C4    C     C_R   0.111884 0.602092 0.652478 0.792183
Cu1   Cu    Cu3+1 0.526340 1.000000 0.421010 0.974941
Cu2   Cu    Cu3+1 0.026340 0.500000 0.421010 0.974933
Cu3   Cu    Cu3+1 0.473640 0.000000 0.578990 0.929722
Cu4   Cu    Cu3+1 0.973640 0.500000 0.578990 0.929758
O9    O     O_R   0.435880 0.075470 0.314850 -0.586855
O10   O     O_R   0.435880 0.924530 0.314850 -0.585983
O11   O     O_R   0.935880 0.575470 0.314850 -0.586924
O12   O     O_R   0.935880 0.424530 0.314850 -0.585959
O13   O     O_R   0.391380 0.075460 0.448260 -0.596700
O14   O     O_R   0.391380 0.924540 0.448260 -0.594151
O15   O     O_R   0.891380 0.575460 0.448260 -0.596718
O16   O     O_R   0.891380 0.424540 0.448260 -0.594078
C5    C     C_R   0.384549 0.099079 0.343086 0.789197
C6    C     C_R   0.384805 0.900812 0.343478 0.786378
C7    C     C_R   0.884547 0.599081 0.343082 0.789192
C8    C     C_R   0.884802 0.400814 0.343475 0.786432
C9    C     C_R   0.660079 0.306748 0.121853 -0.186101
C10   C     C_R   0.658754 0.692570 0.119692 -0.217328
C11   C     C_R   0.160099 0.806726 0.121886 -0.186057
C12   C     C_R   0.158601 0.192274 0.119180 -0.217126
H1    H     H_    0.227516 0.875188 0.300884 0.150249
H2    H     H_    0.227401 0.125785 0.301284 0.153300
H3    H     H_    0.727500 0.375210 0.300856 0.150246
H4    H     H_    0.727678 0.626180 0.301946 0.153370
H5    H     H_    0.523946 0.241673 0.890784 0.136046
H6    H     H_    0.522488 0.758936 0.889376 0.135218
H7    H     H_    0.023965 0.741661 0.890814 0.135996
H8    H     H_    0.022369 0.258467 0.888592 0.135238
H9    H     H_    0.598138 0.305870 0.108947 0.135337
H10   H     H_    0.597467 0.694752 0.108528 0.137796
H11   H     H_    0.098160 0.805842 0.108985 0.135490
H12   H     H_    0.097177 0.194250 0.107653 0.137826
C13   C     C_R   0.313161 0.849646 0.246976 -0.043824
C14   C     C_R   0.311991 0.149452 0.244765 -0.052150
C15   C     C_R   0.813149 0.349655 0.246963 -0.043897
C16   C     C_R   0.811982 0.649454 0.244745 -0.052195
C17   C     C_R   0.753830 0.166425 0.747796 -0.174236
C18   C     C_R   0.753030 0.832026 0.745880 -0.169148
C19   C     C_R   0.253852 0.666396 0.747838 -0.174226
C20   C     C_R   0.253547 0.332610 0.746799 -0.168984
C21   C     C_R   0.327712 0.706955 0.851826 -0.150746
C22   C     C_R   0.323743 0.286492 0.842998 -0.150133
C23   C     C_R   0.827682 0.206997 0.851769 -0.150700
C24   C     C_R   0.823013 0.785632 0.841639 -0.150213
C25   C     C_R   0.327589 0.740497 0.952012 -0.186700
C26   C     C_R   0.321356 0.249518 0.938333 -0.149519
C27   C     C_R   0.827561 0.240535 0.951960 -0.186665
C28   C     C_R   0.820713 0.748775 0.937159 -0.149698
C29   C     C_R   0.749874 0.238611 0.944274 0.096060
C30   C     C_R   0.745668 0.755596 0.935398 0.106406
C31   C     C_R   0.249894 0.738590 0.944306 0.096069
C32   C     C_R   0.246028 0.255938 0.935952 0.106705
C33   C     C_R   0.672149 0.200969 0.831830 0.090954
C34   C     C_R   0.669805 0.796659 0.827269 0.098715
C35   C     C_R   0.172165 0.700957 0.831852 0.090976
C36   C     C_R   0.170056 0.296791 0.827504 0.098635
C37   C     C_R   0.246256 0.773470 0.043213 0.078973
C38   C     C_R   0.243064 0.222424 0.036458 0.089951
C39   C     C_R   0.746238 0.273487 0.043186 0.079009
C40   C     C_R   0.742866 0.722264 0.036196 0.089973
C41   C     C_R   0.664716 0.272496 0.025382 0.172587
C42   C     C_R   0.662351 0.725248 0.020971 0.157675
C43   C     C_R   0.164735 0.772478 0.025412 0.172615
C44   C     C_R   0.162366 0.225125 0.020755 0.157541
C45   C     C_R   0.587518 0.240053 0.908608 -0.233837
C46   C     C_R   0.585505 0.758969 0.905456 -0.246563
C47   C     C_R   0.087536 0.740038 0.908635 -0.233808
C48   C     C_R   0.085502 0.258712 0.905033 -0.246325
C49   C     C_R   0.590399 0.206699 0.811371 -0.202259
C50   C     C_R   0.588481 0.792740 0.808523 -0.190430
C51   C     C_R   0.090413 0.706692 0.811390 -0.202326
C52   C     C_R   0.088599 0.292597 0.808310 -0.190521
C53   C     C_R   0.320441 0.811034 0.157714 -0.254730
C54   C     C_R   0.318041 0.186273 0.152595 -0.228231
C55   C     C_R   0.820427 0.311041 0.157700 -0.254707
C56   C     C_R   0.817862 0.686078 0.152226 -0.228107
C57   C     C_R   0.233924 0.845577 0.231939 -0.187552
C58   C     C_R   0.232990 0.154100 0.230379 -0.201023
C59   C     C_R   0.733907 0.345595 0.231913 -0.187496
C60   C     C_R   0.733141 0.654333 0.230768 -0.201120
C61   C     C_R   0.677930 0.159369 0.741342 -0.100796
C62   C     C_R   0.677172 0.839722 0.739776 -0.099816
C63   C     C_R   0.177943 0.659357 0.741361 -0.100780
C64   C     C_R   0.177445 0.339949 0.740142 -0.099683
H13   H     H_    0.384332 0.813568 0.178050 0.146276
H14   H     H_    0.382145 0.184720 0.173284 0.145358
H15   H     H_    0.884324 0.313561 0.178052 0.146292
H16   H     H_    0.881863 0.684395 0.172594 0.145488
H17   H     H_    0.757689 0.138271 0.675396 0.149586
H18   H     H_    0.759555 0.863256 0.678662 0.194849
H19   H     H_    0.257714 0.638234 0.675447 0.149642
H20   H     H_    0.260117 0.363952 0.679738 0.194986
H21   H     H_    0.389113 0.768338 0.032120 0.116704
H22   H     H_    0.378793 0.215224 0.010261 0.127778
H23   H     H_    0.889076 0.268391 0.032050 0.116736
H24   H     H_    0.877952 0.714220 0.008701 0.128098
H25   H     H_    0.386893 0.710330 0.857724 0.129212
H26   H     H_    0.381846 0.281036 0.846519 0.130867
H27   H     H_    0.886855 0.210388 0.857648 0.129118
H28   H     H_    0.880893 0.779858 0.844653 0.130944
H29   H     H_    0.526730 0.187372 0.718086 0.172102
H30   H     H_    0.525178 0.813854 0.716986 0.174132
H31   H     H_    0.026743 0.687370 0.718101 0.172077
H32   H     H_    0.025307 0.313606 0.716599 0.173964
C65   C     C_R   0.680326 0.974214 0.281386 0.335924
C66   C     C_R   0.180314 0.474187 0.281373 0.335926
N1    N     N_R   0.566260 0.000000 0.302220 -0.253946
N2    N     N_R   0.066260 0.500000 0.302220 -0.253913
C67   C     C_R   0.343713 0.003429 0.625321 -0.012538
C68   C     C_R   0.843713 0.503441 0.625319 -0.012582
C69   C     C_R   0.307528 0.005096 0.693620 -0.329130
C70   C     C_R   0.807527 0.505128 0.693616 -0.329153
C71   C     C_R   0.363744 0.002197 0.838923 0.512665
C72   C     C_R   0.863741 0.502234 0.838919 0.512561
C73   C     C_R   0.459953 0.000975 0.919297 -0.068666
C74   C     C_R   0.959949 0.500987 0.919295 -0.068702
C75   C     C_R   0.492960 0.998850 0.841878 0.155036
C76   C     C_R   0.992957 0.498849 0.841876 0.155106
C77   C     C_R   0.524908 0.999351 0.070763 -0.116684
C78   C     C_R   0.024904 0.499352 0.070759 -0.116666
C79   C     C_R   0.618402 0.988911 0.137118 -0.142408
C80   C     C_R   0.118394 0.488891 0.137109 -0.142395
C81   C     C_R   0.648450 0.991612 0.058338 0.312819
C82   C     C_R   0.148443 0.491581 0.058331 0.312810
C83   C     C_R   0.586340 0.996532 0.914994 -0.221907
C84   C     C_R   0.086336 0.496519 0.914991 -0.221898
C85   C     C_R   0.502491 0.006706 0.160879 -0.074204
C86   C     C_R   0.002490 0.506708 0.160880 -0.074328
C87   C     C_R   0.654433 0.985787 0.364057 0.572020
C88   C     C_R   0.154432 0.485785 0.364052 0.572185
N3    N     N_R   0.434410 0.000000 0.697680 -0.190779
N4    N     N_R   0.934410 0.500000 0.697680 -0.190747
H33   H     H_    0.435402 0.018907 0.122901 0.234360
H34   H     H_    0.935404 0.518910 0.122910 0.234314
H35   H     H_    0.298819 0.004930 0.512955 0.148826
H36   H     H_    0.798821 0.504943 0.512953 0.148844
H37   H     H_    0.234712 0.007629 0.633100 0.174374
H38   H     H_    0.734712 0.507679 0.633093 0.174371
H39   H     H_    0.614874 0.999729 0.863976 0.234141
H40   H     H_    0.114873 0.499720 0.863977 0.234091
N5    N     N_R   0.742974 0.995137 0.122528 0.163877
O17   O     O_R   0.774549 0.956746 0.073290 -0.373026
O18   O     O_R   0.793422 0.045703 0.212973 -0.320730
N6    N     N_R   0.242968 0.495075 0.122521 0.163874
O19   O     O_R   0.274530 0.456648 0.073300 -0.373037
O20   O     O_R   0.293436 0.545638 0.212956 -0.320759
O21   O     O_3   0.764592 0.944601 0.341481 -0.539742
C89   C     C_3   0.755591 0.868592 0.326803 -0.237191
H41   H     H_    0.709444 0.852376 0.215394 0.165592
H42   H     H_    0.731553 0.845626 0.381578 0.143775
H43   H     H_    0.823035 0.844701 0.374746 0.194495
O22   O     O_3   0.264563 0.444542 0.341449 -0.539760
C90   C     C_3   0.255521 0.368534 0.326776 -0.237179
H44   H     H_    0.209348 0.352315 0.215368 0.165517
H45   H     H_    0.231497 0.345595 0.381585 0.143901
H46   H     H_    0.322950 0.344620 0.374688 0.194473
O23   O     O_3   0.321819 0.002227 0.897812 -0.599750
C91   C     C_3   0.299170 0.930246 0.902755 -0.329489
H47   H     H_    0.360772 0.895633 0.966983 0.155926
H48   H     H_    0.249692 0.906943 0.796741 0.175943
H49   H     H_    0.266940 0.930103 0.952482 0.204835
O24   O     O_3   0.821817 0.502306 0.897809 -0.599850
C92   C     C_3   0.799109 0.430343 0.902731 -0.329480
H50   H     H_    0.860673 0.395684 0.966866 0.155951
H51   H     H_    0.749561 0.407074 0.796705 0.175981
H52   H     H_    0.766942 0.430228 0.952556 0.204796
O25   O     O_3   0.714536 0.974355 0.506349 -0.568069
C93   C     C_3   0.791006 0.019813 0.570878 -0.268367
H53   H     H_    0.820245 0.027391 0.680818 0.167382
H54   H     H_    0.774282 0.074407 0.521612 0.139046
H55   H     H_    0.844539 0.993537 0.573460 0.217857
O26   O     O_3   0.214541 0.474375 0.506351 -0.568159
C94   C     C_3   0.291027 0.519809 0.570842 -0.268854
H56   H     H_    0.320305 0.527388 0.680801 0.167330
H57   H     H_    0.274315 0.574404 0.521583 0.139198
H58   H     H_    0.344532 0.493513 0.573376 0.217944

loop_
_geom_bond_atom_site_label_1
_geom_bond_atom_site_label_2
_geom_bond_distance
_ccdc_geom_bond_type
C7    C16   1.459736 S    
C3    C64   1.471735 S    
C88   O26   1.385215 S    
C69   H37   1.083063 S    
C8    C15   1.458600 S    
C35   C51   1.412194 A    
C90   H44   1.113096 S    
C23   C27   1.388000 A    
C65   O21   1.383732 S    
O23   C91   1.409962 S    
C67   N3    1.353985 A    
C25   H21   1.075150 S    
O10   C6    1.301876 A    
C68   N4    1.353987 A    
C66   C80   1.414803 A    
C48   C52   1.385136 A    
C65   C79   1.414824 A    
C94   H57   1.114961 S    
H2    C58   1.083177 S    
C37   C53   1.401257 A    
C92   H51   1.113059 S    
H3    C59   1.083287 S    
O7    C3    1.301479 A    
C66   O22   1.383739 S    
C17   C61   1.400198 A    
C36   C64   1.420084 A    
C11   H11   1.084150 S    
Cu1   O10   1.945006 S    
C32   C36   1.418463 A    
O22   C90   1.411008 S    
Cu4   N4    2.024486 S    
H1    C57   1.083284 S    
C17   H17   1.078050 S    
C10   C42   1.403176 A    
C69   C71   1.400327 A    
C9    C41   1.402682 A    
C91   H47   1.112146 S    
C19   H19   1.078042 S    
O26   C94   1.412469 S    
C22   H26   1.082218 S    
C28   C30   1.418487 A    
C67   H35   1.081569 S    
O8    Cu4   1.945357 S    
O2    Cu1   1.955237 S    
C66   C88   1.403948 A    
O24   C92   1.409965 S    
O13   C5    1.300216 A    
C6    C13   1.458582 S    
Cu1   N1    2.036519 S    
O6    Cu3   1.945357 S    
C33   C49   1.412185 A    
Cu3   O14   1.954923 S    
C12   C58   1.391784 A    
O1    C1    1.304926 A    
C31   C37   1.423515 A    
C93   H54   1.114963 S    
C11   C57   1.390766 A    
C19   C63   1.400189 A    
C14   C58   1.399052 A    
C16   C60   1.399082 A    
C16   C56   1.394263 A    
C4    C63   1.472166 S    
C37   C43   1.421409 A    
N2    C86   1.369612 A    
C32   C38   1.422616 A    
O4    C4    1.305416 A    
C71   O23   1.378266 S    
C28   H24   1.076816 S    
C93   H55   1.108909 S    
C34   C62   1.420188 A    
C9    H9    1.084154 S    
H4    C60   1.083231 S    
C33   C61   1.418593 A    
C90   H45   1.113421 S    
C35   C63   1.418592 A    
C74   C78   1.458381 A    
O11   C7    1.301260 A    
C40   C56   1.400185 A    
C75   C83   1.395717 A    
C20   C22   1.385284 A    
C25   C31   1.419354 A    
C92   H52   1.109161 S    
C55   H15   1.075033 S    
C26   C32   1.418467 A    
C78   C86   1.430043 A    
C31   C35   1.419706 A    
C27   C29   1.419349 A    
O5    Cu3   1.942373 S    
C30   C34   1.418429 A    
C36   C52   1.413188 A    
C89   H43   1.109255 S    
C51   H31   1.080068 S    
C53   H13   1.075027 S    
C50   H30   1.079607 S    
C10   C60   1.391815 A    
C86   H34   1.068711 S    
C39   C41   1.421411 A    
C77   C85   1.430034 A    
C21   C25   1.387993 A    
C18   C62   1.402786 A    
C94   H58   1.108890 S    
C80   C82   1.408240 A    
O12   C8    1.301881 A    
C2    C61   1.472183 S    
C84   H40   1.062524 S    
C17   C23   1.383832 A    
H5    C45   1.083551 S    
C27   H23   1.075150 S    
C24   C28   1.389065 A    
C74   C76   1.439710 A    
C26   H22   1.076735 S    
C15   C55   1.393429 A    
C65   C87   1.403944 A    
C73   C75   1.439698 A    
O5    C1    1.301486 A    
Cu2   O12   1.945006 S    
C34   C50   1.413320 A    
C46   C50   1.385171 A    
C11   C43   1.402675 A    
O21   C89   1.411004 S    
C45   C49   1.383933 A    
O8    C4    1.301419 A    
H8    C48   1.083585 S    
C12   H12   1.084060 S    
C30   C40   1.422577 A    
N2    C88   1.358994 A    
C56   H16   1.076215 S    
H7    C47   1.083551 S    
O3    Cu2   1.952552 S    
Cu3   N3    2.024486 S    
C40   C42   1.420455 A    
O7    Cu4   1.942373 S    
C89   H42   1.113427 S    
C18   H18   1.082101 S    
Cu4   O15   1.952235 S    
O15   C7    1.300268 A    
Cu1   Cu3   2.702252 S    
C76   C84   1.395699 A    
C38   C44   1.420499 A    
N1    C87   1.358991 A    
O16   C8    1.299010 A    
C39   C55   1.401262 A    
C52   H32   1.079585 S    
N5    O18   1.301576 A    
C68   C70   1.386671 A    
O2    C2    1.305416 A    
C9    C59   1.390780 A    
C76   N4    1.387398 A    
C93   H53   1.108804 S    
C82   C84   1.383283 A    
C70   C72   1.400329 A    
C22   C26   1.389059 A    
C21   H25   1.082445 S    
C81   C83   1.383309 A    
C70   H38   1.083059 S    
N6    O19   1.301632 A    
C72   C74   1.429347 A    
C13   C57   1.398680 A    
C23   H27   1.082449 S    
C87   O25   1.385222 S    
C15   C59   1.398691 A    
Cu2   O11   1.942021 S    
C83   H39   1.062515 S    
C44   C48   1.390392 A    
C77   C79   1.425034 A    
C72   O24   1.378268 S    
C12   C44   1.403149 A    
C75   N3    1.387411 A    
O25   C93   1.412483 S    
C90   H46   1.109259 S    
H6    C46   1.083669 S    
Cu2   N2    2.036519 S    
C81   N5    1.437363 S    
Cu1   O9    1.942021 S    
C13   C53   1.393434 A    
N1    C85   1.369617 A    
C89   H41   1.113080 S    
C73   C77   1.458383 A    
N6    O20   1.301565 A    
O9    C5    1.301255 A    
C92   H50   1.112134 S    
C18   C24   1.385333 A    
C47   C51   1.383925 A    
C29   C39   1.423517 A    
C94   H56   1.108836 S    
C91   H48   1.113068 S    
C82   N6    1.437346 S    
C1    C62   1.471898 S    
C20   H20   1.082077 S    
C20   C64   1.402679 A    
Cu2   Cu4   2.702252 S    
O4    Cu2   1.955237 S    
C54   H14   1.076189 S    
Cu4   O16   1.954923 S    
C67   C69   1.386668 A    
O3    C3    1.304843 A    
O6    C2    1.301430 A    
O14   C6    1.299011 A    
C68   H36   1.081570 S    
C29   C33   1.419708 A    
Cu3   O13   1.952235 S    
O1    Cu1   1.952552 S    
C78   C80   1.425033 A    
C42   C46   1.390408 A    
C49   H29   1.080070 S    
C71   C73   1.429347 A    
C79   C81   1.408240 A    
C41   C45   1.390082 A    
C10   H10   1.084051 S    
C19   C21   1.383827 A    
N5    O17   1.301612 A    
C43   C47   1.390070 A    
C5    C14   1.459636 S    
C24   H28   1.082343 S    
C85   H33   1.068731 S    
C14   C54   1.394214 A    
C91   H49   1.109161 S    
C38   C54   1.400245 A    
