data_mof_unit_45991.cif
_audit_creation_date              2013-03-05T16:10:38-0500
_audit_creation_method            fapswitch 2.2
_symmetry_space_group_name_H-M    P1
_symmetry_Int_Tables_number       1
_space_group_crystal_system       triclinic
_cell_length_a                    20.708398
_cell_length_b                    7.183481
_cell_length_c                    20.327418
_cell_angle_alpha                 89.83433
_cell_angle_beta                  101.990226
_cell_angle_gamma                 89.878044
_cell_volume                      2957.87827285

loop_
_atom_site_label
_atom_site_type_symbol
_atom_site_description
_atom_site_fract_x
_atom_site_fract_y
_atom_site_fract_z
_atom_type_partial_charge
O1    O     O_R   0.807340 0.614490 0.194100 -0.563605
O2    O     O_R   0.192660 0.385510 0.805900 -0.558989
O3    O     O_R   0.692660 0.114490 0.305900 -0.567174
O4    O     O_R   0.307340 0.885510 0.694100 -0.560487
O5    O     O_R   0.672910 0.282300 0.178070 -0.574750
O6    O     O_R   0.327090 0.717700 0.821930 -0.528146
O7    O     O_R   0.827090 0.782300 0.321930 -0.573875
O8    O     O_R   0.172910 0.217700 0.678070 -0.522782
C1    C     C_R   0.650920 0.454716 0.159035 1.133281
C2    C     C_R   0.349508 0.546618 0.840473 1.147170
C3    C     C_R   0.849318 0.953861 0.340856 1.141598
C4    C     C_R   0.151223 0.047416 0.658699 1.133724
O9    O     O_R   0.805620 0.284620 0.186180 -0.570728
O10   O     O_R   0.194380 0.715380 0.813820 -0.568064
O11   O     O_R   0.694380 0.784620 0.313820 -0.566046
O12   O     O_R   0.305620 0.215380 0.686180 -0.567507
O13   O     O_R   0.826310 0.116750 0.314070 -0.536964
O14   O     O_R   0.173690 0.883250 0.685930 -0.592133
O15   O     O_R   0.673690 0.616750 0.185930 -0.536343
O16   O     O_R   0.326310 0.383250 0.814070 -0.588714
C5    C     C_R   0.824990 0.453340 0.171655 0.999150
C6    C     C_R   0.175043 0.546705 0.828377 1.005446
C7    C     C_R   0.675180 0.953335 0.328532 0.991837
C8    C     C_R   0.324767 0.046734 0.671406 0.996491
O17   O     O_3   0.756630 0.448770 0.291950 -0.266578
O18   O     O_3   0.243370 0.551230 0.708050 -0.273536
O19   O     O_3   0.743370 0.948770 0.208050 -0.271001
O20   O     O_3   0.256630 0.051230 0.791950 -0.271104
V1    V     V_3+5 0.748770 0.172970 0.242220 1.349808
V2    V     V_3+5 0.251230 0.827030 0.757780 1.355129
V3    V     V_3+5 0.751230 0.672970 0.257780 1.356791
V4    V     V_3+5 0.248770 0.327030 0.742220 1.357492
C9    C     C_R   0.463479 0.161350 0.503927 -0.194025
C10   C     C_R   0.536369 0.838119 0.495797 -0.194041
C11   C     C_R   0.036482 0.660908 0.995881 -0.197834
C12   C     C_R   0.962865 0.339571 0.003476 -0.198810
H1    H     H_    0.435777 0.287672 0.507829 0.211409
H2    H     H_    0.564133 0.712111 0.491755 0.216754
H3    H     H_    0.064483 0.786392 0.992173 0.212342
H4    H     H_    0.934853 0.214137 0.007235 0.215717
C13   C     C_R   0.454463 0.006543 0.543262 -0.084261
C14   C     C_R   0.545445 0.993041 0.456607 -0.091645
C15   C     C_R   0.044975 0.507241 0.956153 -0.084689
C16   C     C_R   0.954440 0.493228 0.043255 -0.092149
C17   C     C_R   0.491393 0.841744 0.539394 0.348047
C18   C     C_R   0.508650 0.157639 0.460634 0.367276
C19   C     C_R   0.007767 0.343510 0.959807 0.352591
C20   C     C_R   0.991554 0.656932 0.039461 0.373060
C21   C     C_1   0.408318 0.023554 0.588247 0.214243
C22   C     C_1   0.591538 0.976748 0.411575 0.216003
C23   C     C_1   0.091098 0.523817 0.911119 0.213293
C24   C     C_1   0.908615 0.476698 0.088583 0.213613
C25   C     C_1   0.629897 0.963945 0.374005 -0.104885
C26   C     C_1   0.369986 0.036435 0.625850 -0.085649
C27   C     C_1   0.870360 0.463939 0.126257 -0.087304
C28   C     C_1   0.129553 0.536383 0.873651 -0.088339
C29   C     C_R   0.912103 0.964938 0.391939 -0.519563
C30   C     C_R   0.089581 0.040573 0.606307 -0.517567
C31   C     C_R   0.588953 0.467857 0.106911 -0.513417
C32   C     C_R   0.412049 0.537116 0.891826 -0.512935
C33   C     C_R   0.971927 0.972408 0.580360 0.430121
C34   C     C_R   0.032664 0.935298 0.420132 0.434623
C35   C     C_R   0.531385 0.484442 0.917523 0.409834
C36   C     C_R   0.469793 0.419849 0.075708 0.455689
C37   C     C_R   0.029229 0.023501 0.627417 0.302358
C38   C     C_R   0.972552 0.940241 0.371111 0.301256
C39   C     C_R   0.472287 0.524043 0.870049 0.291255
C40   C     C_R   0.528233 0.434121 0.125851 0.292007
C41   C     C_R   0.091528 0.036303 0.536750 0.520953
C42   C     C_R   0.911188 0.997970 0.460588 0.515081
C43   C     C_R   0.410742 0.526068 0.961077 0.524674
C44   C     C_R   0.590622 0.509983 0.038924 0.524405
C45   C     C_R   0.032819 0.986095 0.488521 -0.275554
C46   C     C_R   0.971359 0.984704 0.509929 -0.279232
C47   C     C_R   0.469890 0.479831 0.008569 -0.279194
C48   C     C_R   0.531530 0.492199 0.988066 -0.273677
N1    N     N_R   0.515809 0.321260 0.421559 0.256737
O21   O     O_R   0.467850 0.441648 0.407058 -0.341655
O22   O     O_R   0.571931 0.360228 0.405314 -0.353158
N2    N     N_R   0.484992 0.678195 0.578916 0.249119
O23   O     O_R   0.531567 0.553068 0.589867 -0.333043
O24   O     O_R   0.431039 0.645911 0.600585 -0.344243
N3    N     N_R   0.984985 0.819488 0.078949 0.255017
O25   O     O_R   0.033070 0.938690 0.093108 -0.355206
O26   O     O_R   0.929070 0.859396 0.095632 -0.351749
N4    N     N_R   0.014249 0.180867 0.920304 0.249419
O27   O     O_R   0.966914 0.059016 0.907651 -0.330309
O28   O     O_R   0.069521 0.144031 0.901665 -0.347538
S1    S     S_3+6 0.838375 0.099249 0.480951 0.018064
O29   O     O_2   0.788217 0.949703 0.483178 -0.275774
O30   O     O_2   0.854314 0.198215 0.547280 -0.203825
O31   O     O_3   0.804342 0.259345 0.423598 -0.514170
H5    H     H_    0.759815 0.283904 0.432516 0.379708
S2    S     S_3+6 0.161022 0.146279 0.512091 0.014990
O32   O     O_2   0.217592 0.011003 0.518401 -0.270644
O33   O     O_2   0.142337 0.219136 0.441380 -0.239513
O34   O     O_3   0.187454 0.330427 0.561398 -0.517196
H6    H     H_    0.221074 0.391485 0.540529 0.392170
S3    S     S_3+6 0.661730 0.630283 0.022855 0.021497
O35   O     O_2   0.718361 0.495687 0.027989 -0.297487
O36   O     O_2   0.647811 0.721604 0.955016 -0.207114
O37   O     O_3   0.684294 0.801990 0.078871 -0.504806
H7    H     H_    0.727960 0.844189 0.071907 0.383346
S4    S     S_3+6 0.339519 0.618579 0.987186 0.017112
O38   O     O_2   0.284454 0.478512 0.974288 -0.279564
O39   O     O_2   0.355293 0.669349 0.060361 -0.230168
O40   O     O_3   0.313287 0.814101 0.943761 -0.512845
H8    H     H_    0.283454 0.876616 0.969203 0.397505
S5    S     S_3+6 0.969744 0.921082 0.282049 0.066464
O41   O     O_2   0.940339 0.735765 0.258656 -0.233684
O42   O     O_2   0.925556 0.071078 0.245282 -0.312167
O43   O     O_3   0.043042 0.938298 0.259235 -0.376420
H9    H     H_    0.043781 0.065915 0.240119 0.384867
S6    S     S_3+6 0.026648 0.082750 0.712509 0.063395
O44   O     O_2   0.063989 0.939066 0.759323 -0.211159
O45   O     O_2   0.060101 0.267596 0.728669 -0.327785
O46   O     O_3   0.949848 0.100168 0.726950 -0.383696
H10   H     H_    0.943776 0.233203 0.737090 0.377762
S7    S     S_3+6 0.526761 0.422119 0.213824 0.066319
O47   O     O_2   0.552056 0.234809 0.240764 -0.221446
O48   O     O_2   0.571056 0.569207 0.251692 -0.298881
O49   O     O_3   0.450951 0.454609 0.229507 -0.395084
H11   H     H_    0.446436 0.591084 0.233472 0.375768
S8    S     S_3+6 0.471160 0.571541 0.782810 0.063954
O50   O     O_2   0.432621 0.421789 0.740532 -0.222295
O51   O     O_2   0.436144 0.753817 0.764378 -0.324062
O52   O     O_3   0.545580 0.586154 0.762527 -0.369454
H12   H     H_    0.552755 0.720531 0.755549 0.376669
S9    S     S_3+6 0.915563 0.820674 0.609503 0.111198
O53   O     O_2   0.862929 0.927685 0.634032 -0.097509
O54   O     O_2   0.883211 0.692183 0.554124 -0.245922
O55   O     O_3   0.957462 0.692365 0.674032 -0.458744
H13   H     H_    0.949937 0.560725 0.660339 0.375692
S10   S     S_3+6 0.100332 0.807011 0.399569 0.106910
O56   O     O_2   0.141224 0.929016 0.364202 -0.134090
O57   O     O_2   0.143126 0.726154 0.461988 -0.249843
O58   O     O_3   0.069652 0.630164 0.348182 -0.447182
H14   H     H_    0.101632 0.526083 0.359406 0.399345
S11   S     S_3+6 0.594520 0.358001 0.888256 0.113036
O59   O     O_2   0.639804 0.486628 0.860832 -0.110400
O60   O     O_2   0.634886 0.244267 0.944284 -0.240982
O61   O     O_3   0.558838 0.213791 0.826013 -0.445724
H15   H     H_    0.566563 0.085993 0.844443 0.372645
S12   S     S_3+6 0.407988 0.260985 0.090897 0.095527
O62   O     O_2   0.358694 0.356878 0.124454 -0.149414
O63   O     O_2   0.372098 0.175306 0.026064 -0.242103
O64   O     O_3   0.444383 0.088378 0.141686 -0.464747
H16   H     H_    0.407501 0.018333 0.154228 0.397344

loop_
_geom_bond_atom_site_label_1
_geom_bond_atom_site_label_2
_geom_bond_distance
_ccdc_geom_bond_type
O17   V3    1.746217 S    
C43   S4    1.794921 S    
O1    C5    1.323773 A    
O19   V1    1.750357 S    
O13   V1    1.973325 S    
C45   C46   1.428089 A    
O3    C7    1.323149 A    
O64   H16   0.991616 S    
C10   C14   1.402299 A    
C29   C38   1.413299 A    
C44   C48   1.434688 A    
O15   V3    1.976452 S    
C39   S8    1.800271 S    
S10   O58   1.686419 S    
S4    O39   1.501340 D    
S6    O44   1.501350 D    
N1    O21   1.301673 A    
O7    C3    1.345472 A    
O5    C1    1.346366 A    
C36   C40   1.415138 A    
O9    V1    1.970491 S    
S5    O42   1.504628 D    
C40   S7    1.796669 S    
O4    C8    1.323711 A    
S11   O61   1.685934 S    
N4    O28   1.305027 A    
C35   C48   1.434582 A    
C8    C26   1.449242 S    
C21   C26   1.214558 T    
O1    V3    1.956578 S    
C12   C19   1.412897 A    
O2    V4    1.956581 S    
C23   C28   1.214204 T    
C14   C18   1.417039 A    
O3    V1    1.956033 S    
O43   H9    0.996039 S    
C1    O15   1.332274 A    
N3    O25   1.301382 A    
C32   C39   1.410675 A    
C2    O16   1.339761 A    
O55   H13   0.990001 S    
O2    C6    1.324076 A    
O40   H8    0.991815 S    
C34   C45   1.437641 A    
C41   C45   1.441525 A    
O14   V2    1.973329 S    
C29   C42   1.420162 A    
S1    O30   1.501303 D    
C11   C15   1.401776 A    
C24   C27   1.214258 T    
C33   S9    1.786158 S    
C31   C44   1.421325 A    
S9    O55   1.685126 S    
C4    C30   1.483858 S    
C16   C24   1.458336 S    
O11   C7    1.328842 A    
O12   C8    1.328369 A    
C10   H2    1.083754 S    
C9    C18   1.411471 A    
O37   H7    0.991824 S    
O10   V2    1.970491 S    
S12   O64   1.684233 S    
C11   C20   1.411964 A    
C13   C21   1.458578 S    
S4    O38   1.504537 D    
O34   H6    0.989930 S    
O5    V1    1.980599 S    
S7    O48   1.505263 D    
S11   O59   1.503932 D    
C35   C39   1.419907 A    
C22   C25   1.214434 T    
O7    V3    1.986233 S    
C34   C38   1.424094 A    
O8    V4    1.986233 S    
C19   N4    1.441326 S    
C12   H4    1.083739 S    
S12   O63   1.505884 D    
C41   S2    1.802409 S    
S5    O43   1.681456 S    
C5    C27   1.449231 S    
O18   V4    1.746218 S    
N2    O23   1.301408 A    
S10   O57   1.502996 D    
C36   S12   1.790021 S    
S2    O34   1.684290 S    
O6    V2    1.980598 S    
C9    H1    1.084398 S    
C1    C31   1.487363 S    
C11   H3    1.083718 S    
C47   C48   1.425577 A    
C42   C46   1.430860 A    
C31   C40   1.410654 A    
C30   C37   1.408673 A    
S3    O35   1.504916 D    
C37   S6    1.794001 S    
O8    C4    1.335922 A    
N1    O22   1.303232 A    
O9    C5    1.328994 A    
C10   C17   1.412979 A    
S1    O31   1.681035 S    
S2    O33   1.501134 D    
C14   C22   1.458031 S    
S8    O52   1.679438 S    
N2    O24   1.304256 A    
N3    O26   1.303926 A    
C12   C16   1.401992 A    
C42   S1    1.797396 S    
O52   H12   0.991240 S    
S8    O51   1.503627 D    
S9    O53   1.500671 D    
O16   V4    1.976450 S    
S7    O49   1.681523 S    
C2    C32   1.486338 S    
C3    O13   1.333721 A    
S3    O36   1.497946 D    
C34   S10   1.796569 S    
N4    O27   1.301311 A    
C35   S11   1.791514 S    
S12   O62   1.506932 D    
O6    C2    1.337959 A    
C18   N1    1.441751 S    
S6    O45   1.504283 D    
S7    O47   1.502764 D    
C30   C41   1.423244 A    
O11   V3    1.971134 S    
S10   O56   1.501499 D    
C33   C46   1.431748 A    
O12   V4    1.971131 S    
O58   H14   0.991858 S    
C32   C43   1.415574 A    
C20   N3    1.440998 S    
C6    C28   1.449140 S    
C9    C13   1.403076 A    
O10   C6    1.328638 A    
O20   V2    1.750357 S    
O49   H11   0.989724 S    
C3    C29   1.488277 S    
O46   H10   0.991450 S    
C43   C47   1.430981 A    
S11   O60   1.503172 D    
C15   C23   1.458625 S    
C7    C25   1.449083 S    
O31   H5    0.991555 S    
C36   C47   1.430380 A    
C17   N2    1.443163 S    
C38   S5    1.804889 S    
S2    O32   1.505027 D    
S6    O46   1.680636 S    
C33   C37   1.410685 A    
S3    O37   1.681020 S    
C4    O14   1.341805 A    
C13   C17   1.419207 A    
O61   H15   0.990556 S    
S1    O29   1.502987 D    
S5    O41   1.501954 D    
C15   C19   1.417646 A    
S4    O40   1.684443 S    
O4    V2    1.956031 S    
C16   C20   1.416857 A    
S8    O50   1.502248 D    
S9    O54   1.504442 D    
C44   S3    1.795944 S    
