data_mof_unit_22535.cif
_audit_creation_date              2012-10-26T19:52:24-0400
_audit_creation_method            fapswitch 2.2
_symmetry_space_group_name_H-M    P1
_symmetry_Int_Tables_number       1
_space_group_crystal_system       triclinic
_cell_length_a                    9.539477
_cell_length_b                    10.849892
_cell_length_c                    13.430341
_cell_angle_alpha                 90.251548
_cell_angle_beta                  72.637342
_cell_angle_gamma                 90.222113
_cell_volume                      1326.71497705

loop_
_atom_site_label
_atom_site_type_symbol
_atom_type_description
_atom_site_fract_x
_atom_site_fract_y
_atom_site_fract_z
_atom_type_partial_charge
C1    C     C_R   0.498947 0.737681 0.503829 0.540334
C2    C     C_R   0.373767 0.501139 0.814933 -0.001853
C3    C     C_R   0.397693 0.934981 0.469217 -0.011015
C4    C     C_R   0.421400 0.503699 0.700191 0.530588
C5    C     C_R   0.501335 0.871448 0.503941 -0.000615
C6    C     C_R   0.615452 0.939256 0.527329 0.210109
C7    C     C_R   0.618912 0.066932 0.518096 -0.096980
C8    C     C_R   0.504488 0.129554 0.494535 -0.043631
C9    C     C_R   0.398285 0.061935 0.465642 -0.001687
C10   C     C_3   0.234706 0.069478 0.504415 -0.249296
C11   C     C_3   0.233667 0.929713 0.508522 -0.253527
C12   C     C_R   0.436440 0.503861 0.978784 0.059179
C13   C     C_R   0.946343 0.408025 0.450803 0.157583
C14   C     C_R   0.901995 0.583199 0.557337 0.011992
C15   C     C_R   0.050854 0.583300 0.557321 -0.005507
C16   C     C_R   0.500341 0.262526 0.499063 0.548316
C17   C     C_R   0.093869 0.408089 0.450750 0.148271
C18   C     C_3   0.146057 0.377890 0.337415 -0.267885
C19   C     C_3   0.987026 0.376428 0.337776 -0.285236
C20   C     C_R   0.578700 0.500718 0.300078 0.536680
C21   C     C_R   0.764249 0.636641 0.039146 -0.148265
C22   C     C_R   0.624552 0.517038 0.186941 -0.005490
C23   C     C_R   0.467528 0.540597 0.873259 0.015939
C24   C     C_R   0.237747 0.447104 0.866502 -0.133500
C25   C     C_R   0.197519 0.427511 0.973343 -0.154574
C26   C     C_R   0.295945 0.453865 0.028894 -0.077590
C27   C     C_R   0.543281 0.525780 0.031721 0.077508
C28   C     C_R   0.664442 0.604497 0.985149 0.010865
C29   C     C_R   0.683948 0.651730 0.885601 -0.141594
C30   C     C_R   0.588071 0.619269 0.829993 -0.123868
C31   C     C_R   0.536216 0.470113 0.128047 0.217364
C32   C     C_R   0.741298 0.596739 0.140899 -0.171052
Cu1   Cu    Cu3+1 0.359330 0.500020 0.500010 0.937855
Cu2   Cu    Cu3+1 0.640670 0.499980 0.499990 0.946577
H1    H     H_    0.704889 0.117201 0.538524 0.162637
H2    H     H_    0.774527 0.713500 0.850097 0.108998
H3    H     H_    0.947397 0.283210 0.324215 0.131163
H4    H     H_    0.855803 0.697797 0.004550 0.121022
H5    H     H_    0.256699 0.439983 0.111840 0.166178
H6    H     H_    0.090644 0.389005 0.013080 0.123242
H7    H     H_    0.605674 0.661609 0.754671 0.117960
H8    H     H_    0.811463 0.631760 0.184911 0.135836
H9    H     H_    0.187227 0.106441 0.444525 0.139104
H10   H     H_    0.484282 0.322024 0.213709 0.326968
H11   H     H_    0.162915 0.418374 0.823950 0.137544
H12   H     H_    0.194006 0.113602 0.582630 0.149154
H13   H     H_    0.666355 0.825191 0.619536 0.315602
H14   H     H_    0.192272 0.892631 0.589132 0.133179
H15   H     H_    0.185419 0.886229 0.451107 0.159103
H16   H     H_    0.827963 0.651841 0.602302 0.123661
H17   H     H_    0.088175 0.652174 0.602161 0.112090
H18   H     H_    0.209521 0.455051 0.291052 0.182611
H19   H     H_    0.199327 0.286010 0.321989 0.146346
H20   H     H_    0.961070 0.451026 0.289648 0.150368
N1    N     N_R   0.852320 0.499070 0.499340 -0.229808
N2    N     N_R   0.148230 0.499110 0.499340 -0.233166
O1    O     O_R   0.381190 0.680360 0.500000 -0.508120
O2    O     O_3   0.718582 0.885988 0.566489 -0.705743
O3    O     O_R   0.618780 0.680320 0.499990 -0.486218
O4    O     O_R   0.323230 0.500000 0.650990 -0.508852
O5    O     O_R   0.560820 0.499960 0.650980 -0.505352
O6    O     O_R   0.381220 0.319680 0.500010 -0.495941
O7    O     O_R   0.618810 0.319640 0.500000 -0.505991
O8    O     O_R   0.439180 0.500040 0.349020 -0.489039
O9    O     O_R   0.676770 0.500000 0.349010 -0.507115
O10   O     O_3   0.452661 0.364830 0.159030 -0.743414

loop_
_geom_bond_atom_site_label_1
_geom_bond_atom_site_label_2
_ccdc_geom_bond_type
C20   O8    A    
C31   O10   S    
C2    C4    S    
C30   H7    S    
C10   H12   S    
C6    C7    A    
C3    C9    A    
C16   O7    A    
C15   H17   S    
C9    C10   S    
C6    O2    S    
H10   O10   S    
C29   H2    S    
C17   N2    A    
C13   C17   A    
C15   N2    A    
C4    O4    A    
Cu1   N2    S    
C14   N1    A    
C25   C26   A    
C18   H18   S    
Cu2   N1    S    
C8    C16   S    
C14   H16   S    
H13   O2    S    
C12   C23   A    
C11   H14   S    
C29   C30   A    
C22   C32   A    
Cu1   O8    S    
C11   H15   S    
C24   H11   S    
C19   H20   S    
C28   C29   A    
C21   C28   A    
C20   C22   S    
C17   C18   S    
Cu1   O4    S    
C1    O1    A    
C2    C23   A    
C1    O3    A    
C25   H6    S    
C2    C24   A    
C5    C6    A    
C21   C32   A    
C1    C5    S    
C26   H5    S    
C3    C11   S    
C10   C11   S    
C13   C19   S    
C12   C27   A    
C27   C31   A    
C23   C30   A    
C20   O9    A    
C7    C8    A    
Cu1   Cu2   S    
C24   C25   A    
Cu2   O9    S    
C8    C9    A    
C18   C19   S    
C22   C31   A    
C27   C28   A    
C32   H8    S    
C14   C15   A    
Cu2   O7    S    
Cu1   O1    S    
C19   H3    S    
C18   H19   S    
C3    C5    A    
C10   H9    S    
Cu2   O3    S    
C7    H1    S    
C4    O5    A    
C16   O6    A    
Cu2   O5    S    
C21   H4    S    
C12   C26   A    
Cu1   O6    S    
C13   N1    A    
