data_mof_unit_31395.cif
_audit_creation_date              2012-10-26T21:03:54-0400
_audit_creation_method            fapswitch 2.2
_symmetry_space_group_name_H-M    P1
_symmetry_Int_Tables_number       1
_space_group_crystal_system       triclinic
_cell_length_a                    15.143459
_cell_length_b                    13.927395
_cell_length_c                    10.783867
_cell_angle_alpha                 90.02805
_cell_angle_beta                  91.487374
_cell_angle_gamma                 89.984092
_cell_volume                      2273.64723344

loop_
_atom_site_label
_atom_site_type_symbol
_atom_type_description
_atom_site_fract_x
_atom_site_fract_y
_atom_site_fract_z
_atom_type_partial_charge
C1    C     C_R   0.329790 0.500039 0.501488 0.567293
C2    C     C_R   0.438810 0.107611 0.429976 -0.156218
C3    C     C_R   0.563224 0.210628 0.568506 0.382919
C4    C     C_R   0.437961 0.209669 0.430821 0.378797
C5    C     C_R   0.502563 0.054940 0.499337 -0.045813
C6    C     C_R   0.459645 0.892511 0.405096 -0.163955
C7    C     C_R   0.546819 0.891500 0.593177 -0.165899
C8    C     C_R   0.452799 0.790736 0.410552 0.392764
C9    C     C_R   0.545838 0.789402 0.591877 0.380389
C10   C     C_R   0.503278 0.945279 0.499371 -0.046119
C11   C     C_R   0.500205 0.499830 0.262526 0.591523
C12   C     C_R   0.669920 0.500002 0.501033 0.568890
C13   C     C_R   0.501867 0.500167 0.737249 0.566606
C14   C     C_R   0.445675 0.556348 0.060547 -0.083170
C15   C     C_R   0.448736 0.560146 0.933012 -0.079669
C16   C     C_R   0.504447 0.499670 0.129379 -0.029343
C17   C     C_R   0.506953 0.501905 0.870224 -0.054392
C18   C     C_R   0.570089 0.447167 0.067986 0.232253
C19   C     C_R   0.573104 0.451061 0.937200 0.243836
C20   C     C_3   0.350420 0.570135 0.916225 0.183732
C21   C     C_3   0.346058 0.564185 0.058429 0.187816
C22   C     C_R   0.091066 0.578178 0.479095 -0.168861
C23   C     C_R   0.189295 0.413724 0.535095 -0.174317
C24   C     C_R   0.907378 0.564008 0.570341 -0.182193
C25   C     C_R   0.183050 0.583672 0.483869 0.265287
C26   C     C_R   0.815439 0.571466 0.564048 0.233539
C27   C     C_R   0.232866 0.499509 0.505831 -0.011012
C28   C     C_R   0.766321 0.499484 0.501796 -0.029435
C29   C     C_3   0.613894 0.298496 0.131404 -0.089771
C30   C     C_3   0.709698 0.465298 0.859429 -0.081970
C31   C     C_3   0.329458 0.789619 0.274590 -0.110264
C32   C     C_3   0.589826 0.770964 0.798846 -0.110005
C33   C     C_3   0.348199 0.742729 0.918164 -0.132567
C34   C     C_R   0.809811 0.426050 0.438627 -0.173730
C35   C     C_3   0.329356 0.392585 0.075811 -0.118257
C36   C     C_3   0.212282 0.732259 0.562072 -0.110100
C37   C     C_3   0.789958 0.732448 0.569236 -0.075843
C38   C     C_3   0.048022 0.325238 0.702450 -0.126967
C39   C     C_3   0.947836 0.385113 0.244308 -0.119135
C40   C     C_3   0.709511 0.235695 0.625086 -0.091705
C41   C     C_3   0.293892 0.224605 0.352289 -0.140403
C42   C     C_R   0.097366 0.410366 0.539607 0.305900
C43   C     C_R   0.901875 0.423877 0.436021 0.301750
C44   C     C_R   0.047851 0.492315 0.506658 0.011459
C45   C     C_R   0.950954 0.491726 0.505615 0.008441
C46   C     C_R   0.564685 0.108852 0.569334 -0.153707
Cu1   Cu    Cu3+1 0.500000 0.596430 0.500000 1.112091
Cu2   Cu    Cu3+1 0.500000 0.403570 0.500000 1.066275
H1    H     H_    0.320528 0.507762 0.866554 0.126860
H2    H     H_    0.544621 0.283500 0.157890 0.125758
H3    H     H_    0.658051 0.260586 0.198912 0.124123
H4    H     H_    0.689791 0.528551 0.802169 0.157957
H5    H     H_    0.762174 0.426841 0.809563 0.128101
H6    H     H_    0.738571 0.489175 0.950295 0.127460
H7    H     H_    0.431573 0.929792 0.325980 0.090498
H8    H     H_    0.582379 0.927775 0.667140 0.090171
H9    H     H_    0.278198 0.738095 0.242301 0.170620
H10   H     H_    0.349647 0.832464 0.193275 0.068387
H11   H     H_    0.297403 0.836141 0.344288 0.113703
H12   H     H_    0.324921 0.630900 0.103744 0.152187
H13   H     H_    0.603897 0.711039 0.864189 0.144312
H14   H     H_    0.522845 0.798755 0.819287 0.092601
H15   H     H_    0.640713 0.827021 0.816695 0.093890
H16   H     H_    0.414104 0.739034 0.965438 0.114001
H17   H     H_    0.297014 0.763546 0.984867 0.103744
H18   H     H_    0.351288 0.800887 0.848172 0.128503
H19   H     H_    0.364300 0.387529 0.987018 0.075591
H20   H     H_    0.272960 0.341869 0.069819 0.131526
H21   H     H_    0.373596 0.367587 0.152363 0.186611
H22   H     H_    0.228617 0.696605 0.652167 0.171886
H23   H     H_    0.053148 0.641658 0.454345 0.115032
H24   H     H_    0.143774 0.760899 0.562053 0.091447
H25   H     H_    0.257828 0.794111 0.553811 0.131675
H26   H     H_    0.861235 0.751581 0.573489 0.080082
H27   H     H_    0.754625 0.790011 0.618750 0.157409
H28   H     H_    0.764798 0.732002 0.471293 0.123815
H29   H     H_    0.006596 0.386176 0.733995 0.110848
H30   H     H_    0.113842 0.326640 0.750903 0.101603
H31   H     H_    0.014525 0.257827 0.729238 0.135876
H32   H     H_    0.985493 0.453516 0.237561 0.119905
H33   H     H_    0.880662 0.393345 0.201193 0.119360
H34   H     H_    0.945158 0.615387 0.625419 0.117242
H35   H     H_    0.983333 0.330089 0.190349 0.138816
H36   H     H_    0.727388 0.173093 0.684282 0.096092
H37   H     H_    0.753341 0.295765 0.654299 0.149676
H38   H     H_    0.723056 0.220448 0.525868 0.097844
H39   H     H_    0.287532 0.167390 0.280870 0.094974
H40   H     H_    0.247368 0.282731 0.324459 0.162433
H41   H     H_    0.273471 0.197857 0.444593 0.113093
H42   H     H_    0.226438 0.349336 0.557568 0.139406
H43   H     H_    0.772332 0.371759 0.388063 0.149257
H44   H     H_    0.614917 0.073133 0.624746 0.094785
H45   H     H_    0.389169 0.070268 0.375429 0.090894
H46   H     H_    0.626234 0.268269 0.038080 0.163101
N1    N     N_R   0.500000 0.258690 0.500000 -0.205205
N2    N     N_R   0.500000 0.741330 0.500000 -0.201953
O1    O     O_R   0.371460 0.581430 0.500010 -0.424106
O2    O     O_3   0.638165 0.402135 0.875535 -0.529719
O3    O     O_3   0.402637 0.737966 0.324389 -0.513161
O4    O     O_3   0.595719 0.735661 0.676570 -0.506862
O5    O     O_3   0.322848 0.656970 0.856561 -0.582686
O6    O     O_3   0.296178 0.485039 0.103638 -0.573954
O7    O     O_3   0.224080 0.670159 0.460304 -0.543170
O8    O     O_3   0.773441 0.643836 0.627930 -0.539197
O9    O     O_3   0.056427 0.325847 0.572586 -0.520000
O10   O     O_3   0.943514 0.353725 0.368249 -0.518953
O11   O     O_3   0.621029 0.263407 0.643527 -0.495618
O12   O     O_R   0.628540 0.581430 0.499990 -0.452364
O13   O     O_3   0.380360 0.262595 0.355270 -0.550254
O14   O     O_R   0.371470 0.418560 0.500010 -0.497085
O15   O     O_R   0.628530 0.418560 0.499990 -0.483579
O16   O     O_R   0.499990 0.581450 0.319660 -0.470925
O17   O     O_R   0.500010 0.581450 0.680340 -0.459717
O18   O     O_R   0.500010 0.418580 0.319660 -0.474772
O19   O     O_R   0.499990 0.418580 0.680340 -0.459824
O20   O     O_3   0.633851 0.397414 0.136120 -0.566790

loop_
_geom_bond_atom_site_label_1
_geom_bond_atom_site_label_2
_ccdc_geom_bond_type
C39   O10   S    
C41   H41   S    
C37   H26   S    
Cu2   N1    S    
C7    C10   A    
C40   H36   S    
Cu2   O14   S    
C8    N2    A    
C6    H7    S    
C4    O13   S    
C35   O6    S    
C33   H17   S    
C30   H6    S    
C23   C42   A    
C12   C28   S    
C36   O7    S    
C33   O5    S    
C24   C45   A    
C14   C21   S    
C8    O3    S    
C24   C26   A    
C32   H13   S    
C29   H46   S    
C46   H44   S    
C38   H31   S    
C40   H38   S    
Cu1   O16   S    
C15   C17   A    
C18   C19   A    
C31   H11   S    
C11   O18   A    
C24   H34   S    
C34   H43   S    
C26   O8    S    
C22   C44   A    
C22   C25   A    
Cu1   N2    S    
C23   C27   A    
C37   H27   S    
C28   C34   A    
C41   O13   S    
C42   C44   A    
C7    H8    S    
C19   O2    S    
C36   H22   S    
C33   H18   S    
C29   H2    S    
C15   C20   S    
C41   H39   S    
C30   H5    S    
C39   H33   S    
C21   H12   S    
C1    O1    A    
C12   O12   A    
C25   O7    S    
C6    C8    A    
C20   O5    S    
C38   H30   S    
C3    O11   S    
C32   O4    S    
C43   O10   S    
C40   H37   S    
C2    C4    A    
C20   H1    S    
C1    O14   A    
C4    N1    A    
C11   C16   S    
Cu1   Cu2   S    
C35   H19   S    
C23   H42   S    
C43   C45   A    
C9    N2    A    
C13   O19   A    
C40   O11   S    
C21   O6    S    
C29   O20   S    
C9    O4    S    
C31   O3    S    
Cu2   O19   S    
C14   C16   A    
C2    C5    A    
C18   O20   S    
C22   H23   S    
C44   C45   S    
C31   H10   S    
Cu2   O18   S    
C29   H3    S    
Cu1   O17   S    
C41   H40   S    
C30   H4    S    
C11   O16   A    
C37   H28   S    
C2    H45   S    
C34   C43   A    
C32   H15   S    
C6    C10   A    
C37   O8    S    
C38   H29   S    
C25   C27   A    
C5    C46   A    
C30   O2    S    
C3    C46   A    
C26   C28   A    
Cu1   O1    S    
C13   C17   S    
C39   H32   S    
C31   H9    S    
C38   O9    S    
C39   H35   S    
C5    C10   S    
C35   H20   S    
C33   H16   S    
C17   C19   A    
C42   O9    S    
C36   H25   S    
C32   H14   S    
C7    C9    A    
Cu2   O15   S    
C20   C21   S    
C35   H21   S    
C16   C18   A    
Cu1   O12   S    
C1    C27   S    
C14   C15   A    
C3    N1    A    
C12   O15   A    
C13   O17   A    
C36   H24   S    
