data_mof_unit_39610.cif
_audit_creation_date              2012-12-11T14:55:59-0500
_audit_creation_method            fapswitch 2.2
_symmetry_space_group_name_H-M    P1
_symmetry_Int_Tables_number       1
_space_group_crystal_system       triclinic
_cell_length_a                    27.972431
_cell_length_b                    17.24491
_cell_length_c                    18.020463
_cell_angle_alpha                 90.101182
_cell_angle_beta                  137.694168
_cell_angle_gamma                 89.942916
_cell_volume                      5850.97282687

loop_
_atom_site_label
_atom_site_type_symbol
_atom_type_description
_atom_site_fract_x
_atom_site_fract_y
_atom_site_fract_z
_atom_type_partial_charge
C1    C     C_R   0.667713 0.922677 0.816975 -0.115644
C2    C     C_3   0.256801 0.652566 0.047550 -0.152212
C3    C     C_3   0.666850 0.778265 0.981527 -0.167585
C4    C     C_3   0.166127 0.723300 0.980671 -0.168473
C5    C     C_3   0.833872 0.276700 0.019328 -0.168474
C6    C     C_3   0.792893 0.772579 0.056789 -0.177250
C7    C     C_3   0.207106 0.227420 0.943211 -0.177250
C8    C     C_3   0.237708 0.697199 0.097718 -0.143913
C9    C     C_3   0.762291 0.302801 0.902282 -0.143912
C10   C     C_3   0.722198 0.746068 0.942263 -0.120011
C11   C     C_3   0.277801 0.253932 0.057737 -0.120010
C12   C     C_3   0.777869 0.247488 0.058182 -0.119567
C13   C     C_3   0.298116 0.296192 0.009124 -0.148357
C14   C     C_3   0.222132 0.752511 0.941819 -0.119569
C15   C     C_3   0.261175 0.195922 0.901557 -0.144161
C16   C     C_3   0.738826 0.804079 0.098444 -0.144161
C17   C     C_3   0.272458 0.769596 0.104446 0.175799
C18   C     C_3   0.727542 0.230403 0.895554 0.175799
C19   C     C_3   0.687685 0.819860 0.933640 0.181890
C20   C     C_3   0.312315 0.180140 0.066360 0.181890
C21   C     C_3   0.813437 0.320114 0.066928 0.181800
C22   C     C_3   0.186563 0.679886 0.933072 0.181799
C23   C     C_3   0.227439 0.269516 0.894874 0.175831
C24   C     C_3   0.701883 0.703808 0.990876 -0.148357
C25   C     C_3   0.772561 0.730484 0.105126 0.175831
C26   C     C_3   0.787294 0.957824 0.435259 -1.001909
C27   C     C_3   0.212706 0.042176 0.564741 -1.001910
C28   C     C_3   0.066065 0.820617 0.184186 -1.038261
C29   C     C_3   0.933935 0.179383 0.815814 -1.038258
C30   C     C_3   0.434029 0.321057 0.816467 -1.038275
C31   C     C_3   0.565972 0.678943 0.183534 -1.038274
C32   C     C_3   0.712301 0.457734 0.564273 -1.001479
C33   C     C_3   0.287701 0.542267 0.435732 -1.001494
C34   C     C_2   0.577293 0.273469 0.666400 0.414272
C35   C     C_3   0.202185 0.796559 0.990086 -0.147933
C36   C     C_2   0.422706 0.726530 0.333602 0.414270
C37   C     C_2   0.440732 0.250382 0.289777 0.457687
C38   C     C_2   0.559268 0.749618 0.710223 0.457685
C39   C     C_2   0.059248 0.750787 0.709899 0.458200
C40   C     C_2   0.940753 0.249213 0.290101 0.458199
C41   C     C_2   0.923098 0.773538 0.334149 0.413924
C42   C     C_2   0.076902 0.226462 0.665851 0.413925
C43   C     C_3   0.797815 0.203441 0.009914 -0.147934
C44   C     C_3   0.758318 0.846892 0.047986 -0.152481
C45   C     C_3   0.241683 0.153108 0.952014 -0.152481
C46   C     C_R   0.611678 0.854147 0.355009 0.073906
C47   C     C_R   0.388322 0.145853 0.644991 0.073906
C48   C     C_R   0.282953 0.755478 0.376815 0.063554
C49   C     C_R   0.332288 0.077323 0.183025 -0.115645
C50   C     C_R   0.717047 0.244521 0.623183 0.063555
C51   C     C_R   0.217153 0.255527 0.623519 0.063936
C52   C     C_R   0.782847 0.744473 0.376482 0.063936
C53   C     C_R   0.888174 0.354438 0.644730 0.074163
C54   C     C_R   0.111826 0.645562 0.355270 0.074162
C55   C     C_R   0.396804 0.248993 0.746258 0.301679
C56   C     C_R   0.603196 0.751007 0.253742 0.301679
C57   C     C_R   0.739087 0.375981 0.605548 0.287963
C58   C     C_R   0.260913 0.624019 0.394453 0.287969
C59   C     C_R   0.760607 0.875989 0.393954 0.288018
C60   C     C_R   0.312738 0.898505 0.197995 -0.127737
C61   C     C_R   0.239393 0.124011 0.606046 0.288019
C62   C     C_R   0.103356 0.748667 0.254316 0.301755
C63   C     C_R   0.896644 0.251333 0.745684 0.301754
C64   C     C_R   0.424987 0.209105 0.718013 -0.203811
C65   C     C_R   0.575012 0.790895 0.281987 -0.203810
C66   C     C_R   0.696270 0.322572 0.593304 -0.230266
C67   C     C_R   0.303730 0.677427 0.406694 -0.230263
C68   C     C_R   0.803552 0.822575 0.406387 -0.230375
C69   C     C_R   0.196448 0.177425 0.593614 -0.230376
C70   C     C_R   0.075119 0.708697 0.282305 -0.203905
C71   C     C_R   0.687261 0.101494 0.802005 -0.127737
C72   C     C_R   0.924881 0.291303 0.717696 -0.203905
C73   C     C_R   0.334514 0.110548 0.624203 -0.256975
C74   C     C_R   0.665486 0.889452 0.375797 -0.256974
C75   C     C_R   0.787252 0.224400 0.688239 -0.260791
C76   C     C_R   0.212748 0.775600 0.311760 -0.260791
C77   C     C_R   0.712611 0.724266 0.311161 -0.260601
C78   C     C_R   0.287389 0.275734 0.688840 -0.260600
C79   C     C_R   0.165802 0.610436 0.376280 -0.256881
C80   C     C_R   0.834198 0.389564 0.623719 -0.256884
C81   C     C_R   0.303206 0.150642 0.647225 0.080420
C82   C     C_R   0.187390 0.398348 0.801477 -0.127847
C83   C     C_R   0.696794 0.849358 0.352775 0.080420
C84   C     C_R   0.830496 0.275659 0.698331 0.079804
C85   C     C_R   0.169504 0.724341 0.301669 0.079803
C86   C     C_R   0.669287 0.775486 0.301032 0.079739
C87   C     C_R   0.330713 0.224514 0.698968 0.079739
C88   C     C_R   0.197096 0.650561 0.353359 0.080356
C89   C     C_R   0.802904 0.349439 0.646641 0.080356
C90   C     C_R   0.360479 0.070232 0.492860 -0.134715
C91   C     C_R   0.639521 0.929768 0.507140 -0.134714
C92   C     C_R   0.674738 0.104173 0.595437 -0.140245
C93   C     C_R   0.812610 0.601652 0.198523 -0.127847
C94   C     C_R   0.325261 0.895827 0.404562 -0.140244
C95   C     C_R   0.825258 0.604141 0.404570 -0.138687
C96   C     C_R   0.174742 0.395859 0.595430 -0.138686
C97   C     C_R   0.139513 0.570073 0.507115 -0.136012
C98   C     C_R   0.860487 0.429927 0.492885 -0.136012
C99   C     C_R   0.406989 0.803289 0.492464 -0.149723
C100  C     C_R   0.593011 0.196710 0.507535 -0.149721
C101  C     C_R   0.556426 0.836906 0.418483 -0.032884
C102  C     C_R   0.443574 0.163094 0.581516 -0.032891
C103  C     C_R   0.943633 0.337158 0.581569 -0.034193
C104  C     C_R   0.833333 0.423169 0.183359 -0.116634
C105  C     C_R   0.056367 0.662842 0.418431 -0.034194
C106  C     C_R   0.093034 0.303252 0.507540 -0.148603
C107  C     C_R   0.906966 0.696748 0.492460 -0.148603
C108  C     C_R   0.605686 0.194704 0.711510 -0.044317
C109  C     C_R   0.394314 0.805296 0.288490 -0.044317
C110  C     C_R   0.414165 0.171271 0.271559 -0.001688
C111  C     C_R   0.585835 0.828729 0.728441 -0.001687
C112  C     C_R   0.085072 0.671253 0.727845 -0.002426
C113  C     C_R   0.914928 0.328747 0.272155 -0.002426
C114  C     C_R   0.894215 0.694803 0.289128 -0.044032
C115  C     C_R   0.166667 0.576831 0.816641 -0.116634
C116  C     C_R   0.105785 0.305197 0.710872 -0.044033
C117  C     C_R   0.643001 0.861738 0.830684 -0.081153
C118  C     C_R   0.356999 0.138262 0.169316 -0.081153
C119  C     C_R   0.324370 0.822182 0.194899 -0.055241
C120  C     C_R   0.675629 0.177817 0.805102 -0.055240
C121  C     C_R   0.175833 0.321935 0.804160 -0.054836
C122  C     C_R   0.824167 0.678065 0.195840 -0.054836
C123  C     C_R   0.858383 0.362202 0.169951 -0.080885
C124  C     C_R   0.141617 0.637798 0.830049 -0.080885
C125  C     C_R   0.397616 0.125853 0.576737 0.027974
C126  C     C_3   0.743199 0.347433 0.952451 -0.152212
C127  C     C_R   0.602384 0.874148 0.423263 0.027970
C128  C     C_R   0.663565 0.183402 0.574072 0.067187
C129  C     C_R   0.336435 0.816598 0.425927 0.067188
C130  C     C_R   0.836399 0.683408 0.425856 0.068025
C131  C     C_R   0.163601 0.316592 0.574144 0.068025
C132  C     C_R   0.102389 0.625568 0.423285 0.027647
C133  C     C_R   0.897611 0.374433 0.576715 0.027647
C134  C     C_3   0.707590 0.274286 0.943562 -0.177859
C135  C     C_3   0.292410 0.725713 0.056439 -0.177855
C136  C     C_3   0.333150 0.221735 0.018473 -0.167586
H1    H     H_    0.715401 0.955951 0.881165 0.102964
H2    H     H_    0.679189 0.969340 0.532105 0.106285
H3    H     H_    0.725813 0.076026 0.658403 0.091253
H4    H     H_    0.274186 0.923973 0.341596 0.091252
H5    H     H_    0.774203 0.575894 0.341591 0.090892
H6    H     H_    0.225797 0.424106 0.658409 0.090892
H7    H     H_    0.179185 0.530490 0.532047 0.106584
H8    H     H_    0.820815 0.469510 0.467953 0.106584
H9    H     H_    0.429623 0.747655 0.506628 0.170720
H10   H     H_    0.570377 0.252345 0.493372 0.170724
H11   H     H_    0.518730 0.792810 0.360717 0.108924
H12   H     H_    0.284599 0.044049 0.118835 0.102964
H13   H     H_    0.481269 0.207191 0.639282 0.108920
H14   H     H_    0.981398 0.293233 0.639418 0.108323
H15   H     H_    0.018601 0.706767 0.360582 0.108322
H16   H     H_    0.070395 0.247621 0.493335 0.169947
H17   H     H_    0.929605 0.752379 0.506665 0.169947
H18   H     H_    0.245686 0.676606 0.164618 0.124699
H19   H     H_    0.754312 0.323393 0.835381 0.124700
H20   H     H_    0.715320 0.722930 0.877250 0.138861
H21   H     H_    0.284679 0.277069 0.122750 0.138860
H22   H     H_    0.784319 0.225423 0.123069 0.138537
H23   H     H_    0.261701 0.926504 0.145388 0.093819
H24   H     H_    0.215682 0.774577 0.876933 0.138536
H25   H     H_    0.252839 0.174221 0.834599 0.124599
H26   H     H_    0.747162 0.825780 0.165401 0.124599
H27   H     H_    0.655056 0.272144 0.911221 0.110308
H28   H     H_    0.344944 0.727855 0.088781 0.110308
H29   H     H_    0.385812 0.217673 0.051520 0.113598
H30   H     H_    0.614188 0.782328 0.948481 0.113598
H31   H     H_    0.113377 0.720572 0.947483 0.113622
H32   H     H_    0.886622 0.279428 0.052516 0.113622
H33   H     H_    0.845330 0.769117 0.088933 0.110323
H34   H     H_    0.738299 0.073496 0.854613 0.093819
H35   H     H_    0.154669 0.230882 0.911066 0.110323
H36   H     H_    0.721811 0.407342 0.930523 0.115359
H37   H     H_    0.278188 0.592657 0.069477 0.115359
H38   H     H_    0.320863 0.355478 0.031980 0.112785
H39   H     H_    0.679137 0.644523 0.968021 0.112785
H40   H     H_    0.180199 0.856227 0.967024 0.112894
H41   H     H_    0.819801 0.143773 0.032976 0.112894
H42   H     H_    0.780489 0.906410 0.069774 0.115159
H43   H     H_    0.219511 0.093590 0.930226 0.115159
H44   H     H_    0.689135 0.942411 0.423201 0.145521
H45   H     H_    0.238390 0.426503 0.854207 0.093913
H46   H     H_    0.310865 0.057589 0.576799 0.145521
H47   H     H_    0.195057 0.834125 0.281400 0.143884
H48   H     H_    0.804943 0.165875 0.718600 0.143883
H49   H     H_    0.305033 0.334302 0.719286 0.143764
H50   H     H_    0.694967 0.665698 0.280714 0.143765
H51   H     H_    0.810471 0.442419 0.576308 0.145526
H52   H     H_    0.189528 0.557581 0.423690 0.145526
H53   H     H_    0.528060 0.767802 0.254452 0.118919
H54   H     H_    0.471940 0.232198 0.745548 0.118919
H55   H     H_    0.355479 0.658483 0.447873 0.142506
H56   H     H_    0.761610 0.573497 0.145793 0.093913
H57   H     H_    0.644521 0.341515 0.552122 0.142509
H58   H     H_    0.144661 0.158446 0.552231 0.142234
H59   H     H_    0.855339 0.841554 0.447770 0.142233
H60   H     H_    0.971941 0.268358 0.745407 0.118785
H61   H     H_    0.028059 0.731643 0.254594 0.118786
H62   H     H_    0.834251 0.970052 0.453726 0.263915
H63   H     H_    0.744997 0.999696 0.371384 0.254142
H64   H     H_    0.803132 0.967106 0.512129 0.245432
H65   H     H_    0.165750 0.029948 0.546274 0.263916
H66   H     H_    0.196868 0.032893 0.487871 0.245432
H67   H     H_    0.785899 0.456621 0.118931 0.103647
H68   H     H_    0.255003 0.000303 0.628616 0.254142
H69   H     H_    0.011780 0.825818 0.145521 0.253273
H70   H     H_    0.096476 0.873084 0.235492 0.251447
H71   H     H_    0.060939 0.818364 0.116946 0.253036
H72   H     H_    0.988220 0.174182 0.854478 0.253272
H73   H     H_    0.939061 0.181636 0.883054 0.253035
H74   H     H_    0.903523 0.126916 0.764508 0.251447
H75   H     H_    0.488299 0.326348 0.855106 0.253287
H76   H     H_    0.403557 0.373438 0.765229 0.251419
H77   H     H_    0.439180 0.318883 0.883729 0.253081
H78   H     H_    0.214101 0.543379 0.881069 0.103647
H79   H     H_    0.511701 0.673652 0.144894 0.253287
H80   H     H_    0.560820 0.681117 0.116272 0.253081
H81   H     H_    0.596443 0.626562 0.234772 0.251419
H82   H     H_    0.665336 0.469920 0.545823 0.263985
H83   H     H_    0.754552 0.499737 0.628155 0.254090
H84   H     H_    0.696441 0.466868 0.487396 0.245404
H85   H     H_    0.334671 0.530084 0.454197 0.263987
H86   H     H_    0.303552 0.533132 0.512601 0.245402
H87   H     H_    0.245454 0.500263 0.371847 0.254095
H88   H     H_    0.608493 0.323989 0.717017 0.031287
H89   H     H_    0.320811 0.030660 0.467895 0.106285
H90   H     H_    0.391503 0.676010 0.282986 0.031283
H91   H     H_    0.450147 0.271045 0.244661 -0.004927
H92   H     H_    0.549853 0.728954 0.755339 -0.004926
H93   H     H_    0.049928 0.772162 0.754962 -0.004803
H94   H     H_    0.950072 0.227838 0.245038 -0.004803
H95   H     H_    0.892124 0.824062 0.283566 0.031310
H96   H     H_    0.107876 0.175937 0.716433 0.031310
N1    N     N_R   0.625380 0.928280 0.709340 -0.053362
N2    N     N_R   0.613900 0.929750 0.547530 -0.052363
N3    N     N_R   0.613900 0.070250 0.547530 -0.048898
N4    N     N_R   0.386100 0.929750 0.452470 -0.048898
N5    N     N_R   0.886100 0.570250 0.452470 -0.048574
N6    N     N_R   0.113900 0.429750 0.547530 -0.048574
N7    N     N_R   0.113900 0.570250 0.547530 -0.052863
N8    N     N_R   0.886100 0.429750 0.452470 -0.052863
N9    N     N_R   0.437800 0.869550 0.507970 -0.044506
N10   N     N_R   0.562200 0.130450 0.492030 -0.044505
N11   N     N_R   0.562200 0.869550 0.492030 -0.023069
N12   N     N_R   0.374620 0.071720 0.290660 -0.053362
N13   N     N_R   0.437800 0.130450 0.507970 -0.023070
N14   N     N_R   0.937800 0.369550 0.507970 -0.023004
N15   N     N_R   0.062200 0.630450 0.492030 -0.023004
N16   N     N_R   0.062200 0.369550 0.492030 -0.044540
N17   N     N_R   0.937800 0.630450 0.507970 -0.044540
N18   N     N_R   0.573690 0.128980 0.653840 -0.045197
N19   N     N_R   0.426310 0.871020 0.346160 -0.045197
N20   N     N_R   0.426310 0.128980 0.346160 -0.034230
N21   N     N_R   0.573690 0.871020 0.653840 -0.034229
N22   N     N_R   0.073690 0.628980 0.653840 -0.034116
N23   N     N_R   0.374620 0.928280 0.290660 -0.049661
N24   N     N_R   0.926310 0.371020 0.346160 -0.034116
N25   N     N_R   0.926310 0.628980 0.346160 -0.045565
N26   N     N_R   0.073690 0.371020 0.653840 -0.045565
N27   N     N_R   0.625380 0.071720 0.709340 -0.049661
N28   N     N_R   0.125380 0.428280 0.709340 -0.049693
N29   N     N_R   0.874620 0.571720 0.290660 -0.049693
N30   N     N_R   0.874620 0.428280 0.290660 -0.053730
N31   N     N_R   0.125380 0.571720 0.709340 -0.053730
N32   N     N_R   0.386100 0.070250 0.452470 -0.052363
Ni1   Ni    Ni4+2 0.616560 0.000000 0.627280 0.203633
Ni2   Ni    Ni4+2 0.383440 0.000000 0.372720 0.203632
Ni3   Ni    Ni4+2 0.116560 0.500000 0.627280 0.203399
Ni4   Ni    Ni4+2 0.883440 0.500000 0.372720 0.203399
Ni5   Ni    Ni4+2 0.497990 0.870580 0.500000 0.306086
Ni6   Ni    Ni4+2 0.502010 0.129420 0.500000 0.306086
Ni7   Ni    Ni4+2 0.997990 0.370580 0.500000 0.308076
Ni8   Ni    Ni4+2 0.002010 0.629420 0.500000 0.308076
O1    O     O_2   0.519151 0.282927 0.571295 -0.537010
O2    O     O_2   0.480852 0.717074 0.428706 -0.537007
O3    O     O_2   0.447845 0.294848 0.350124 -0.536869
O4    O     O_2   0.552155 0.705152 0.649876 -0.536870
O5    O     O_2   0.052527 0.794722 0.649691 -0.536441
O6    O     O_2   0.947472 0.205278 0.350308 -0.536441
O7    O     O_2   0.981354 0.782995 0.429171 -0.536724
O8    O     O_2   0.018646 0.217005 0.570828 -0.536724

loop_
_geom_bond_atom_site_label_1
_geom_bond_atom_site_label_2
_ccdc_geom_bond_type
C78   C87   A    
C111  N21   A    
N4    Ni2   S    
C29   C63   S    
N3    Ni1   S    
C33   C58   S    
C28   H69   S    
N6    N16   A    
N24   N30   A    
C27   H66   S    
C28   H70   S    
C135  H28   S    
C48   C76   A    
C90   H89   S    
N26   N28   A    
C60   H23   S    
C41   C114  S    
C4    C8    S    
C102  C125  A    
C94   N4    A    
C110  C118  A    
C20   C118  S    
C1    H1    S    
C29   H74   S    
C23   C121  S    
C104  C123  A    
C19   C44   S    
C98   N8    A    
N31   Ni3   S    
N16   Ni7   S    
C82   H45   S    
C62   C70   A    
C29   H72   S    
C57   C89   A    
C71   C120  A    
N5    Ni4   S    
N27   Ni1   S    
C35   H40   S    
C7    C45   S    
N6    Ni3   S    
C59   C83   A    
C112  C124  A    
C12   C43   S    
C7    H35   S    
C53   C72   A    
C2    H37   S    
C30   H76   S    
C67   H55   S    
C75   C84   A    
C93   H56   S    
C6    C25   S    
C31   H79   S    
C136  H29   S    
C71   N27   A    
C56   C65   A    
C11   C13   S    
C4    C22   S    
C134  H27   S    
C13   C23   S    
C60   C119  A    
N7    N15   A    
C95   N5    A    
C5    H32   S    
C73   C81   A    
C80   C89   A    
C38   C111  S    
C108  C120  A    
C97   H7    S    
C27   C61   S    
C103  H14   S    
C18   C120  S    
C56   C86   A    
C90   C125  A    
C105  N15   A    
C41   H95   S    
C100  H10   S    
C54   C70   A    
C2    C22   S    
C95   C130  A    
C24   H39   S    
C3    C19   S    
N7    Ni3   S    
N22   N31   A    
C31   C56   S    
C76   H47   S    
C90   N32   A    
C25   C122  S    
C57   C66   A    
C82   C121  A    
C17   C119  S    
C20   C45   S    
C52   C68   A    
N1    N21   A    
N2    N11   A    
C51   C69   A    
C26   H64   S    
C98   C133  A    
C15   C23   S    
C99   H9    S    
C4    C35   S    
C40   O6    D    
C113  C123  A    
C113  N24   A    
C12   C134  S    
C8    H18   S    
N8    N14   A    
C77   H50   S    
N17   Ni8   S    
N5    N17   A    
C3    C24   S    
C13   H38   S    
C102  N13   A    
C104  N30   A    
C32   C57   S    
C107  C130  A    
C97   N7    A    
C75   H48   S    
C92   C128  A    
C36   O2    D    
C79   C88   A    
C62   C85   A    
C34   H88   S    
C47   C125  S    
C105  C132  A    
C93   N29   A    
C106  C131  A    
C105  H15   S    
N24   Ni7   S    
C11   C20   S    
C94   C129  A    
C106  H16   S    
C79   H52   S    
C99   C129  A    
C82   N28   A    
C27   H68   S    
C103  N14   A    
C104  H67   S    
C46   C127  S    
C53   C80   A    
C53   C133  S    
C24   C25   S    
C47   C73   A    
C46   C65   A    
N20   Ni6   S    
N14   Ni7   S    
C116  C121  A    
C44   H42   S    
C30   H75   S    
N25   Ni8   S    
C51   C131  S    
C33   H85   S    
N2    Ni1   S    
C26   H62   S    
C15   C136  S    
C101  H11   S    
C16   H26   S    
C96   H6    S    
C12   C21   S    
C14   C35   S    
C60   N23   A    
C63   C72   A    
C11   H21   S    
C49   H12   S    
C14   H24   S    
N4    N9    A    
C21   C123  S    
C7    C11   S    
N11   Ni5   S    
N3    N10   A    
C5    C9    S    
C41   O7    D    
C59   C68   A    
C112  N22   A    
C91   H2    S    
C42   O8    D    
C39   O5    D    
N19   N23   A    
C49   C118  A    
C91   N2    A    
C32   H84   S    
C10   C19   S    
C116  N26   A    
C31   H81   S    
C55   C64   A    
C74   C83   A    
C71   H34   S    
C5    C21   S    
C78   H49   S    
C1    C117  A    
C20   C136  S    
N28   Ni3   S    
C29   H73   S    
C26   H63   S    
C50   C66   A    
C107  N17   A    
C126  C134  S    
C37   C110  S    
C81   C87   A    
C49   N12   A    
C91   C127  A    
N29   Ni4   S    
C96   C131  A    
C106  N16   A    
C17   C135  S    
C33   H87   S    
C42   C116  S    
C39   C112  S    
C65   H53   S    
C77   C86   A    
C95   H5    S    
C70   H61   S    
C40   C113  S    
C32   H82   S    
C13   C136  S    
N25   N29   A    
C48   C129  S    
C50   C128  S    
C84   C89   A    
N18   Ni6   S    
C10   H20   S    
C52   C77   A    
N10   Ni6   S    
N18   N27   A    
C46   C74   A    
C66   H57   S    
C100  N10   A    
C99   N9    A    
C109  C119  A    
C38   H92   S    
C54   C79   A    
C26   C59   S    
C85   C88   A    
C61   C69   A    
C16   C25   S    
N22   Ni8   S    
C16   C44   S    
C52   C130  S    
C43   H41   S    
C36   H90   S    
C115  C124  A    
N12   N20   A    
C1    N1    A    
C98   H8    S    
C100  C128  A    
C96   N6    A    
C109  N19   A    
C15   H25   S    
C2    C8    S    
C8    C17   S    
C97   C132  A    
C58   C88   A    
C72   H60   S    
C115  N31   A    
C47   C64   A    
C22   C124  S    
C31   H80   S    
N23   Ni2   S    
C54   C132  S    
C30   C55   S    
C92   N3    A    
N21   Ni5   S    
C2    C135  S    
C4    H31   S    
C63   C84   A    
C111  C117  A    
C110  N20   A    
C14   C22   S    
N13   Ni6   S    
C103  C133  A    
C51   C78   A    
C34   C108  S    
C39   H93   S    
C61   C81   A    
C18   C43   S    
C33   H86   S    
C27   H65   S    
N30   Ni4   S    
C73   H46   S    
C92   H3    S    
C38   O4    D    
N15   Ni8   S    
C7    C23   S    
C9    C18   S    
N26   Ni7   S    
C115  H78   S    
N8    Ni4   S    
C69   H58   S    
C101  C127  A    
C80   H51   S    
N9    Ni5   S    
C18   C134  S    
C68   H59   S    
N12   Ni2   S    
C48   C67   A    
C55   C87   A    
C34   O1    D    
C101  N11   A    
C114  N25   A    
C9    C126  S    
C32   H83   S    
C126  H36   S    
C6    C10   S    
C45   H43   S    
C102  H13   S    
N1    Ni1   S    
C114  C122  A    
C107  H17   S    
C58   C67   A    
C37   H91   S    
C83   C86   A    
C74   H44   S    
C64   H54   S    
C9    H19   S    
N32   Ni2   S    
C14   C135  S    
C108  N18   A    
C36   C109  S    
C28   H71   S    
C15   C45   S    
C94   H4    S    
C5    C43   S    
C10   C24   S    
C6    C44   S    
N19   Ni5   S    
C17   C35   S    
C12   H22   S    
C21   C126  S    
C50   C75   A    
N13   N32   A    
C40   H94   S    
C76   C85   A    
C6    H33   S    
C93   C122  A    
C37   O3    D    
C3    C16   S    
C3    H30   S    
C28   C62   S    
C30   H77   S    
C19   C117  S    
C42   H96   S    
