data_mof_unit_25400.cif
_audit_creation_date              2012-12-11T15:49:07-0500
_audit_creation_method            fapswitch 2.2
_symmetry_space_group_name_H-M    P1
_symmetry_Int_Tables_number       1
_space_group_crystal_system       triclinic
_cell_length_a                    21.628106
_cell_length_b                    7.178283
_cell_length_c                    14.942175
_cell_angle_alpha                 89.970407
_cell_angle_beta                  107.034031
_cell_angle_gamma                 90.003545
_cell_volume                      2218.04418168

loop_
_atom_site_label
_atom_site_type_symbol
_atom_type_description
_atom_site_fract_x
_atom_site_fract_y
_atom_site_fract_z
_atom_type_partial_charge
O1    O     O_R   0.335860 0.638190 0.002110 -0.538198
O2    O     O_R   0.664140 0.361810 0.997890 -0.532935
O3    O     O_R   0.164140 0.138190 0.997890 -0.538145
O4    O     O_R   0.835860 0.861810 0.002110 -0.533075
O5    O     O_R   0.217530 0.305920 0.861960 -0.544323
O6    O     O_R   0.782470 0.694080 0.138040 -0.524528
O7    O     O_R   0.282470 0.805920 0.138040 -0.544060
O8    O     O_R   0.717530 0.194080 0.861960 -0.525150
C1    C     C_R   0.206351 0.476788 0.825441 0.729082
C2    C     C_R   0.794506 0.523076 0.174161 0.742415
C3    C     C_R   0.293632 0.976691 0.174575 0.728608
C4    C     C_R   0.705476 0.023184 0.825839 0.742948
O9    O     O_R   0.338690 0.308320 0.993240 -0.534000
O10   O     O_R   0.661310 0.691680 0.006760 -0.534956
O11   O     O_R   0.161310 0.808320 0.006760 -0.533829
O12   O     O_R   0.838690 0.191680 0.993240 -0.534990
O13   O     O_R   0.286170 0.140430 0.130100 -0.520896
O14   O     O_R   0.713830 0.859570 0.869900 -0.550593
O15   O     O_R   0.213830 0.640430 0.869900 -0.521582
O16   O     O_R   0.786170 0.359570 0.130100 -0.550621
C5    C     C_R   0.365331 0.476658 0.999681 0.681885
C6    C     C_R   0.634597 0.523376 0.999445 0.682467
C7    C     C_R   0.134668 0.976650 0.000338 0.681921
C8    C     C_R   0.865409 0.023387 0.000581 0.683263
O17   O     O_3   0.232630 0.472410 0.044750 -0.374230
O18   O     O_3   0.767370 0.527590 0.955250 -0.376498
O19   O     O_3   0.267370 0.972410 0.955250 -0.374844
O20   O     O_3   0.732630 0.027590 0.044750 -0.376099
V1    V     V_3+5 0.253220 0.196620 0.991700 1.516591
V2    V     V_3+5 0.746780 0.803380 0.008300 1.515737
V3    V     V_3+5 0.246780 0.696620 0.008300 1.517061
V4    V     V_3+5 0.753220 0.303380 0.991700 1.515179
C9    C     C_R   0.019932 0.842898 0.960052 0.385032
C10   C     C_R   0.980343 0.155355 0.043715 0.390761
C11   C     C_R   0.480176 0.343483 0.040638 0.385134
C12   C     C_R   0.519573 0.654808 0.955780 0.390763
C13   C     C_R   0.956342 0.857173 0.964437 -0.134169
C14   C     C_R   0.043907 0.142063 0.038539 -0.142560
C15   C     C_R   0.543774 0.357699 0.036240 -0.134153
C16   C     C_R   0.455998 0.641552 0.960936 -0.142570
H1    H     H_    0.922640 0.747006 0.933268 0.175673
H2    H     H_    0.077662 0.252038 0.069779 0.177572
H3    H     H_    0.577567 0.247994 0.067869 0.175584
H4    H     H_    0.422158 0.751079 0.929241 0.176996
C17   C     C_R   0.934919 0.013092 0.003777 -0.219036
C18   C     C_R   0.065276 0.986447 0.998593 -0.226395
C19   C     C_R   0.565092 0.513067 0.996288 -0.219095
C20   C     C_R   0.434728 0.486477 0.001462 -0.226125
C21   C     C_R   0.677406 0.013587 0.723927 -0.158557
C22   C     C_R   0.318738 0.981333 0.277510 -0.156439
C23   C     C_R   0.822454 0.512949 0.276090 -0.157941
C24   C     C_R   0.181113 0.481912 0.722538 -0.156877
C25   C     C_R   0.686460 0.963579 0.568156 -0.152806
C26   C     C_R   0.311376 0.893552 0.430795 -0.157473
C27   C     C_R   0.813545 0.456616 0.431480 -0.152490
C28   C     C_R   0.188876 0.399392 0.568847 -0.157737
C29   C     C_R   0.715300 0.966331 0.664667 0.299578
C30   C     C_R   0.283038 0.904505 0.334241 0.304827
C31   C     C_R   0.784727 0.461627 0.334994 0.299352
C32   C     C_R   0.217138 0.408435 0.665482 0.304863
C33   C     C_R   0.611095 0.050790 0.685975 0.256049
C34   C     C_R   0.381839 0.046589 0.319009 0.264378
C35   C     C_R   0.888595 0.552126 0.314349 0.256439
C36   C     C_R   0.117719 0.545226 0.681344 0.264048
C37   C     C_R   0.580096 0.017552 0.589107 -0.037243
C38   C     C_R   0.414173 0.003767 0.414417 -0.036423
C39   C     C_R   0.919702 0.516687 0.410997 -0.037515
C40   C     C_R   0.085613 0.504088 0.585706 -0.036072
C41   C     C_R   0.619617 0.993900 0.528907 -0.072545
C42   C     C_R   0.376318 0.944950 0.472421 -0.072351
C43   C     C_R   0.880253 0.488717 0.470982 -0.071949
C44   C     C_R   0.123742 0.449213 0.527429 -0.073049
C45   C     C_R   0.511543 0.000617 0.550827 -0.011628
C46   C     C_R   0.482955 0.008133 0.452485 -0.011513
C47   C     C_R   0.988314 0.501489 0.449214 -0.011785
C48   C     C_R   0.016831 0.506545 0.547600 -0.011441
C49   C     C_R   0.523844 0.996828 0.394526 -0.163562
C50   C     C_R   0.471773 0.954503 0.607344 -0.163948
C51   C     C_R   0.975971 0.490977 0.605429 -0.163546
C52   C     C_R   0.028301 0.459417 0.392466 -0.164075
C53   C     C_R   0.590841 0.990779 0.430866 0.378742
C54   C     C_R   0.405399 0.928125 0.570076 0.381154
C55   C     C_R   0.909010 0.483092 0.568997 0.379310
C56   C     C_R   0.094772 0.434684 0.429654 0.380709
H5    H     H_    0.717073 0.929343 0.524787 0.160716
H6    H     H_    0.282415 0.834947 0.471838 0.158358
H7    H     H_    0.783057 0.419154 0.474575 0.159953
H8    H     H_    0.218091 0.343570 0.527514 0.159069
H9    H     H_    0.504467 0.980577 0.319634 0.197442
H10   H     H_    0.492065 0.926119 0.681168 0.198249
H11   H     H_    0.995400 0.472731 0.680207 0.197147
H12   H     H_    0.008154 0.432939 0.318448 0.198235
O21   O     O_3   0.034542 0.688927 0.915058 -0.620440
H13   H     H_    0.068638 0.723805 0.886477 0.328087
O22   O     O_3   0.965772 0.306225 0.091031 -0.617068
H14   H     H_    0.931923 0.268811 0.119923 0.298928
O23   O     O_3   0.465669 0.190187 0.086282 -0.620802
H15   H     H_    0.431298 0.225131 0.114306 0.327863
O24   O     O_3   0.534054 0.805085 0.907922 -0.616829
H16   H     H_    0.568143 0.767618 0.879523 0.299434
O25   O     O_3   0.626094 0.980385 0.367549 -0.624356
H17   H     H_    0.666507 0.052423 0.392494 0.306154
O26   O     O_3   0.371203 0.883544 0.631954 -0.626595
H18   H     H_    0.327885 0.941609 0.609700 0.303416
O27   O     O_3   0.873778 0.468393 0.632186 -0.624466
H19   H     H_    0.833091 0.539459 0.607736 0.304734
O28   O     O_3   0.129184 0.394105 0.367558 -0.626443
H20   H     H_    0.172299 0.453203 0.390302 0.304677
O29   O     O_3   0.409136 0.158530 0.265792 -0.657280
H21   H     H_    0.439114 0.246583 0.308373 0.295840
O30   O     O_3   0.579371 0.130585 0.744291 -0.642556
H22   H     H_    0.545283 0.214124 0.705995 0.300470
O31   O     O_3   0.089891 0.653903 0.735127 -0.657514
H23   H     H_    0.059563 0.741953 0.693025 0.295851
O32   O     O_3   0.920031 0.635479 0.256573 -0.642718
H24   H     H_    0.953796 0.719178 0.295414 0.300038
O33   O     O_3   0.220003 0.842621 0.299283 -0.627240
H25   H     H_    0.201929 0.882500 0.233392 0.284385
O34   O     O_3   0.780760 0.927735 0.696863 -0.628413
H26   H     H_    0.796240 0.937644 0.765845 0.278944
O35   O     O_3   0.280409 0.348293 0.700165 -0.626756
H27   H     H_    0.298154 0.385412 0.766504 0.284045
O36   O     O_3   0.719435 0.420953 0.302496 -0.629258
H28   H     H_    0.703795 0.434387 0.233670 0.279199

loop_
_geom_bond_atom_site_label_1
_geom_bond_atom_site_label_2
_ccdc_geom_bond_type
O17   V3    S    
O18   V4    S    
O25   H17   S    
C27   C31   A    
O19   V1    S    
O13   V1    S    
C45   C46   A    
O1    C5    A    
O3    C7    A    
O30   H22   S    
C48   C51   A    
C52   C56   A    
O15   V3    S    
C4    C21   S    
C37   C45   A    
O36   H28   S    
C53   O25   S    
C50   H10   S    
O7    C3    A    
C49   H9    S    
O21   H13   S    
C8    C17   S    
C36   C40   A    
O9    V1    S    
C14   H2    S    
O16   V4    S    
O4    C8    A    
C28   H8    S    
C2    C23   S    
O32   H24   S    
C38   C46   A    
O1    V3    S    
C56   O28   S    
C21   C29   A    
C12   C19   A    
O2    V4    S    
O3    V1    S    
C24   C32   A    
C1    O15   A    
O22   H14   S    
C2    O16   A    
C28   C44   A    
C46   C49   A    
O2    C6    A    
C54   O26   S    
O14   V2    S    
C47   C52   A    
O29   H21   S    
O5    V1    S    
C23   C35   A    
O8    C4    A    
C29   O34   S    
C5    C20   S    
C35   O32   S    
O11   C7    A    
C6    C19   S    
C25   C41   A    
O12   C8    A    
C7    C18   S    
C27   H7    S    
C9    C18   A    
C1    C24   S    
O10   V2    S    
C11   C20   A    
O23   H15   S    
C43   C55   A    
C31   O36   S    
C35   C39   A    
C21   C33   A    
C34   C38   A    
C22   C30   A    
C12   C16   A    
O7    V3    S    
C10   O22   S    
C24   C36   A    
C26   H6    S    
C25   C29   A    
C15   H3    S    
C45   C50   A    
C30   O33   S    
C9    C13   A    
C28   C32   A    
O8    V4    S    
C52   H12   S    
C11   C15   A    
C47   C48   A    
O5    C1    A    
C33   C37   A    
C50   C54   A    
O24   H16   S    
C26   C42   A    
C49   C53   A    
C40   C44   A    
O9    C5    A    
C10   C17   A    
C40   C48   A    
O35   H27   S    
C44   C56   A    
O6    V2    S    
C22   C34   A    
C23   C31   A    
O28   H20   S    
C13   C17   A    
C33   O30   S    
C15   C19   A    
O31   H23   S    
C26   C30   A    
C16   C20   A    
C3    O13   A    
C36   O31   S    
C10   C14   A    
C51   H11   S    
C9    O21   S    
O6    C2    A    
O34   H26   S    
O11   V3    S    
O12   V4    S    
O27   H19   S    
O10   C6    A    
O20   V2    S    
C3    C22   S    
O33   H25   S    
C51   C55   A    
C38   C42   A    
C34   O29   S    
C37   C41   A    
C12   O24   S    
C39   C43   A    
C13   H1    S    
C32   O35   S    
C42   C54   A    
O4    V2    S    
C14   C18   A    
C41   C53   A    
C55   O27   S    
C16   H4    S    
C39   C47   A    
C4    O14   A    
O26   H18   S    
C25   H5    S    
C11   O23   S    
C27   C43   A    
