data_mof_unit_19591.cif
_audit_creation_date              2012-12-11T13:59:58-0500
_audit_creation_method            fapswitch 2.2
_symmetry_space_group_name_H-M    P1
_symmetry_Int_Tables_number       1
_space_group_crystal_system       triclinic
_cell_length_a                    11.273456
_cell_length_b                    11.26013
_cell_length_c                    18.692007
_cell_angle_alpha                 90.144847
_cell_angle_beta                  90.173343
_cell_angle_gamma                 119.944639
_cell_volume                      2055.99637357

loop_
_atom_site_label
_atom_site_type_symbol
_atom_type_description
_atom_site_fract_x
_atom_site_fract_y
_atom_site_fract_z
_atom_type_partial_charge
C1    C     C_R   0.542236 0.479702 0.852417 0.536342
C2    C     C_R   0.478245 0.546660 0.353509 0.546772
C3    C     C_R   0.068684 0.522184 0.353560 0.548763
C4    C     C_R   0.453479 0.931450 0.353642 0.548392
C5    C     C_2   0.019080 0.512415 0.585223 -0.106273
C6    C     C_2   0.486702 0.506394 0.585023 -0.107154
C7    C     C_2   0.492666 0.979226 0.585318 -0.106801
C8    C     C_2   0.478072 0.969053 0.428483 -0.103407
C9    C     C_2   0.492046 0.522064 0.428143 -0.102041
C10   C     C_2   0.030468 0.509079 0.428169 -0.103527
C11   C     C_2   0.089050 0.458977 0.472712 -0.150433
C12   C     C_R   0.519473 0.059176 0.850455 0.544525
C13   C     C_2   0.539748 0.630456 0.472947 -0.150313
C14   C     C_2   0.369495 0.908796 0.472620 -0.150296
C15   C     C_2   0.378169 0.940759 0.548268 -0.162322
C16   C     C_2   0.562351 0.621349 0.548645 -0.162287
C17   C     C_2   0.056739 0.435730 0.548198 -0.162394
C18   C     C_2   0.007554 0.507468 0.921377 0.278576
C19   C     C_2   0.493486 0.505242 0.919910 0.275599
C20   C     C_2   0.490991 0.973732 0.913442 0.291479
C21   C     C_2   0.483423 0.982685 0.074326 0.294687
C22   C     C_2   0.503802 0.491015 0.080463 0.283380
C23   C     C_R   0.937377 0.458368 0.852616 0.545525
C24   C     C_2   0.983169 0.490185 0.081166 0.282563
C25   C     C_2   0.001154 0.595777 0.040420 -0.046703
C26   C     C_2   0.395908 0.417058 0.037084 -0.038514
C27   C     C_2   0.379156 0.913846 0.027970 -0.019225
C28   C     C_2   0.386026 0.953576 0.954255 -0.059587
C29   C     C_2   0.415521 0.397376 0.961971 -0.038782
C30   C     C_2   0.966376 0.576193 0.964493 -0.040209
C31   C     C_R   0.479396 0.541435 0.147771 0.546453
C32   C     C_R   0.061047 0.519433 0.147988 0.535842
C33   C     C_R   0.456409 0.936240 0.147553 0.524772
C34   C     C_R   0.541012 0.480860 0.649714 0.556085
C35   C     C_R   0.518828 0.059858 0.649815 0.553520
C36   C     C_R   0.939714 0.458729 0.649780 0.555021
Cr1   Cr    Cr6+3 0.464030 0.233680 0.750360 1.020139
Cr2   Cr    Cr6+3 0.766320 0.230350 0.750360 1.036700
Cr3   Cr    Cr6+3 0.769650 0.535970 0.750360 1.024564
Cr4   Cr    Cr6+3 0.233680 0.464030 0.249640 1.027136
Cr5   Cr    Cr6+3 0.230350 0.766320 0.249640 1.019243
Cr6   Cr    Cr6+3 0.535970 0.769650 0.249640 1.043802
H1    H     H_    0.964093 0.546701 0.446792 0.093192
H2    H     H_    0.291645 0.943714 0.571806 0.152521
H3    H     H_    0.651030 0.708299 0.572879 0.152250
H4    H     H_    0.053600 0.346055 0.571735 0.152475
H5    H     H_    0.048384 0.699396 0.061527 0.074881
H6    H     H_    0.291379 0.378690 0.054879 0.122461
H7    H     H_    0.281155 0.831365 0.045879 0.089752
H8    H     H_    0.309248 0.978372 0.936215 0.083243
H9    H     H_    0.372797 0.292514 0.943031 0.096519
H10   H     H_    0.898333 0.611695 0.945398 0.128433
H11   H     H_    0.905739 0.293177 0.091365 0.331836
H12   H     H_    0.456164 0.418333 0.446590 0.093325
H13   H     H_    0.700142 0.582333 0.096787 0.326549
H14   H     H_    0.666038 0.127345 0.096714 0.320623
H15   H     H_    0.648597 0.949225 0.898802 0.327448
H16   H     H_    0.594402 0.702195 0.906456 0.340222
H17   H     H_    0.119894 0.423852 0.906030 0.325783
H18   H     H_    0.581661 0.036467 0.447531 0.092831
H19   H     H_    0.575843 0.968501 0.563087 0.101969
H20   H     H_    0.393443 0.422725 0.562194 0.102158
H21   H     H_    0.029841 0.606436 0.563061 0.102243
H22   H     H_    0.155866 0.422960 0.452341 0.157978
H23   H     H_    0.574088 0.733004 0.452725 0.156948
H24   H     H_    0.267074 0.841064 0.451812 0.158049
O1    O     O_R   0.434100 0.092480 0.829780 -0.544317
O2    O     O_R   0.362730 0.477510 0.175360 -0.523848
O3    O     O_R   0.114780 0.637270 0.175360 -0.524982
O4    O     O_R   0.522490 0.885220 0.175360 -0.485794
O5    O     O_R   0.432250 0.092620 0.670380 -0.515834
O6    O     O_R   0.907380 0.339630 0.670380 -0.519121
O7    O     O_R   0.660370 0.567750 0.670380 -0.516773
O8    O     O_R   0.092620 0.432250 0.329620 -0.515834
O9    O     O_R   0.339630 0.907380 0.329620 -0.512753
O10   O     O_R   0.567750 0.660370 0.329620 -0.517947
O11   O     O_R   0.475790 0.362860 0.676880 -0.500874
O12   O     O_R   0.907520 0.341620 0.829780 -0.500392
O13   O     O_R   0.637140 0.112930 0.676880 -0.506391
O14   O     O_R   0.887070 0.524210 0.676880 -0.502274
O15   O     O_R   0.362860 0.475790 0.323120 -0.504001
O16   O     O_R   0.112930 0.637140 0.323120 -0.503255
O17   O     O_R   0.524210 0.887070 0.323120 -0.505958
O18   O     O_3   0.666667 0.333333 0.749450 -0.242946
O19   O     O_3   0.333333 0.666667 0.250550 -0.252400
O20   O     O_3   0.907658 0.357646 0.054835 -0.634658
O21   O     O_3   0.635209 0.531838 0.057318 -0.667992
O22   O     O_3   0.607334 0.091886 0.053461 -0.632631
O23   O     O_R   0.658380 0.565900 0.829780 -0.519833
O24   O     O_3   0.578699 0.928363 0.936081 -0.632165
O25   O     O_3   0.539654 0.637192 0.944665 -0.631739
O26   O     O_3   0.101578 0.471508 0.945440 -0.670922
O27   O     O_R   0.092480 0.434100 0.170220 -0.516821
O28   O     O_R   0.341620 0.907520 0.170220 -0.542835
O29   O     O_R   0.565900 0.658380 0.170220 -0.498962
O30   O     O_R   0.477510 0.362730 0.824640 -0.522751
O31   O     O_R   0.637270 0.114780 0.824640 -0.497902
O32   O     O_R   0.885220 0.522490 0.824640 -0.528395

loop_
_geom_bond_atom_site_label_1
_geom_bond_atom_site_label_2
_ccdc_geom_bond_type
Cr4   O27   S    
C4    C8    S    
C33   O28   A    
C13   H23   S    
C15   H2    S    
C34   O11   A    
H14   O22   S    
C21   C33   S    
Cr2   O13   S    
C5    C36   S    
Cr6   O4    S    
C5    H21   S    
C3    O8    A    
C9    C13   D    
C7    H19   S    
C4    O9    A    
C28   H8    S    
C8    C14   D    
Cr1   O18   S    
H11   O20   S    
C18   C30   D    
H16   O25   S    
C25   H5    S    
C20   C28   D    
C26   H6    S    
C7    C15   D    
C32   O27   A    
C21   C27   D    
C21   O22   S    
C35   O5    A    
H15   O24   S    
Cr2   O31   S    
C31   O2    A    
C12   O1    A    
Cr2   O6    S    
C1    C19   S    
C22   C31   S    
C27   H7    S    
Cr6   O29   S    
C17   H4    S    
C11   H22   S    
C36   O14   A    
Cr3   O32   S    
Cr2   O12   S    
C20   O24   S    
C18   C23   S    
Cr1   O30   S    
Cr4   O19   S    
C24   C32   S    
Cr5   O9    S    
Cr5   O28   S    
C12   C20   S    
C3    O16   A    
C14   H24   S    
Cr6   O19   S    
C22   O21   S    
C24   C25   D    
C12   O31   A    
C33   O4    A    
Cr1   O5    S    
Cr4   O2    S    
C19   C29   D    
C2    O10   A    
Cr5   O3    S    
C29   H9    S    
C25   C30   S    
C30   H10   S    
C11   C17   S    
C1    O23   A    
Cr2   O18   S    
C10   H1    S    
C7    C35   S    
Cr4   O15   S    
Cr6   O17   S    
C16   H3    S    
Cr3   O18   S    
C32   O3    A    
Cr5   O19   S    
Cr6   O10   S    
C18   O26   S    
Cr3   O14   S    
C6    H20   S    
C3    C10   S    
C8    H18   S    
C4    O17   A    
Cr1   O11   S    
C1    O30   A    
C31   O29   A    
Cr5   O16   S    
Cr1   O1    S    
C35   O13   A    
Cr4   O8    S    
H17   O26   S    
Cr3   O7    S    
C23   O12   A    
H13   O21   S    
C19   O25   S    
C10   C11   D    
C34   O7    A    
C6    C16   D    
C6    C34   S    
C23   O32   A    
C5    C17   D    
C26   C29   S    
C22   C26   D    
C13   C16   S    
C27   C28   S    
C14   C15   S    
C2    O15   A    
C9    H12   S    
C2    C9    S    
C24   O20   S    
Cr3   O23   S    
C36   O6    A    
