data_mof_unit_28150.cif
_audit_creation_date              2012-12-10T19:52:15-0500
_audit_creation_method            fapswitch 2.2
_symmetry_space_group_name_H-M    P1
_symmetry_Int_Tables_number       1
_space_group_crystal_system       triclinic
_cell_length_a                    14.825946
_cell_length_b                    14.096229
_cell_length_c                    10.680727
_cell_angle_alpha                 90.307071
_cell_angle_beta                  89.859292
_cell_angle_gamma                 90.851318
_cell_volume                      2231.87963936

loop_
_atom_site_label
_atom_site_type_symbol
_atom_type_description
_atom_site_fract_x
_atom_site_fract_y
_atom_site_fract_z
_atom_type_partial_charge
C1    C     C_R   0.329021 0.498445 0.476721 0.860437
C2    C     C_3   0.578097 0.465367 0.922822 -0.462683
C3    C     C_R   0.099411 0.589175 0.415990 0.074391
C4    C     C_R   0.086328 0.414770 0.437320 0.058676
C5    C     C_R   0.192659 0.579619 0.396072 0.046016
C6    C     C_R   0.181550 0.408041 0.435886 0.055349
C7    C     C_R   0.233786 0.494440 0.434397 -0.186481
C8    C     C_R   0.047572 0.506021 0.436127 -0.041099
C9    C     C_R   0.895150 0.499055 0.349257 -0.224299
C10   C     C_R   0.915826 0.525134 0.573353 -0.175897
C11   C     C_R   0.802946 0.493602 0.366700 -0.202462
C12   C     C_R   0.823207 0.520796 0.590491 -0.218918
C13   C     C_R   0.767750 0.503493 0.487221 0.004600
C14   C     C_R   0.951232 0.513543 0.452921 0.156780
C15   C     C_R   0.548656 0.106448 0.404168 0.365861
C16   C     C_R   0.453442 0.893013 0.402772 0.364571
C17   C     C_R   0.500478 0.500065 0.257271 0.830440
C18   C     C_R   0.545701 0.206141 0.408006 -0.002962
C19   C     C_R   0.456637 0.793438 0.406378 -0.030863
C20   C     C_R   0.456056 0.203043 0.591450 -0.036052
C21   C     C_R   0.543782 0.797622 0.591189 -0.013133
C22   C     C_R   0.456400 0.103440 0.592014 -0.323913
C23   C     C_R   0.543187 0.897248 0.592218 -0.315049
C24   C     C_R   0.501967 0.053305 0.497603 -0.010259
C25   C     C_R   0.498430 0.946793 0.497492 -0.002626
C26   C     C_R   0.672405 0.500810 0.502301 0.870529
C27   C     C_R   0.489942 0.500590 0.741803 0.826622
C28   C     C_3   0.471791 0.602113 0.075139 -0.417098
C29   C     C_3   0.422651 0.428850 0.077131 -0.437626
C30   C     C_3   0.476165 0.607530 0.932155 -0.033075
C31   C     C_3   0.409074 0.434565 0.933643 -0.048306
C32   C     C_3   0.587247 0.472281 0.065484 -0.445706
C33   C     C_3   0.495905 0.500871 0.121138 0.150842
C34   C     C_3   0.484478 0.503246 0.878693 0.114046
H1    H     H_    0.519487 0.656567 0.113801 0.173052
H2    H     H_    0.442465 0.355358 0.101779 0.179452
H3    H     H_    0.759079 0.481546 0.286939 0.124392
H4    H     H_    0.794888 0.529526 0.683403 0.120501
H5    H     H_    0.580852 0.247023 0.337112 0.151568
H6    H     H_    0.424392 0.752508 0.333140 0.139620
H7    H     H_    0.420108 0.240947 0.663903 0.130195
H8    H     H_    0.579806 0.760132 0.663089 0.133719
H9    H     H_    0.420192 0.065559 0.664899 0.166980
H10   H     H_    0.578655 0.935566 0.665675 0.169629
H11   H     H_    0.403511 0.619503 0.110840 0.169542
H12   H     H_    0.359190 0.443228 0.129529 0.136407
H13   H     H_    0.541470 0.643478 0.908261 0.155693
H14   H     H_    0.420265 0.362351 0.894108 0.148721
H15   H     H_    0.639963 0.526118 0.090590 0.166604
H16   H     H_    0.608868 0.402784 0.103352 0.182601
H17   H     H_    0.634625 0.506224 0.878727 0.160134
H18   H     H_    0.585938 0.389889 0.893864 0.196693
H19   H     H_    0.923253 0.489202 0.256423 0.135482
H20   H     H_    0.959908 0.535385 0.653210 0.128658
N1    N     N_R   0.499980 0.252470 0.500000 -0.120539
N2    N     N_R   0.499980 0.747530 0.500000 -0.119796
O1    O     O_R   0.369070 0.579480 0.500010 -0.631512
O2    O     O_R   0.369070 0.420520 0.500010 -0.629604
O3    O     O_R   0.499990 0.579480 0.314790 -0.643335
O4    O     O_R   0.499990 0.420520 0.314790 -0.640762
O5    O     O_R   0.630940 0.579480 0.499990 -0.606554
O6    O     O_R   0.630940 0.420520 0.499990 -0.607065
O7    O     O_R   0.500020 0.579480 0.685200 -0.633990
O8    O     O_R   0.500020 0.420520 0.685200 -0.624141
Zn1   Zn    Zn3+2 0.500010 0.606140 0.500000 0.918039
Zn2   Zn    Zn3+2 0.500010 0.393860 0.500000 0.921844
O9    O     O_3   0.597892 0.065255 0.308930 -0.775273
H21   H     H_    0.602235 0.996253 0.323324 0.347497
O10   O     O_3   0.406041 0.933410 0.306047 -0.790912
H22   H     H_    0.401516 0.002503 0.320218 0.347384
C35   C     C_3   0.400216 0.672900 0.880793 -0.412424
C36   C     C_3   0.427552 0.778470 0.890275 -0.351984
C37   C     C_3   0.360513 0.841399 0.822696 -0.851899
H23   H     H_    0.359294 0.824079 0.721108 0.263882
H24   H     H_    0.291687 0.831368 0.861808 0.253279
H25   H     H_    0.381107 0.916996 0.834155 0.249719
H26   H     H_    0.431683 0.800265 0.990138 0.233463
H27   H     H_    0.495122 0.790609 0.848130 0.213883
H28   H     H_    0.383374 0.657096 0.782272 0.238094
H29   H     H_    0.336362 0.663800 0.933397 0.203344
C38   C     C_3   0.308133 0.456591 0.910683 -0.457661
C39   C     C_3   0.277829 0.460268 0.774559 -0.323624
C40   C     C_3   0.175851 0.474149 0.768270 -0.930364
H30   H     H_    0.139558 0.411290 0.806916 0.256573
H31   H     H_    0.156347 0.538438 0.821907 0.260332
H32   H     H_    0.154533 0.483875 0.670264 0.260798
H33   H     H_    0.311063 0.520784 0.727280 0.224301
H34   H     H_    0.295479 0.393224 0.725850 0.224568
H35   H     H_    0.267913 0.398706 0.955764 0.209228
H36   H     H_    0.288612 0.522123 0.960188 0.208742
C41   C     C_3   0.057584 0.687576 0.431050 -0.399130
C42   C     C_3   0.983577 0.709801 0.334427 -0.332997
C43   C     C_3   0.984026 0.814613 0.298891 -0.894359
H37   H     H_    0.974480 0.859438 0.383618 0.265523
H38   H     H_    0.048781 0.834631 0.252950 0.265049
H39   H     H_    0.928162 0.828085 0.232557 0.254254
H40   H     H_    0.991147 0.666344 0.248142 0.210847
H41   H     H_    0.916303 0.692762 0.375141 0.239935
H42   H     H_    0.027966 0.692723 0.526488 0.180321
H43   H     H_    0.110030 0.744228 0.429425 0.216053
C44   C     C_3   0.025765 0.326171 0.451215 -0.403392
C45   C     C_3   0.025964 0.289986 0.586699 -0.353385
C46   C     C_3   0.971487 0.197823 0.598800 -0.873889
H44   H     H_    0.900422 0.208833 0.570231 0.270364
H45   H     H_    0.001388 0.141591 0.539175 0.259067
H46   H     H_    0.972142 0.173963 0.697693 0.248477
H47   H     H_    0.095760 0.277711 0.619624 0.218829
H48   H     H_    0.995906 0.344363 0.649203 0.229542
H49   H     H_    0.954818 0.338913 0.425597 0.220159
H50   H     H_    0.044788 0.270503 0.382734 0.190252
C47   C     C_3   0.247480 0.657239 0.329872 -0.370348
C48   C     C_3   0.210699 0.680411 0.199356 -0.416554
C49   C     C_3   0.249865 0.774084 0.151719 -0.843223
H51   H     H_    0.229503 0.833352 0.214124 0.280816
H52   H     H_    0.324475 0.771379 0.148351 0.272706
H53   H     H_    0.223849 0.787776 0.056369 0.242818
H54   H     H_    0.228192 0.622508 0.132978 0.202496
H55   H     H_    0.136760 0.685929 0.199363 0.254471
H56   H     H_    0.252623 0.721391 0.390341 0.205706
H57   H     H_    0.316991 0.633782 0.310790 0.204403
C50   C     C_3   0.225680 0.309997 0.429843 -0.367685
C51   C     C_3   0.274351 0.295067 0.304277 -0.343461
C52   C     C_3   0.304816 0.192803 0.287962 -0.881805
H58   H     H_    0.347593 0.171761 0.367781 0.267673
H59   H     H_    0.245416 0.144028 0.282388 0.260008
H60   H     H_    0.344562 0.186141 0.200178 0.251670
H61   H     H_    0.228410 0.312646 0.225866 0.207918
H62   H     H_    0.334371 0.342259 0.298302 0.247410
H63   H     H_    0.270239 0.297796 0.510894 0.210533
H64   H     H_    0.177533 0.250404 0.439750 0.199101

loop_
_geom_bond_atom_site_label_1
_geom_bond_atom_site_label_2
_ccdc_geom_bond_type
C19   N2    A    
C15   C18   A    
O7    Zn1   S    
C43   H37   S    
C37   H23   S    
C47   C48   S    
C50   H64   S    
C4    C8    A    
C35   H28   S    
C30   C35   S    
C42   H41   S    
C52   H58   S    
C29   H2    S    
C44   C45   S    
C2    C32   S    
C3    C41   S    
C26   O5    A    
C48   H54   S    
C52   H59   S    
C44   H49   S    
N2    Zn1   S    
C29   C33   S    
C47   H56   S    
C51   H61   S    
C11   H3    S    
C35   H29   S    
C36   H27   S    
O2    Zn2   S    
C40   H30   S    
C28   H1    S    
C45   H48   S    
C41   H43   S    
C49   H53   S    
C38   H35   S    
C2    C34   S    
O4    Zn2   S    
C43   H38   S    
C51   H62   S    
C37   H24   S    
C45   C46   S    
C17   C33   S    
C20   N1    A    
C10   C12   A    
C48   C49   S    
C42   H40   S    
C20   H7    S    
C27   C34   S    
C28   H11   S    
C30   C34   S    
O9    H21   S    
C30   H13   S    
C24   C25   S    
C4    C6    A    
C3    C8    A    
C19   H6    S    
C50   H63   S    
C41   C42   S    
C5    C7    A    
C9    C14   A    
O6    Zn2   S    
C52   H60   S    
C5    C47   S    
C44   H50   S    
C38   C39   S    
C23   H10   S    
C47   H57   S    
O8    Zn2   S    
C18   H5    S    
C36   H26   S    
C1    O1    A    
C22   H9    S    
C15   O9    S    
C4    C44   S    
C31   C34   S    
C45   H47   S    
C46   H45   S    
C9    C11   A    
C32   H16   S    
C50   C51   S    
C2    H18   S    
C18   N1    A    
C17   O3    A    
C38   H36   S    
C15   C24   A    
C40   H31   S    
C20   C22   A    
C28   C33   S    
C43   H39   S    
C31   H14   S    
C21   C23   A    
C10   C14   A    
C37   H25   S    
C22   C24   A    
C13   C26   S    
C9    H19   S    
N1    Zn2   S    
C49   H51   S    
C16   C25   A    
C8    C14   S    
C1    C7    S    
C16   O10   S    
O1    Zn1   S    
C36   C37   S    
C3    C5    A    
C21   N2    A    
C6    C7    A    
C2    H17   S    
C31   C38   S    
C29   H12   S    
C32   C33   S    
C28   C30   S    
C26   O6    A    
C35   C36   S    
C29   C31   S    
C1    O2    A    
O3    Zn1   S    
C48   H55   S    
C11   C13   A    
C16   C19   A    
C39   H34   S    
C42   C43   S    
C46   H46   S    
C23   C25   A    
C12   H4    S    
O10   H22   S    
C10   H20   S    
C32   H15   S    
C27   O8    A    
C17   O4    A    
C21   H8    S    
O5    Zn1   S    
C40   H32   S    
C12   C13   A    
C39   C40   S    
C46   H44   S    
C27   O7    A    
C6    C50   S    
C41   H42   S    
C51   C52   S    
C39   H33   S    
C49   H52   S    
