data_mof_unit_32151.cif
_audit_creation_date              2013-03-05T15:42:49-0500
_audit_creation_method            fapswitch 2.2
_symmetry_space_group_name_H-M    P1
_symmetry_Int_Tables_number       1
_space_group_crystal_system       triclinic
_cell_length_a                    6.933183
_cell_length_b                    14.778212
_cell_length_c                    16.24275
_cell_angle_alpha                 90.328635
_cell_angle_beta                  89.42406
_cell_angle_gamma                 89.269618
_cell_volume                      1663.98504163

loop_
_atom_site_label
_atom_site_type_symbol
_atom_site_description
_atom_site_fract_x
_atom_site_fract_y
_atom_site_fract_z
_atom_type_partial_charge
O1    O     O_R   0.494400 0.416610 0.413880 -0.537659
O2    O     O_R   0.823920 0.406790 0.585520 -0.535965
O3    O     O_R   0.994250 0.583390 0.586120 -0.507642
C1    C     C_R   0.654665 0.385431 0.613876 0.877652
O4    O     O_R   0.824110 0.405730 0.414490 -0.545851
O5    O     O_R   0.994440 0.582310 0.413870 -0.497615
C2    C     C_R   0.656571 0.384551 0.385763 0.905916
O6    O     O_R   0.494210 0.417690 0.586130 -0.537009
O7    O     O_3   0.660810 0.557940 0.500000 -0.231736
V1    V     V_3+5 0.935650 0.489250 0.500000 1.341905
O8    O     O_R   0.324160 0.593210 0.414480 -0.542375
C3    C     C_R   0.154733 0.613226 0.384763 0.927779
O9    O     O_R   0.323970 0.594270 0.585510 -0.554003
C4    C     C_R   0.151750 0.619634 0.611219 0.937809
V2    V     V_3+5 0.435660 0.510750 0.500000 1.315535
O10   O     O_3   0.160630 0.442060 0.500000 -0.248070
H1    H     H_    0.949058 0.927830 0.514777 0.177639
C5    C     C_R   0.195877 0.562484 0.787568 0.230284
C6    C     C_R   0.238512 0.539048 0.869626 0.300954
C7    C     C_R   0.240457 0.605671 0.931285 0.256378
C8    C     C_R   0.197102 0.694989 0.911154 -0.177542
C9    C     C_R   0.162330 0.721983 0.829336 -0.055507
C10   C     C_R   0.165015 0.655669 0.764713 -0.056075
C11   C     C_R   0.130997 0.814993 0.812215 -0.044316
C12   C     C_R   0.114273 0.843623 0.729311 -0.122018
C13   C     C_R   0.084460 0.778241 0.665849 -0.058819
C14   C     C_R   0.130492 0.684769 0.681546 -0.048647
C15   C     C_R   0.126019 0.936854 0.707697 0.278400
C16   C     C_R   0.066843 0.966008 0.630161 0.342481
C17   C     C_R   0.003177 0.903827 0.573213 -0.092052
C18   C     C_R   0.012303 0.811354 0.589059 0.267013
H2    H     H_    0.199088 0.744130 0.960713 0.109928
C19   C     C_2   0.984042 0.699772 0.272602 0.407515
C20   C     C_2   0.143920 0.681715 0.318210 -0.143047
H3    H     H_    0.274326 0.719800 0.308067 0.066444
C21   C     C_2   0.974234 0.771962 0.208952 -0.062537
C22   C     C_2   0.127611 0.813395 0.175746 -0.199700
H4    H     H_    0.831620 0.789280 0.186290 0.137957
H5    H     H_    0.272528 0.795576 0.194669 0.107835
C23   C     C_2   0.778188 0.217113 0.788866 -0.029195
C24   C     C_2   0.613709 0.179621 0.816526 -0.117602
H6    H     H_    0.913034 0.199524 0.818325 0.165059
H7    H     H_    0.476386 0.196593 0.789097 0.139891
C25   C     C_2   0.791139 0.281771 0.718987 0.004254
C26   C     C_2   0.637881 0.319504 0.681529 -0.130325
H8    H     H_    0.935320 0.299628 0.698757 0.175053
H9    H     H_    0.492633 0.304074 0.701550 0.136535
C27   C     C_2   0.769979 0.203033 0.218292 -0.045419
C28   C     C_2   0.607388 0.171681 0.184460 -0.170530
H10   H     H_    0.908760 0.182592 0.192199 0.138419
H11   H     H_    0.468990 0.186379 0.213791 0.147893
C29   C     C_2   0.769692 0.254882 0.297409 0.257601
C30   C     C_2   0.648426 0.326889 0.311232 0.168962
O11   O     O_R   0.770210 0.079270 0.910680 -0.557131
O12   O     O_R   0.440150 0.091160 0.082270 -0.558480
O13   O     O_R   0.269970 0.914530 0.082860 -0.568110
C31   C     C_R   0.607104 0.111336 0.111795 0.845881
O14   O     O_R   0.440480 0.090100 0.911240 -0.500690
O15   O     O_R   0.270310 0.913460 0.910610 -0.525676
C32   C     C_R   0.609212 0.112915 0.884018 0.921308
O16   O     O_R   0.769870 0.080340 0.082930 -0.570764
O17   O     O_3   0.603660 0.938980 0.996790 -0.279923
V3    V     V_3+5 0.328750 0.007610 0.996740 1.255753
O18   O     O_R   0.940600 0.902510 0.911180 -0.557542
C33   C     C_R   0.111614 0.882192 0.881466 0.859545
O19   O     O_R   0.940270 0.903570 0.082200 -0.570779
C34   C     C_R   0.109914 0.881822 0.110162 0.842230
V4    V     V_3+5 0.828770 0.986010 0.996670 1.210647
O20   O     O_3   0.103730 0.054750 0.996710 -0.256702
N1    N     N_R   0.904801 0.226053 0.359182 0.089402
O21   O     O_R   0.850276 0.219895 0.435857 -0.326372
O22   O     O_R   0.071086 0.191423 0.337099 -0.322683
Cl1   Cl    Cl    0.160066 0.468934 0.720949 -0.649176
Cl2   Cl    Cl    0.489169 0.367279 0.234740 -0.546521
N2    N     N_R   0.269218 0.445891 0.891186 0.148868
O23   O     O_R   0.158827 0.407882 0.945870 -0.268152
O24   O     O_R   0.410627 0.399552 0.857759 -0.326387
N3    N     N_R   0.289062 0.583652 0.014861 0.135350
O25   O     O_R   0.422741 0.523640 0.030195 -0.223092
O26   O     O_R   0.213972 0.629908 0.075863 -0.339649
N4    N     N_R   0.232613 0.998378 0.757103 0.092366
O27   O     O_R   0.151960 0.072602 0.784601 -0.352278
O28   O     O_R   0.418679 0.987706 0.761659 -0.372450
Cl3   Cl    Cl    0.075701 0.080731 0.601565 -0.527193
Cl4   Cl    Cl    0.896803 0.746808 0.513789 -0.669091
Cl5   Cl    Cl    0.767696 0.638666 0.284079 -0.564344

loop_
_geom_bond_atom_site_label_1
_geom_bond_atom_site_label_2
_geom_bond_distance
_ccdc_geom_bond_type
O19   V4    2.007210 S    
C18   Cl4   1.752621 S    
C6    C7    1.400679 A    
N2    O23   1.301236 A    
N4    O27   1.299638 A    
O11   C32   1.295675 A    
C29   C30   1.363938 D    
C12   C15   1.426889 A    
C13   C14   1.438559 A    
C16   C17   1.379733 A    
O18   V4    1.996585 S    
C15   C16   1.397197 A    
C5    C6    1.412239 A    
O5    C3    1.293135 A    
C17   C18   1.392828 A    
N3    O26   1.301100 A    
O11   V4    2.008567 S    
O14   C32   1.295801 A    
V2    O10   2.171595 S    
C19   C21   1.491254 S    
C28   C31   1.475257 S    
C20   H3    1.082782 S    
O8    V2    2.007275 S    
V3    O20   1.700456 S    
V4    O20   2.171524 S    
C28   H11   1.085891 S    
O12   V3    2.019225 S    
N1    O21   1.301906 A    
O1    V2    2.002459 S    
C10   C14   1.441392 A    
C4    C14   1.494491 S    
O7    V1    2.147588 S    
C1    O6    1.291115 A    
C27   H10   1.086100 S    
O19   C34   1.302212 A    
C13   C18   1.434834 A    
O9    C4    1.310483 A    
H1    C17   1.084031 S    
C24   H7    1.082392 S    
N4    O28   1.300535 A    
C25   H8    1.085355 S    
C1    C26   1.477460 S    
C26   H9    1.082579 S    
C8    H2    1.081364 S    
C5    C10   1.442209 A    
C11   C12   1.419215 A    
C16   Cl3   1.762107 S    
O4    C2    1.297466 A    
N3    O25   1.301454 A    
C12   C13   1.427173 A    
O2    C1    1.299637 A    
C19   Cl5   1.769457 S    
O17   V3    2.147617 S    
C27   C29   1.492368 S    
C19   C20   1.363791 D    
O13   V3    2.009941 S    
O12   C31   1.295016 A    
N2    O24   1.301106 A    
O3    C4    1.291069 A    
C11   C33   1.500093 S    
C23   C24   1.348303 D    
C5    Cl1   1.772240 S    
O9    V2    1.996625 S    
C9    C11   1.418390 A    
C2    C30   1.478393 S    
C3    C20   1.486896 S    
C21   H4    1.086558 S    
O2    V1    2.009099 S    
C25   C26   1.346085 D    
O14   V3    2.009147 S    
C21   C22   1.343680 D    
C15   N4    1.427409 S    
O1    C2    1.292608 A    
C24   C32   1.478865 S    
O5    V1    2.009862 S    
O8    C3    1.305566 A    
C31   O16   1.294934 A    
C7    N3    1.440054 S    
O6    V2    2.008121 S    
O13   C34   1.291500 A    
O15   V3    2.015113 S    
O17   V4    1.716548 S    
O18   C33   1.306391 A    
C6    N2    1.436247 S    
O7    V2    1.717800 S    
O4    V1    2.019117 S    
C22   H5    1.083378 S    
O3    V1    2.015139 S    
V1    O10   1.700492 S    
O15   C33   1.291944 A    
O16   V4    2.006175 S    
C27   C28   1.345450 D    
C22   C34   1.477909 S    
C23   H6    1.083888 S    
C29   N1    1.441997 S    
C23   C25   1.490629 S    
C7    C8    1.391534 A    
C9    C10   1.431732 A    
N1    O22   1.301633 A    
C8    C9    1.411881 A    
C30   Cl2   1.771542 S    
