data_mof_unit_18249.cif
_audit_creation_date              2012-12-11T17:05:25-0500
_audit_creation_method            fapswitch 2.2
_symmetry_space_group_name_H-M    P1
_symmetry_Int_Tables_number       1
_space_group_crystal_system       triclinic
_cell_length_a                    6.999791
_cell_length_b                    14.585373
_cell_length_c                    16.018226
_cell_angle_alpha                 90.020602
_cell_angle_beta                  91.048077
_cell_angle_gamma                 90.995098
_cell_volume                      1634.8532047

loop_
_atom_site_label
_atom_site_type_symbol
_atom_type_description
_atom_site_fract_x
_atom_site_fract_y
_atom_site_fract_z
_atom_type_partial_charge
O1    O     O_R   0.494380 0.415640 0.412830 -0.541297
O2    O     O_R   0.823960 0.405540 0.586560 -0.549067
O3    O     O_R   0.994270 0.584360 0.587170 -0.525511
C1    C     C_R   0.655433 0.384145 0.615567 0.696479
O4    O     O_R   0.824090 0.404620 0.413450 -0.547094
O5    O     O_R   0.994400 0.583430 0.412820 -0.537706
C2    C     C_R   0.653655 0.382415 0.385021 0.695116
O6    O     O_R   0.494250 0.416570 0.587180 -0.532815
O7    O     O_3   0.660800 0.558670 0.500000 -0.346882
V1    V     V_3+5 0.935650 0.489120 0.500000 1.421231
O8    O     O_R   0.324110 0.594460 0.413440 -0.538972
C3    C     C_R   0.154875 0.616258 0.384577 0.691606
O9    O     O_R   0.323980 0.595380 0.586550 -0.524798
C4    C     C_R   0.157166 0.619332 0.614127 0.722896
V2    V     V_3+5 0.435660 0.510880 0.500000 1.457396
O10   O     O_3   0.160640 0.441330 0.500000 -0.379109
C5    C     C_3   0.950183 0.683398 0.726321 0.063498
H1    H     H_    0.914137 0.610853 0.740495 0.096451
C6    C     C_3   0.960504 0.736694 0.810844 -0.391983
H2    H     H_    0.997537 0.687930 0.861855 0.102061
H3    H     H_    0.821119 0.760960 0.828384 0.208857
H4    H     H_    0.084060 0.803494 0.591644 0.151296
H5    H     H_    0.952931 0.881757 0.708071 0.197929
C7    C     C_3   0.167103 0.792433 0.650310 -0.289670
C8    C     C_3   0.305886 0.679317 0.752548 -0.387769
C9    C     C_3   0.147831 0.691560 0.683300 0.045502
H6    H     H_    0.445709 0.664086 0.727986 0.207255
H7    H     H_    0.269742 0.617749 0.790309 0.134106
C10   C     C_3   0.118706 0.813494 0.807746 0.050887
C11   C     C_3   0.102584 0.860899 0.719992 -0.286401
C12   C     C_3   0.315455 0.764944 0.811364 0.059619
H8    H     H_    0.346624 0.740365 0.875897 0.090229
H9    H     H_    0.317439 0.807183 0.633386 0.202154
H10   H     H_    0.187154 0.925802 0.716904 0.149359
C13   C     C_R   0.278599 0.812375 0.237241 0.105239
C14   C     C_R   0.118980 0.815497 0.183381 -0.112832
C15   C     C_R   0.963635 0.756552 0.201238 -0.188305
H11   H     H_    0.837968 0.755995 0.161150 0.139415
C16   C     C_R   0.974358 0.693033 0.267378 -0.179336
H12   H     H_    0.855957 0.645736 0.276402 0.131328
C17   C     C_R   0.141117 0.686263 0.317571 -0.110581
C18   C     C_R   0.289448 0.749473 0.302747 0.114752
C19   C     C_3   0.494715 0.731774 0.287494 -0.412347
C20   C     C_3   0.482551 0.799713 0.215967 -0.407822
H13   H     H_    0.518390 0.660226 0.266599 0.162471
H14   H     H_    0.588529 0.755993 0.340038 0.188177
H15   H     H_    0.498417 0.767581 0.153555 0.168829
H16   H     H_    0.570154 0.862823 0.226743 0.168047
C21   C     C_R   0.510489 0.321527 0.747819 0.051409
C22   C     C_R   0.648767 0.317780 0.685570 -0.135684
C23   C     C_R   0.791919 0.251285 0.695904 -0.177888
H17   H     H_    0.907918 0.247824 0.652304 0.125258
C24   C     C_R   0.781226 0.185156 0.760196 -0.164176
H18   H     H_    0.889637 0.133216 0.764236 0.126511
C25   C     C_R   0.625840 0.182973 0.815244 -0.091063
C26   C     C_R   0.497628 0.254675 0.808890 0.026463
C27   C     C_3   0.286072 0.257835 0.812421 -0.437153
C28   C     C_3   0.298475 0.334746 0.747370 0.155844
H19   H     H_    0.237576 0.279436 0.875025 0.174324
H20   H     H_    0.216900 0.194122 0.787531 0.153777
H21   H     H_    0.227193 0.319348 0.686216 0.124223
C29   C     C_R   0.511665 0.319861 0.250267 0.089224
C30   C     C_R   0.644694 0.314373 0.316103 -0.157041
C31   C     C_R   0.783055 0.245687 0.310933 -0.192900
H22   H     H_    0.891990 0.240583 0.359587 0.141499
C32   C     C_R   0.776359 0.178772 0.246877 0.284419
C33   C     C_R   0.630887 0.181863 0.182990 -0.168637
C34   C     C_R   0.505650 0.256007 0.185644 0.053303
C35   C     C_3   0.292666 0.258068 0.179964 -0.381679
C36   C     C_3   0.299625 0.327651 0.250804 -0.387333
H23   H     H_    0.226042 0.191566 0.197709 0.190394
H24   H     H_    0.240658 0.287111 0.119733 0.161184
H25   H     H_    0.236186 0.301285 0.309437 0.182688
H26   H     H_    0.252027 0.396861 0.231312 0.156596
O11   O     O_R   0.771490 0.080820 0.910070 -0.537627
O12   O     O_R   0.441590 0.092730 0.083780 -0.541878
O13   O     O_R   0.271350 0.913900 0.084390 -0.538626
C37   C     C_R   0.612697 0.112831 0.114255 0.698643
O14   O     O_R   0.441780 0.091820 0.910670 -0.534409
O15   O     O_R   0.271540 0.912980 0.910040 -0.520696
C38   C     C_R   0.610800 0.112973 0.881636 0.742370
O16   O     O_R   0.771300 0.081740 0.084420 -0.547212
O17   O     O_3   0.604960 0.938700 0.997240 -0.357300
V3    V     V_3+5 0.330090 0.008230 0.997220 1.419948
O18   O     O_R   0.941820 0.901930 0.910640 -0.529964
C39   C     C_R   0.108395 0.881722 0.880098 0.694949
O19   O     O_R   0.941630 0.902840 0.083750 -0.544514
C40   C     C_R   0.110551 0.880850 0.112441 0.684371
V4    V     V_3+5 0.830090 0.986410 0.997190 1.420753
O20   O     O_3   0.105080 0.055990 0.997200 -0.377179
I1    I     I_    0.729925 0.726471 0.635460 -0.449138
I2    I     I_    0.539130 0.868103 0.783171 -0.461706
N1    N     N_2   0.250084 0.423255 0.782081 -0.510174
H27   H     H_    0.331886 0.443121 0.833497 0.256424
C41   C     C_3   0.048061 0.436906 0.793215 -0.573677
H28   H     H_    0.026615 0.500164 0.830084 0.170784
H29   H     H_    0.982181 0.378787 0.827769 0.208984
H30   H     H_    0.975956 0.444122 0.731561 0.219191
N2    N     N_2   0.906144 0.104967 0.254011 -0.537340
H31   H     H_    0.970895 0.084491 0.200261 0.266965
C42   C     C_3   0.840058 0.029682 0.305150 -0.541268
H32   H     H_    0.950827 0.976117 0.308483 0.196002
H33   H     H_    0.706645 0.999258 0.277862 0.180084
H34   H     H_    0.812775 0.053929 0.369534 0.207789

loop_
_geom_bond_atom_site_label_1
_geom_bond_atom_site_label_2
_ccdc_geom_bond_type
C8    C12   S    
O19   C40   A    
C42   H32   S    
C17   C18   A    
C41   H28   S    
C5    I1    S    
O15   V3    S    
O12   V3    S    
C41   H30   S    
C16   C17   A    
C24   H18   S    
C14   C40   S    
C8    H7    S    
C15   H11   S    
O16   V4    S    
O17   V3    S    
C5    C9    S    
C14   C15   A    
C6    H3    S    
C28   N1    S    
O12   C37   A    
O5    C3    A    
O14   V3    S    
C27   H19   S    
V2    O10   S    
C26   C27   S    
C29   C36   S    
C35   H23   S    
C13   C18   A    
O15   C39   A    
O8    V2    S    
C29   C30   A    
C12   H8    S    
O13   C40   A    
C34   C35   S    
C36   H26   S    
O1    V2    S    
C25   C38   S    
O7    V1    S    
C20   H15   S    
C1    O6    A    
C28   H21   S    
C32   C33   A    
N1    C41   S    
O9    C4    A    
C33   C37   S    
V3    O20   S    
C36   H25   S    
C22   C23   A    
C24   C25   A    
O17   V4    S    
C11   H10   S    
C23   H17   S    
H5    C11   S    
C16   H12   S    
O14   C38   A    
O18   V4    S    
O11   C38   A    
C27   H20   S    
O13   V3    S    
C8    C9    S    
O18   C39   A    
C21   C28   S    
C33   C34   A    
C1    C22   S    
C23   C24   A    
C13   C14   A    
C31   C32   A    
C32   N2    S    
C35   H24   S    
O2    C1    A    
C19   C20   S    
C10   C11   S    
C37   O16   A    
N2    H31   S    
C25   C26   A    
C5    H1    S    
N1    H27   S    
C4    C9    S    
C13   C20   S    
C19   H13   S    
C2    C30   S    
C10   C39   S    
O3    C4    A    
N2    C42   S    
C12   I2    S    
O6    V2    S    
O19   V4    S    
H4    C7    S    
C8    H6    S    
C18   C19   S    
O2    V1    S    
C3    C17   S    
O4    C2    A    
C42   H33   S    
O1    C2    A    
C7    C9    S    
O5    V1    S    
O8    C3    A    
C41   H29   S    
C42   H34   S    
C21   C26   A    
C7    H9    S    
C29   C34   A    
C31   H22   S    
C6    H2    S    
O9    V2    S    
O7    V2    S    
O4    V1    S    
C10   C12   S    
O3    V1    S    
V1    O10   S    
C27   C28   S    
C5    C6    S    
C35   C36   S    
C19   H14   S    
C7    C11   S    
O11   V4    S    
C30   C31   A    
C15   C16   A    
C21   C22   A    
V4    O20   S    
C20   H16   S    
C6    C10   S    
