data_mof_unit_47089.cif
_audit_creation_date              2012-12-10T17:43:19-0500
_audit_creation_method            fapswitch 2.2
_symmetry_space_group_name_H-M    P1
_symmetry_Int_Tables_number       1
_space_group_crystal_system       triclinic
_cell_length_a                    15.061235
_cell_length_b                    13.705831
_cell_length_c                    10.635585
_cell_angle_alpha                 90.243996
_cell_angle_beta                  90.58404
_cell_angle_gamma                 90.092605
_cell_volume                      2195.33216574

loop_
_atom_site_label
_atom_site_type_symbol
_atom_type_description
_atom_site_fract_x
_atom_site_fract_y
_atom_site_fract_z
_atom_type_partial_charge
C1    C     C_R   0.328924 0.499843 0.494298 0.808902
C2    C     C_R   0.671076 0.500157 0.505703 0.808902
C3    C     C_R   0.953211 0.500212 0.503497 0.031892
C4    C     C_R   0.046789 0.499786 0.496508 0.031889
C5    C     C_R   0.903294 0.445782 0.415205 0.114792
C6    C     C_R   0.096706 0.554215 0.584800 0.114793
C7    C     C_R   0.962241 0.609558 0.684163 -0.217857
C8    C     C_R   0.037758 0.390440 0.315842 -0.217848
C9    C     C_R   0.054238 0.608827 0.677397 -0.211639
C10   C     C_R   0.945762 0.391170 0.322608 -0.211641
C11   C     C_R   0.445647 0.793520 0.580123 0.007837
C12   C     C_R   0.554353 0.206480 0.419876 0.007837
C13   C     C_R   0.554418 0.793197 0.419974 0.010483
C14   C     C_R   0.445582 0.206803 0.580026 0.010484
C15   C     C_R   0.555682 0.896237 0.418021 -0.006902
C16   C     C_R   0.444318 0.103763 0.581979 -0.006903
C17   C     C_R   0.444366 0.896573 0.582052 -0.005480
C18   C     C_R   0.555634 0.103427 0.417948 -0.005480
C19   C     C_R   0.500012 0.948190 0.500018 0.087245
C20   C     C_R   0.499988 0.051810 0.499982 0.087245
C21   C     C_R   0.611036 0.948357 0.336365 -0.202857
C22   C     C_R   0.388964 0.051643 0.663634 -0.202857
C23   C     C_R   0.388991 0.949033 0.663675 -0.203921
C24   C     C_R   0.611009 0.050967 0.336325 -0.203921
C25   C     C_R   0.499090 0.499768 0.259067 0.780964
C26   C     C_R   0.500911 0.500232 0.740933 0.780962
C27   C     C_3   0.432237 0.555209 0.040194 -0.161686
C28   C     C_3   0.567765 0.444791 0.959806 -0.161681
C29   C     C_3   0.510404 0.592218 0.960315 -0.138619
C30   C     C_3   0.489597 0.407782 0.039685 -0.138621
C31   C     C_3   0.422974 0.463739 0.955353 -0.178431
C32   C     C_3   0.577027 0.536261 0.044646 -0.178421
C33   C     C_3   0.501083 0.500691 0.877767 0.030265
C34   C     C_3   0.498918 0.499309 0.122233 0.030260
C35   C     C_R   0.811334 0.446943 0.419487 -0.288716
C36   C     C_R   0.188666 0.553055 0.580518 -0.288717
C37   C     C_R   0.767594 0.500519 0.511625 -0.095603
C38   C     C_R   0.232406 0.499481 0.488378 -0.095606
C39   C     C_R   0.815722 0.552409 0.605939 0.102217
C40   C     C_R   0.184278 0.447591 0.394064 0.102218
C41   C     C_R   0.909872 0.554589 0.598868 0.097169
C42   C     C_R   0.090127 0.445409 0.401136 0.097176
Cu1   Cu    Cu3+1 0.500000 0.597420 0.500000 0.929730
Cu2   Cu    Cu3+1 0.500000 0.402580 0.500000 0.929730
H1    H     H_    0.360424 0.434080 0.914349 0.120783
H2    H     H_    0.639578 0.565920 0.085648 0.120784
H3    H     H_    0.933569 0.654013 0.757194 0.156371
H4    H     H_    0.066431 0.345984 0.242812 0.156365
H5    H     H_    0.092382 0.651328 0.745148 0.140481
H6    H     H_    0.907618 0.348668 0.254858 0.140481
H7    H     H_    0.654357 0.909786 0.272507 0.135978
H8    H     H_    0.345643 0.090214 0.727493 0.135978
H9    H     H_    0.345684 0.910729 0.727553 0.134669
H10   H     H_    0.654316 0.089271 0.272447 0.134669
N1    N     N_R   0.500000 0.743810 0.500000 -0.184398
N2    N     N_R   0.500000 0.256190 0.500000 -0.184397
O1    O     O_R   0.370260 0.582280 0.500030 -0.576888
O2    O     O_R   0.629740 0.417720 0.499970 -0.576889
O3    O     O_R   0.629740 0.582280 0.499970 -0.595475
O4    O     O_R   0.370260 0.417720 0.500030 -0.595473
O5    O     O_R   0.499980 0.582260 0.316850 -0.582236
O6    O     O_R   0.500020 0.417740 0.683150 -0.582237
O7    O     O_R   0.500020 0.582260 0.683150 -0.598122
O8    O     O_R   0.499980 0.417740 0.316850 -0.598121
H11   H     H_    0.377247 0.601076 0.075780 0.129675
H12   H     H_    0.622754 0.398923 0.924220 0.129668
H13   H     H_    0.519147 0.667734 0.925105 0.136202
H14   H     H_    0.480854 0.332266 0.074895 0.136202
H15   H     H_    0.773022 0.406640 0.349465 0.143156
H16   H     H_    0.226978 0.593358 0.650540 0.143155
C43   C     C_3   0.767861 0.598665 0.717255 -0.405973
C44   C     C_3   0.781552 0.538614 0.836579 -0.862045
H17   H     H_    0.852791 0.532248 0.862371 0.257719
H18   H     H_    0.746737 0.574275 0.915746 0.239750
H19   H     H_    0.753927 0.464178 0.822541 0.249170
H20   H     H_    0.790196 0.675065 0.732026 0.192594
H21   H     H_    0.695352 0.604235 0.702531 0.222372
C45   C     C_3   0.232138 0.401340 0.282744 -0.405975
C46   C     C_3   0.218445 0.461396 0.163426 -0.862045
H22   H     H_    0.253283 0.425755 0.084264 0.239750
H23   H     H_    0.147207 0.467738 0.137614 0.257715
H24   H     H_    0.246047 0.535841 0.177481 0.249177
H25   H     H_    0.304647 0.395773 0.297467 0.222370
H26   H     H_    0.209806 0.324940 0.267968 0.192595
H27   H     H_    0.403209 0.752797 0.642596 0.126251
H28   H     H_    0.596790 0.247203 0.357404 0.126251
H29   H     H_    0.596896 0.752227 0.357550 0.130179
H30   H     H_    0.403104 0.247773 0.642450 0.130179

loop_
_geom_bond_atom_site_label_1
_geom_bond_atom_site_label_2
_ccdc_geom_bond_type
C14   N2    A    
C27   C29   S    
C19   C20   A    
C21   H7    S    
Cu1   Cu2   S    
C6    C9    A    
Cu1   O7    S    
C39   C41   A    
Cu2   O8    S    
C15   C19   A    
C17   C23   A    
C18   C24   A    
C35   C37   A    
C8    C42   A    
C29   C32   S    
C30   C31   S    
C24   H10   S    
C29   C33   S    
C29   H13   S    
C45   H25   S    
C11   C17   A    
Cu2   O2    S    
C31   C33   S    
C18   C20   A    
Cu1   O3    S    
C25   C34   S    
C11   H27   S    
C40   C42   A    
C44   H19   S    
C36   H16   S    
C23   H9    S    
C27   C34   S    
C30   C34   S    
C27   C31   S    
C28   C32   S    
C9    H5    S    
C44   H18   S    
C1    O4    A    
C46   H23   S    
C2    O3    A    
Cu2   O6    S    
C25   O8    A    
C32   C34   S    
C28   H12   S    
C26   O7    A    
C8    H4    S    
C27   H11   S    
C1    O1    A    
Cu2   N2    S    
C26   C33   S    
C15   C21   A    
C16   C20   A    
C13   H29   S    
C25   O5    A    
C12   N2    A    
C1    C38   S    
C4    C6    A    
C28   C33   S    
C13   C15   A    
C14   C16   A    
C3    C4    A    
C10   H6    S    
C43   H21   S    
C11   N1    A    
Cu1   O5    S    
C22   H8    S    
Cu1   N1    S    
C7    C9    A    
C3    C41   A    
C16   C22   A    
C45   C46   S    
C32   H2    S    
C44   H17   S    
C3    C5    A    
C46   H24   S    
C2    O2    A    
C12   H28   S    
C28   C30   S    
C26   O6    A    
C14   H30   S    
C43   C44   S    
C37   C39   A    
C38   C40   A    
C2    C37   S    
C43   H20   S    
C4    C42   A    
Cu2   O4    S    
C5    C35   A    
C36   C38   A    
C17   C19   A    
C6    C36   A    
C40   C45   S    
C7    C41   A    
Cu1   O1    S    
C46   H22   S    
C45   H26   S    
C5    C10   A    
C35   H15   S    
C8    C10   A    
C31   H1    S    
C21   C24   A    
C12   C18   A    
C39   C43   S    
C22   C23   A    
C30   H14   S    
C7    H3    S    
C13   N1    A    
