data_mof_unit_56284.cif
_audit_creation_date              2012-12-10T17:43:40-0500
_audit_creation_method            fapswitch 2.2
_symmetry_space_group_name_H-M    P1
_symmetry_Int_Tables_number       1
_space_group_crystal_system       triclinic
_cell_length_a                    14.99375
_cell_length_b                    10.614045
_cell_length_c                    9.964935
_cell_angle_alpha                 89.258762
_cell_angle_beta                  90.344409
_cell_angle_gamma                 92.865195
_cell_volume                      1583.72510715

loop_
_atom_site_label
_atom_site_type_symbol
_atom_type_description
_atom_site_fract_x
_atom_site_fract_y
_atom_site_fract_z
_atom_type_partial_charge
Br1   Br    Br    0.644462 0.685799 0.155437 -0.465277
Br2   Br    Br    0.341039 0.252795 0.726635 -0.519556
C1    C     C_R   0.503185 0.260997 0.500765 0.917286
C2    C     C_R   0.184575 0.481241 0.380283 -0.264170
C3    C     C_R   0.231319 0.509129 0.498494 -0.053975
C4    C     C_R   0.327031 0.503347 0.499641 0.908340
C5    C     C_R   0.186546 0.541658 0.614851 -0.234779
C6    C     C_R   0.648230 0.139016 0.638533 -0.105257
C7    C     C_R   0.716879 0.076941 0.702125 -0.089682
C8    C     C_R   0.718098 0.946059 0.698357 -0.111098
C9    C     C_R   0.650562 0.876806 0.631209 -0.159186
C10   C     C_R   0.579645 0.938235 0.567821 0.098808
C11   C     C_R   0.578643 0.070149 0.570916 0.107181
C12   C     C_R   0.908113 0.533689 0.613101 0.126633
C13   C     C_R   0.509056 0.128820 0.501976 -0.040785
C14   C     C_R   0.444070 0.061206 0.428579 -0.155915
C15   C     C_R   0.444655 0.932702 0.426616 -0.176731
C16   C     C_R   0.503312 0.739311 0.499268 0.862613
C17   C     C_R   0.510393 0.872095 0.497721 -0.075950
C18   C     C_R   0.368999 0.360183 0.146845 -0.108019
C19   C     C_R   0.288607 0.323249 0.088205 -0.277059
C20   C     C_R   0.278000 0.337045 0.951915 -0.202056
C21   C     C_R   0.352159 0.369176 0.871758 0.321049
C22   C     C_R   0.431416 0.431640 0.929733 0.082185
C23   C     C_R   0.953385 0.428468 0.265285 -0.129422
C24   C     C_R   0.434728 0.430241 0.074411 0.087477
C25   C     C_R   0.560669 0.571033 0.069559 0.368477
C26   C     C_R   0.561969 0.567918 0.927360 -0.136677
C27   C     C_R   0.672816 0.493519 0.500159 0.919687
C28   C     C_R   0.816014 0.531341 0.611225 -0.314978
C29   C     C_R   0.768582 0.483056 0.500466 -0.181505
C30   C     C_R   0.813332 0.430420 0.391209 0.328443
C31   C     C_R   0.906219 0.451766 0.383429 -0.009975
C32   C     C_R   0.953510 0.498056 0.497406 0.015647
C33   C     C_R   0.045762 0.441343 0.263266 -0.225744
C34   C     C_R   0.092456 0.476674 0.379348 0.123089
C35   C     C_R   0.046623 0.506248 0.496804 0.093167
C36   C     C_R   0.094040 0.542165 0.614222 0.113641
C37   C     C_R   0.048213 0.576004 0.729134 -0.212915
C38   C     C_R   0.955427 0.573758 0.727831 -0.190362
H1    H     H_    0.781159 0.567580 0.696547 0.176872
H2    H     H_    0.612148 0.624344 0.872860 0.159221
H3    H     H_    0.919820 0.402648 0.172756 0.179178
H4    H     H_    0.080729 0.421362 0.171618 0.148532
H5    H     H_    0.219664 0.459622 0.289770 0.167675
H6    H     H_    0.223470 0.566300 0.705511 0.163119
H7    H     H_    0.084047 0.604471 0.819437 0.151553
H8    H     H_    0.920639 0.601379 0.816989 0.150289
H9    H     H_    0.391666 0.108154 0.375088 0.146637
H10   H     H_    0.771415 0.450561 0.109990 0.335679
H11   H     H_    0.651469 0.240821 0.641011 0.153104
H12   H     H_    0.769844 0.130711 0.753125 0.155851
H13   H     H_    0.772005 0.898077 0.746399 0.148266
H14   H     H_    0.655512 0.775613 0.627610 0.142721
H15   H     H_    0.392408 0.880022 0.372422 0.155739
H16   H     H_    0.376813 0.334896 0.249723 0.202210
H17   H     H_    0.235763 0.277710 0.147706 0.167766
H18   H     H_    0.216089 0.298770 0.908330 0.188821
N1    N     N_R   0.499150 0.498800 0.142780 -0.129614
N2    N     N_R   0.499120 0.498720 0.857170 -0.130250
O1    O     O_R   0.500000 0.316780 0.614690 -0.587919
O2    O     O_2   0.679529 0.254755 0.348382 -0.283948
O3    O     O_3   0.719629 0.397921 0.143223 -0.507627
O4    O     O_R   0.499990 0.316750 0.385360 -0.605228
O5    O     O_R   0.367850 0.499980 0.614680 -0.599037
O6    O     O_R   0.367840 0.499960 0.385350 -0.663596
O7    O     O_R   0.500010 0.683250 0.614640 -0.628920
O8    O     O_R   0.500000 0.683220 0.385310 -0.583674
O9    O     O_R   0.632160 0.500040 0.614650 -0.658636
O10   O     O_R   0.632150 0.500020 0.385320 -0.515088
O11   O     O_2   0.818956 0.222767 0.235150 -0.288327
S1    S     S_3+6 0.757242 0.321447 0.279318 0.044305
Zn1   Zn    Zn3+2 0.500010 0.500020 0.653130 0.976028
Zn2   Zn    Zn3+2 0.499990 0.499980 0.346870 1.035649

loop_
_geom_bond_atom_site_label_1
_geom_bond_atom_site_label_2
_ccdc_geom_bond_type
C2    C34   A    
C6    C11   A    
C32   C35   A    
C33   C34   A    
C18   H16   S    
C23   H3    S    
C30   S1    S    
C1    O4    A    
C10   C11   A    
C34   C35   A    
C22   C24   A    
C36   C37   A    
O8    Zn2   S    
C13   C14   A    
O6    Zn2   S    
N2    Zn1   S    
O5    Zn1   S    
C16   C17   S    
C8    H13   S    
C4    O5    A    
C14   C15   A    
O10   Zn2   S    
C21   C22   A    
C28   H1    S    
O9    Zn1   S    
O7    Zn1   S    
C7    C8    A    
C15   H15   S    
C1    O1    A    
C19   C20   A    
H10   O3    S    
C7    H12   S    
C12   C28   A    
C27   O9    A    
C2    H5    S    
C26   N2    A    
C5    H6    S    
C14   H9    S    
C37   C38   A    
C3    C5    A    
C6    C7    A    
O1    Zn1   S    
C16   O7    A    
C19   H17   S    
C35   C36   A    
C29   C30   A    
C6    H11   S    
C28   C29   A    
C22   N2    A    
C31   C32   A    
O2    S1    D    
O3    S1    S    
C33   H4    S    
N1    Zn2   S    
C20   H18   S    
C9    H14   S    
C23   C33   A    
C11   C13   A    
Br2   C21   S    
C1    C13   S    
C37   H7    S    
C27   O10   A    
C24   N1    A    
C38   H8    S    
C2    C3    A    
C12   C32   A    
C9    C10   A    
C30   C31   A    
O11   S1    D    
C27   C29   S    
C25   N1    A    
C3    C4    S    
C18   C24   A    
C10   C17   A    
C26   H2    S    
C15   C17   A    
C5    C36   A    
C8    C9    A    
C12   C38   A    
C4    O6    A    
C18   C19   A    
C25   C26   A    
Br1   C25   S    
O4    Zn2   S    
C20   C21   A    
C16   O8    A    
C23   C31   A    
