data_mof_unit_25413.cif
_audit_creation_date              2012-12-10T19:04:15-0500
_audit_creation_method            fapswitch 2.2
_symmetry_space_group_name_H-M    P1
_symmetry_Int_Tables_number       1
_space_group_crystal_system       triclinic
_cell_length_a                    10.657024
_cell_length_b                    10.803399
_cell_length_c                    9.606284
_cell_angle_alpha                 90.972109
_cell_angle_beta                  91.425587
_cell_angle_gamma                 92.551549
_cell_volume                      1104.37210171

loop_
_atom_site_label
_atom_site_type_symbol
_atom_type_description
_atom_site_fract_x
_atom_site_fract_y
_atom_site_fract_z
_atom_type_partial_charge
C1    C     C_R   0.489338 0.262311 0.498566 0.813846
C2    C     C_R   0.456513 0.936122 0.623527 0.179589
C3    C     C_3   0.339050 0.932884 0.706805 -0.405825
C4    C     C_R   0.259853 0.490823 0.497877 0.792889
C5    C     C_3   0.346936 0.071769 0.711180 -0.513204
C6    C     C_R   0.518092 0.606766 0.076433 0.153036
C7    C     C_R   0.477012 0.394249 0.071084 -0.092864
C8    C     C_R   0.477928 0.393857 0.923247 -0.091874
C9    C     C_R   0.509952 0.609990 0.930600 0.223824
C10   C     C_3   0.609906 0.715528 0.931002 0.806026
C11   C     C_3   0.629448 0.693151 0.087300 -0.638802
C12   C     C_3   0.963430 0.587188 0.426405 -0.325279
C13   C     C_R   0.490734 0.736929 0.500506 0.830855
C14   C     C_R   0.740671 0.498004 0.501291 0.847444
C15   C     C_3   0.038096 0.387372 0.568677 -0.297649
C16   C     C_3   0.948732 0.386240 0.439994 0.469647
C17   C     C_3   0.877834 0.492752 0.502585 -0.064240
C18   C     C_3   0.966503 0.496148 0.632456 -0.187639
C19   C     C_3   0.052478 0.588017 0.554596 0.451777
C20   C     C_3   0.824365 0.741254 0.870019 0.007500
C21   C     C_3   0.872872 0.806364 0.739855 -0.295607
C22   C     C_3   0.984243 0.896349 0.774084 -0.864582
C23   C     C_3   0.035164 0.478592 0.362721 -0.248917
C24   C     C_3   0.623425 0.940686 0.912987 0.036803
C25   C     C_3   0.659422 0.986594 0.061191 -0.440982
C26   C     C_3   0.712034 0.120462 0.062200 -0.808538
C27   C     C_3   0.286717 0.125611 0.238768 0.051515
C28   C     C_3   0.223494 0.015670 0.156976 -0.350725
C29   C     C_3   0.082118 0.029846 0.139982 -0.941507
C30   C     C_3   0.123101 0.482481 0.493098 -0.086345
C31   C     C_R   0.459794 0.065839 0.622274 0.032957
C32   C     C_R   0.469947 0.127819 0.496246 -0.186150
C33   C     C_R   0.450588 0.058699 0.370976 0.458919
C34   C     C_R   0.458554 0.930342 0.373145 -0.327398
C35   C     C_R   0.470940 0.869358 0.499776 -0.180389
Cu1   Cu    Cu3+1 0.499990 0.499980 0.640670 0.999115
Cu2   Cu    Cu3+1 0.500010 0.500020 0.359330 0.961421
H1    H     H_    0.349046 0.891651 0.811007 0.239920
H2    H     H_    0.932150 0.670683 0.371905 0.146828
H3    H     H_    0.064563 0.468170 0.253242 0.156093
H4    H     H_    0.450703 0.878200 0.276070 0.170544
H5    H     H_    0.255741 0.896244 0.645774 0.205848
H6    H     H_    0.958295 0.229202 0.346578 0.306845
H7    H     H_    0.889635 0.668161 0.898988 0.150692
H8    H     H_    0.826175 0.806508 0.960274 0.127998
H9    H     H_    0.898500 0.735922 0.663620 0.241381
H10   H     H_    0.798361 0.856333 0.684838 0.198932
H11   H     H_    0.953953 0.973954 0.840711 0.237559
H12   H     H_    0.265660 0.113825 0.657942 0.189617
H13   H     H_    0.021257 0.935422 0.676326 0.255204
H14   H     H_    0.060328 0.848159 0.829137 0.282537
H15   H     H_    0.564708 0.012858 0.869391 0.185268
H16   H     H_    0.704818 0.943068 0.846540 0.159638
H17   H     H_    0.574668 0.982062 0.124465 0.266656
H18   H     H_    0.732551 0.930129 0.109082 0.205030
H19   H     H_    0.799220 0.127563 0.001242 0.239720
H20   H     H_    0.734593 0.151601 0.171053 0.293670
H21   H     H_    0.642058 0.182512 0.017091 0.249822
H22   H     H_    0.148895 0.738988 0.532545 0.299961
H23   H     H_    0.369969 0.110558 0.816941 0.194014
H24   H     H_    0.267680 0.211660 0.181867 0.154565
H25   H     H_    0.242600 0.136330 0.342436 0.111587
H26   H     H_    0.265320 0.008733 0.052404 0.227167
H27   H     H_    0.239021 0.928292 0.212657 0.215023
H28   H     H_    0.038596 0.036025 0.243558 0.254702
H29   H     H_    0.038969 0.947673 0.083234 0.257206
H30   H     H_    0.062473 0.114213 0.080119 0.258094
H31   H     H_    0.461471 0.307963 0.122760 0.193823
H32   H     H_    0.462292 0.306991 0.867572 0.145456
H33   H     H_    0.716325 0.644319 0.113932 0.187191
H34   H     H_    0.609220 0.769966 0.158900 0.194575
H35   H     H_    0.070367 0.304291 0.623205 0.141653
H36   H     H_    0.938022 0.504713 0.742267 0.157409
N1    N     N_R   0.500800 0.500930 0.147930 -0.170259
N2    N     N_R   0.500800 0.500890 0.852020 -0.187233
O1    O     O_R   0.500000 0.319640 0.618810 -0.598114
O2    O     O_3   0.705173 0.684182 0.837407 -0.594618
O3    O     O_3   0.548938 0.827683 0.902205 -0.647722
O4    O     O_3   0.114997 0.693350 0.613027 -0.754078
O5    O     O_3   0.418942 0.114358 0.247356 -0.627408
O6    O     O_R   0.500010 0.319680 0.381230 -0.550791
O7    O     O_R   0.316850 0.499950 0.618770 -0.557951
O8    O     O_R   0.316860 0.499990 0.381190 -0.602256
O9    O     O_R   0.499990 0.680320 0.618770 -0.533608
O10   O     O_R   0.500000 0.680360 0.381190 -0.595330
O11   O     O_R   0.683140 0.500010 0.618810 -0.548196
O12   O     O_R   0.683150 0.500050 0.381230 -0.557369
O13   O     O_3   0.889353 0.279728 0.379867 -0.745945

loop_
_geom_bond_atom_site_label_1
_geom_bond_atom_site_label_2
_ccdc_geom_bond_type
C2    C35   A    
C24   H15   S    
C15   C18   S    
C22   H11   S    
Cu2   N1    S    
C3    H5    S    
C5    H12   S    
C6    C9    A    
C10   O3    S    
C11   H33   S    
C7    C8    A    
C15   H35   S    
C12   C23   S    
C8    H32   S    
C20   O2    S    
H6    O13   S    
Cu2   O10   S    
C28   C29   S    
C27   H25   S    
C14   O12   A    
C13   C35   S    
C11   H34   S    
C1    O6    A    
C23   H3    S    
C34   C35   A    
C27   H24   S    
C7    H31   S    
C29   H30   S    
C3    H1    S    
Cu1   O7    S    
C16   C17   S    
C12   C17   S    
Cu1   O1    S    
C9    C10   S    
C20   H8    S    
C22   H13   S    
C21   C22   S    
C14   C17   S    
Cu2   O6    S    
C34   H4    S    
C20   H7    S    
C10   O2    S    
C6    N1    A    
C7    N1    A    
C23   C30   S    
C25   H17   S    
C14   O11   A    
C27   O5    S    
H22   O4    S    
C6    C11   S    
C18   C19   S    
Cu1   O11   S    
C24   H16   S    
C8    N2    A    
C2    C31   A    
Cu1   N2    S    
C31   C32   A    
C13   O9    A    
C17   C18   S    
C24   C25   S    
C19   O4    S    
C26   H21   S    
C29   H28   S    
C28   H27   S    
C24   O3    S    
C18   H36   S    
C15   C30   S    
C21   H9    S    
Cu1   Cu2   S    
C5    H23   S    
C1    O1    A    
Cu2   O12   S    
C25   H18   S    
C3    C5    S    
C26   H19   S    
C33   O5    S    
C16   C23   S    
C32   C33   A    
C12   H2    S    
C2    C3    S    
C25   C26   S    
C4    O8    A    
Cu1   O9    S    
C12   C19   S    
C33   C34   A    
C1    C32   S    
C26   H20   S    
C10   C11   S    
C29   H29   S    
C28   H26   S    
C4    O7    A    
C20   C21   S    
C13   O10   A    
C27   C28   S    
C16   O13   S    
Cu2   O8    S    
C9    N2    A    
C21   H10   S    
C19   C30   S    
C4    C30   S    
C15   C16   S    
C22   H14   S    
C5    C31   S    
