data_mof_unit_28050.cif
_audit_creation_date              2012-10-26T20:32:01-0400
_audit_creation_method            fapswitch 2.2
_symmetry_space_group_name_H-M    P1
_symmetry_Int_Tables_number       1
_space_group_crystal_system       triclinic
_cell_length_a                    10.624111
_cell_length_b                    10.798463
_cell_length_c                    9.5472
_cell_angle_alpha                 90.130842
_cell_angle_beta                  89.828888
_cell_angle_gamma                 90.0586
_cell_volume                      1095.28533109

loop_
_atom_site_label
_atom_site_type_symbol
_atom_type_description
_atom_site_fract_x
_atom_site_fract_y
_atom_site_fract_z
_atom_type_partial_charge
C1    C     C_R   0.506895 0.262497 0.499673 0.571287
C2    C     C_R   0.477017 0.937475 0.619614 0.011396
C3    C     C_3   0.355296 0.933917 0.698154 -0.262900
C4    C     C_R   0.259261 0.499804 0.500265 0.540700
C5    C     C_3   0.358415 0.074591 0.696815 -0.264939
C6    C     C_R   0.594749 0.556736 0.073390 0.183440
C7    C     C_R   0.413209 0.434264 0.074522 0.037388
C8    C     C_R   0.413329 0.434071 0.925641 0.004407
C9    C     C_R   0.594939 0.556439 0.926051 0.172408
C10   C     C_3   0.630934 0.689736 0.919701 -0.272208
C11   C     C_3   0.629505 0.690493 0.078609 -0.281527
C12   C     C_3   0.959737 0.501380 0.366671 -0.092467
C13   C     C_R   0.502144 0.737560 0.500351 0.542342
C14   C     C_R   0.740709 0.500256 0.499736 0.569557
C15   C     C_3   0.040114 0.498556 0.633285 -0.121267
C16   C     C_3   0.957469 0.397589 0.564473 -0.103960
C17   C     C_3   0.877578 0.500138 0.499019 0.052880
C18   C     C_3   0.957922 0.601105 0.567682 -0.134530
C19   C     C_3   0.042382 0.602354 0.435471 -0.134340
C20   C     C_3   0.041936 0.398833 0.432274 -0.106173
C21   C     C_3   0.122316 0.499813 0.500944 0.032035
C22   C     C_R   0.479754 0.064485 0.618150 -0.000304
C23   C     C_R   0.522746 0.129177 0.500953 -0.005863
C24   C     C_R   0.584285 0.061941 0.392289 0.190118
C25   C     C_R   0.577864 0.932239 0.393720 -0.154869
C26   C     C_R   0.515515 0.870398 0.502702 -0.037571
Cu1   Cu    Cu3+1 0.499990 0.499980 0.640670 0.949094
Cu2   Cu    Cu3+1 0.500010 0.500020 0.359330 1.006517
H1    H     H_    0.919447 0.313851 0.617022 0.135714
H2    H     H_    0.552958 0.749128 0.122295 0.146924
H3    H     H_    0.075626 0.497351 0.742532 0.122301
H4    H     H_    0.920259 0.683753 0.622996 0.114660
H5    H     H_    0.080306 0.686085 0.382827 0.118618
H6    H     H_    0.924091 0.502552 0.257469 0.140358
H7    H     H_    0.079439 0.316105 0.376997 0.126906
H8    H     H_    0.619798 0.879655 0.309185 0.154744
H9    H     H_    0.277127 0.893863 0.635345 0.136020
H10   H     H_    0.519422 0.115834 0.103451 0.320801
H11   H     H_    0.366293 0.894202 0.804728 0.137270
H12   H     H_    0.281965 0.116577 0.633345 0.128988
H13   H     H_    0.371485 0.115889 0.802572 0.147060
H14   H     H_    0.341756 0.382618 0.130392 0.116581
H15   H     H_    0.341891 0.382397 0.869964 0.107791
H16   H     H_    0.726498 0.703102 0.874421 0.134248
H17   H     H_    0.556386 0.749023 0.873678 0.156518
H18   H     H_    0.723980 0.705615 0.125421 0.138944
N1    N     N_R   0.500800 0.500930 0.147930 -0.216646
N2    N     N_R   0.500800 0.500890 0.852020 -0.234936
O1    O     O_R   0.500000 0.319640 0.618810 -0.505053
O2    O     O_2   0.755823 0.041451 0.184593 -0.303932
O3    O     O_3   0.568835 0.188693 0.134449 -0.498657
O4    O     O_R   0.500010 0.319680 0.381230 -0.431928
O5    O     O_R   0.316850 0.499950 0.618770 -0.517361
O6    O     O_R   0.316860 0.499990 0.381190 -0.520160
O7    O     O_R   0.499990 0.680320 0.618770 -0.504908
O8    O     O_R   0.500000 0.680360 0.381190 -0.522773
O9    O     O_R   0.683140 0.500010 0.618810 -0.505500
O10   O     O_R   0.683150 0.500050 0.381230 -0.473048
O11   O     O_2   0.747320 0.238124 0.311218 -0.253625
S1    S     S_3+6 0.669588 0.133271 0.254321 0.013428

loop_
_geom_bond_atom_site_label_1
_geom_bond_atom_site_label_2
_ccdc_geom_bond_type
Cu1   N2    S    
C12   C17   S    
C15   C18   S    
C23   C24   A    
Cu1   O5    S    
Cu2   N1    S    
C2    C22   A    
O3    S1    S    
Cu2   O10   S    
C4    O5    A    
C9    C10   S    
C8    H15   S    
C16   C20   S    
C24   S1    S    
C13   O8    A    
O2    S1    D    
C12   C20   S    
C10   H17   S    
C8    N2    A    
C2    C3    S    
Cu2   O8    S    
C3    H11   S    
C7    C8    A    
C2    C26   A    
C25   C26   A    
C24   C25   A    
C12   H6    S    
C15   H3    S    
C4    C21   S    
Cu2   O4    S    
C14   C17   S    
C15   C21   S    
C6    C9    A    
C12   C19   S    
C19   C21   S    
C17   C18   S    
C1    C23   S    
C10   C11   S    
C19   H5    S    
C14   O10   A    
C1    O4    A    
Cu1   O7    S    
C13   C26   S    
C7    H14   S    
C18   H4    S    
C6    N1    A    
C25   H8    S    
C10   H16   S    
C15   C16   S    
C3    C5    S    
O11   S1    D    
C20   C21   S    
C3    H9    S    
C9    N2    A    
C18   C19   S    
Cu1   O9    S    
C5    H12   S    
C6    C11   S    
C14   O9    A    
Cu2   O6    S    
C22   C23   A    
C11   H18   S    
C5    H13   S    
H10   O3    S    
C4    O6    A    
C16   H1    S    
C20   H7    S    
C1    O1    A    
C5    C22   S    
Cu1   O1    S    
C11   H2    S    
C13   O7    A    
C16   C17   S    
Cu1   Cu2   S    
C7    N1    A    
