data_mof_unit_65669.cif
_audit_creation_date              2012-10-26T17:20:35-0400
_audit_creation_method            fapswitch 2.2
_symmetry_space_group_name_H-M    P1
_symmetry_Int_Tables_number       1
_space_group_crystal_system       triclinic
_cell_length_a                    23.702607
_cell_length_b                    23.702606
_cell_length_c                    38.768108
_cell_angle_alpha                 90.0
_cell_angle_beta                  89.999967
_cell_angle_gamma                 90.000026
_cell_volume                      21780.448572

loop_
_atom_site_label
_atom_site_type_symbol
_atom_type_description
_atom_site_fract_x
_atom_site_fract_y
_atom_site_fract_z
_atom_type_partial_charge
C1    C     C_R   0.500000 0.108215 0.500000 0.555881
C2    C     C_R   1.000000 0.500000 0.395549 -0.035754
C3    C     C_R   0.501579 0.051495 0.841273 0.101404
C4    C     C_R   0.948505 0.498430 0.158727 0.101404
C5    C     C_R   0.498425 0.051495 0.158727 0.101404
C6    C     C_R   0.051495 0.501570 0.158727 0.101404
C7    C     C_R   0.501575 0.948505 0.158727 0.101404
C8    C     C_R   0.500000 1.000000 0.322924 0.084557
C9    C     C_R   1.000000 0.500000 0.322924 0.084557
C10   C     C_R   0.500000 0.000000 0.677076 0.084558
C11   C     C_R   0.000001 0.500000 0.677076 0.084557
C12   C     C_R   0.000001 0.500000 0.822924 0.084558
C13   C     C_R   0.500000 0.000000 0.604451 -0.035754
C14   C     C_R   0.500000 0.000000 0.822924 0.084558
C15   C     C_R   1.000000 0.500000 0.177076 0.084558
C16   C     C_R   0.500000 1.000000 0.177076 0.084558
C17   C     C_3   0.367634 0.055450 0.323175 -0.284113
C18   C     C_3   0.944540 0.367639 0.323175 -0.284113
C19   C     C_3   0.632366 0.944550 0.323175 -0.284114
C20   C     C_3   0.055460 0.632361 0.323175 -0.284112
C21   C     C_3   0.367625 0.944572 0.676825 -0.284114
C22   C     C_3   0.944615 0.632394 0.676825 -0.284113
C23   C     C_3   0.632374 0.055431 0.676825 -0.284115
C24   C     C_R   0.000000 0.500000 0.604451 -0.035755
C25   C     C_3   0.055393 0.367611 0.676825 -0.284115
C26   C     C_3   0.867663 0.555515 0.823175 -0.284114
C27   C     C_3   0.444545 0.867637 0.823175 -0.284114
C28   C     C_3   0.132338 0.444486 0.823176 -0.284114
C29   C     C_3   0.555455 0.132363 0.823175 -0.284114
C30   C     C_3   0.867627 0.444568 0.176825 -0.284115
C31   C     C_3   0.444555 0.132367 0.176825 -0.284114
C32   C     C_3   0.132373 0.555432 0.176825 -0.284115
C33   C     C_3   0.555444 0.867632 0.176825 -0.284113
C34   C     C_R   0.000000 0.500000 0.895549 -0.035754
C35   C     C_R   0.500000 0.000000 0.895549 -0.035754
C36   C     C_R   1.000000 0.500000 0.104451 -0.035755
C37   C     C_R   0.500000 1.000000 0.104451 -0.035754
C38   C     C_R   0.500000 1.000000 0.215072 0.388159
C39   C     C_R   1.000000 0.500000 0.215072 0.388160
C40   C     C_R   0.500000 0.000000 0.784928 0.388161
C41   C     C_R   0.891785 0.500000 0.500000 0.555882
C42   C     C_R   0.000001 0.500000 0.784928 0.388157
C43   C     C_R   0.000001 0.500000 0.715072 0.388158
C44   C     C_R   0.500000 0.000000 0.715072 0.388160
C45   C     C_R   1.000000 0.500000 0.284928 0.388159
C46   C     C_R   0.500000 1.000000 0.284928 0.388158
C47   C     C_R   0.393022 0.500000 0.500000 0.542571
C48   C     C_R   0.500000 0.393022 0.500000 0.542571
C49   C     C_R   0.606978 0.500000 0.500000 0.542570
C50   C     C_R   0.500000 0.606978 0.500000 0.542570
C51   C     C_R   0.893022 0.000000 0.000000 0.542571
C52   C     C_R   0.500000 0.891785 0.500000 0.555881
C53   C     C_R   0.000000 0.893022 0.000000 0.542571
C54   C     C_R   0.106978 0.000000 0.000000 0.542570
C55   C     C_R   1.000000 0.106978 0.000000 0.542570
C56   C     C_R   0.500000 1.000000 0.433478 0.556937
C57   C     C_R   0.000000 0.500000 0.433478 0.556936
C58   C     C_R   0.500000 0.000000 0.566522 0.556935
C59   C     C_R   0.000000 0.500000 0.566522 0.556936
C60   C     C_R   0.000000 0.500000 0.933478 0.556936
C61   C     C_R   0.500000 0.000000 0.933478 0.556936
C62   C     C_R   1.000000 0.500000 0.066522 0.556935
C63   C     C_R   0.108215 0.500000 0.500000 0.555881
C64   C     C_R   0.500000 0.000000 0.066522 0.556936
C65   C     C_1   0.500000 0.169342 0.500000 -0.020107
C66   C     C_1   0.830658 0.500000 0.500000 -0.020106
C67   C     C_1   0.500000 0.830658 0.500000 -0.020107
C68   C     C_1   0.169342 0.500000 0.500000 -0.020107
C69   C     C_1   0.000000 0.669342 0.000000 -0.020107
C70   C     C_1   0.330658 1.000000 1.000000 -0.020107
C71   C     C_1   1.000000 0.330658 0.000000 -0.020107
C72   C     C_1   0.669342 0.000000 0.000000 -0.020107
C73   C     C_1   0.500000 0.220552 0.500000 -0.035365
C74   C     C_R   0.000000 0.608214 0.000000 0.555881
C75   C     C_1   0.779448 0.500000 0.500000 -0.035365
C76   C     C_1   0.500000 0.779448 0.500000 -0.035365
C77   C     C_1   0.220552 0.500000 0.500000 -0.035365
C78   C     C_1   0.000000 0.720552 0.000000 -0.035366
C79   C     C_1   0.279448 1.000000 1.000000 -0.035365
C80   C     C_1   1.000000 0.279448 0.000000 -0.035366
C81   C     C_1   0.720552 0.000000 0.000000 -0.035365
C82   C     C_1   0.500000 0.280682 0.500000 -0.033091
C83   C     C_1   0.719318 0.500000 0.500000 -0.033090
C84   C     C_1   0.500000 0.719318 0.500000 -0.033091
C85   C     C_R   0.391785 0.000000 0.000000 0.555881
C86   C     C_1   0.280682 0.500000 0.500000 -0.033091
C87   C     C_1   0.000000 0.780682 0.000000 -0.033091
C88   C     C_1   0.219318 1.000000 1.000000 -0.033091
C89   C     C_1   1.000000 0.219318 0.000000 -0.033091
C90   C     C_1   0.780682 0.000000 0.000000 -0.033091
C91   C     C_1   0.500000 0.331893 0.500000 -0.016106
C92   C     C_1   0.668107 0.500000 0.500000 -0.016106
C93   C     C_1   0.500000 0.668107 0.500000 -0.016106
C94   C     C_1   0.331893 0.500000 0.500000 -0.016106
C95   C     C_1   0.000000 0.831893 0.000000 -0.016106
C96   C     C_R   1.000000 0.391785 0.000000 0.555881
C97   C     C_1   0.168107 1.000000 1.000000 -0.016106
C98   C     C_1   1.000000 0.168107 0.000000 -0.016106
C99   C     C_1   0.831893 0.000000 0.000000 -0.016106
C100  C     C_R   0.448981 0.000654 0.377345 -0.136223
C101  C     C_R   0.999342 0.448981 0.377345 -0.136223
C102  C     C_R   0.551019 0.999346 0.377345 -0.136223
C103  C     C_R   0.000657 0.551019 0.377345 -0.136223
C104  C     C_R   0.448981 0.999354 0.622655 -0.136223
C105  C     C_R   0.999369 0.551019 0.622655 -0.136223
C106  C     C_R   0.551019 0.000647 0.622655 -0.136223
C107  C     C_R   0.608214 0.000000 0.000000 0.555881
C108  C     C_R   0.000632 0.448981 0.622655 -0.136223
C109  C     C_R   0.948981 0.500678 0.877345 -0.136223
C110  C     C_R   0.499344 0.948981 0.877345 -0.136223
C111  C     C_R   0.051019 0.499323 0.877345 -0.136223
C112  C     C_R   0.500656 0.051019 0.877345 -0.136223
C113  C     C_R   0.948981 0.499353 0.122655 -0.136223
C114  C     C_R   0.499348 0.051019 0.122655 -0.136223
C115  C     C_R   0.051019 0.500647 0.122655 -0.136223
C116  C     C_R   0.500652 0.948981 0.122655 -0.136223
C117  C     C_R   0.448505 0.001576 0.341273 0.101405
C118  C     C_R   0.500000 1.000000 0.395549 -0.035754
C119  C     C_R   0.998420 0.448505 0.341273 0.101404
C120  C     C_R   0.551495 0.998423 0.341273 0.101404
C121  C     C_R   0.001580 0.551495 0.341273 0.101404
C122  C     C_R   0.448505 0.998432 0.658727 0.101404
C123  C     C_R   0.998448 0.551496 0.658727 0.101404
C124  C     C_R   0.551495 0.001569 0.658727 0.101404
C125  C     C_R   0.001555 0.448505 0.658727 0.101404
C126  C     C_R   0.948507 0.501601 0.841273 0.101403
C127  C     C_R   0.498421 0.948505 0.841273 0.101404
C128  C     C_R   0.051494 0.498399 0.841273 0.101404
Cu1   Cu    Cu3+1 0.555710 0.000000 0.500000 0.933819
Cu2   Cu    Cu3+1 0.500000 0.500000 0.534110 0.961520
Cu3   Cu    Cu3+1 0.000000 0.000000 0.965890 0.961516
Cu4   Cu    Cu3+1 0.000000 0.000000 0.034110 0.961519
Cu5   Cu    Cu3+1 0.000000 0.555710 0.500000 0.933819
Cu6   Cu    Cu3+1 0.444290 0.000000 0.500000 0.933819
Cu7   Cu    Cu3+1 0.000000 0.444290 0.500000 0.933819
Cu8   Cu    Cu3+1 0.055710 0.500000 0.000000 0.933820
Cu9   Cu    Cu3+1 0.500000 0.055710 0.000000 0.933820
Cu10  Cu    Cu3+1 0.944290 0.500000 0.000000 0.933820
Cu11  Cu    Cu3+1 0.500000 0.944290 0.000000 0.933820
Cu12  Cu    Cu3+1 0.500000 0.500000 0.465890 0.961518
H1    H     H_    0.409152 0.000829 0.391058 0.137198
H2    H     H_    0.499167 0.909152 0.891058 0.137198
H3    H     H_    0.090848 0.499128 0.891058 0.137199
H4    H     H_    0.500833 0.090848 0.891058 0.137198
H5    H     H_    0.909152 0.499183 0.108942 0.137198
H6    H     H_    0.499175 0.090848 0.108942 0.137198
H7    H     H_    0.090848 0.500818 0.108942 0.137198
H8    H     H_    0.500826 0.909152 0.108941 0.137198
H9    H     H_    0.369500 0.969527 0.331776 0.249445
H10   H     H_    0.329659 0.052818 0.306488 0.150241
H11   H     H_    0.395905 0.088667 0.312680 0.179241
H12   H     H_    0.999164 0.409152 0.391058 0.137198
H13   H     H_    0.354223 0.067395 0.349660 0.125980
H14   H     H_    0.030463 0.369498 0.331776 0.249445
H15   H     H_    0.947168 0.329664 0.306488 0.150242
H16   H     H_    0.911324 0.395913 0.312680 0.179241
H17   H     H_    0.932593 0.354229 0.349660 0.125980
H18   H     H_    0.630500 0.030472 0.331776 0.249446
H19   H     H_    0.670340 0.947181 0.306488 0.150242
H20   H     H_    0.604094 0.911332 0.312680 0.179241
H21   H     H_    0.645776 0.932604 0.349660 0.125980
H22   H     H_    0.969537 0.630502 0.331776 0.249445
H23   H     H_    0.590848 0.999171 0.391058 0.137198
H24   H     H_    0.052831 0.670336 0.306488 0.150242
H25   H     H_    0.088675 0.604087 0.312680 0.179241
H26   H     H_    0.067407 0.645771 0.349660 0.125980
H27   H     H_    0.369506 0.030494 0.668224 0.249445
H28   H     H_    0.329652 0.947209 0.693512 0.150242
H29   H     H_    0.395892 0.911349 0.687320 0.179241
H30   H     H_    0.354212 0.932629 0.650340 0.125979
H31   H     H_    0.030537 0.630484 0.668224 0.249444
H32   H     H_    0.947266 0.670367 0.693512 0.150240
H33   H     H_    0.911383 0.604140 0.687320 0.179241
H34   H     H_    0.000836 0.590848 0.391058 0.137198
H35   H     H_    0.932677 0.645811 0.650340 0.125979
H36   H     H_    0.630495 0.969508 0.668224 0.249445
H37   H     H_    0.670348 0.052793 0.693512 0.150242
H38   H     H_    0.604107 0.088652 0.687320 0.179242
H39   H     H_    0.645786 0.067374 0.650340 0.125980
H40   H     H_    0.969471 0.369514 0.668224 0.249446
H41   H     H_    0.052745 0.329640 0.693514 0.150244
H42   H     H_    0.088623 0.395869 0.687319 0.179240
H43   H     H_    0.067331 0.354192 0.650341 0.125980
H44   H     H_    0.869486 0.469592 0.831776 0.249446
H45   H     H_    0.409151 0.999184 0.608942 0.137198
H46   H     H_    0.829688 0.552902 0.806488 0.150244
H47   H     H_    0.895952 0.588718 0.812680 0.179241
H48   H     H_    0.854258 0.567467 0.849660 0.125981
H49   H     H_    0.530467 0.869499 0.831776 0.249446
H50   H     H_    0.447175 0.829662 0.806488 0.150243
H51   H     H_    0.411328 0.895910 0.812680 0.179242
H52   H     H_    0.432598 0.854226 0.849660 0.125981
H53   H     H_    0.130515 0.530409 0.831776 0.249446
H54   H     H_    0.170314 0.447099 0.806488 0.150244
H55   H     H_    0.104050 0.411283 0.812681 0.179241
H56   H     H_    0.999212 0.590849 0.608942 0.137199
H57   H     H_    0.145743 0.432534 0.849661 0.125980
H58   H     H_    0.469532 0.130501 0.831776 0.249445
H59   H     H_    0.552825 0.170338 0.806488 0.150243
H60   H     H_    0.588671 0.104090 0.812680 0.179242
H61   H     H_    0.567401 0.145774 0.849660 0.125980
H62   H     H_    0.869505 0.530490 0.168224 0.249445
H63   H     H_    0.829653 0.447205 0.193512 0.150242
H64   H     H_    0.895894 0.411347 0.187320 0.179242
H65   H     H_    0.854214 0.432624 0.150340 0.125980
H66   H     H_    0.530478 0.130498 0.168224 0.249445
H67   H     H_    0.590848 0.000816 0.608942 0.137198
H68   H     H_    0.447188 0.170342 0.193512 0.150242
H69   H     H_    0.411337 0.104097 0.187320 0.179241
H70   H     H_    0.432611 0.145779 0.150340 0.125980
H71   H     H_    0.130495 0.469510 0.168224 0.249446
H72   H     H_    0.170347 0.552796 0.193512 0.150242
H73   H     H_    0.104106 0.588654 0.187320 0.179242
H74   H     H_    0.145785 0.567376 0.150340 0.125980
H75   H     H_    0.469522 0.869502 0.168224 0.249445
H76   H     H_    0.552810 0.829656 0.193511 0.150240
H77   H     H_    0.588662 0.895901 0.187321 0.179243
H78   H     H_    0.000790 0.409151 0.608942 0.137198
H79   H     H_    0.567390 0.854222 0.150340 0.125981
H80   H     H_    0.909152 0.500872 0.891058 0.137198
N1    N     N_R   0.534817 0.965164 0.267145 -0.213772
N2    N     N_R   0.534839 0.034814 0.767145 -0.213774
N3    N     N_R   0.965200 0.534852 0.767145 -0.213771
N4    N     N_R   0.465161 0.965187 0.767145 -0.213774
N5    N     N_R   0.034821 0.534832 0.232854 -0.213772
N6    N     N_R   0.534835 0.965182 0.232854 -0.213773
N7    N     N_R   0.965179 0.465168 0.232854 -0.213772
N8    N     N_R   0.465165 0.034817 0.232854 -0.213772
N9    N     N_2   0.395956 0.001371 0.323567 -0.501374
N10   N     N_2   0.998621 0.395957 0.323567 -0.501374
N11   N     N_2   0.604043 0.998629 0.323567 -0.501375
N12   N     N_R   0.034839 0.534814 0.267145 -0.213773
N13   N     N_2   0.001379 0.604043 0.323567 -0.501374
N14   N     N_2   0.395957 0.998646 0.676433 -0.501375
N15   N     N_2   0.998680 0.604044 0.676433 -0.501374
N16   N     N_2   0.604043 0.001356 0.676433 -0.501375
N17   N     N_2   0.001326 0.395957 0.676433 -0.501376
N18   N     N_2   0.895958 0.501422 0.823567 -0.501376
N19   N     N_2   0.498625 0.895957 0.823567 -0.501376
N20   N     N_2   0.104043 0.498579 0.823567 -0.501376
N21   N     N_2   0.501375 0.104043 0.823567 -0.501375
N22   N     N_2   0.895957 0.498643 0.176433 -0.501375
N23   N     N_R   0.465183 0.034835 0.267145 -0.213772
N24   N     N_2   0.498633 0.104043 0.176433 -0.501375
N25   N     N_2   0.104043 0.501357 0.176433 -0.501376
N26   N     N_2   0.501366 0.895956 0.176433 -0.501375
N27   N     N_R   0.965161 0.465186 0.267145 -0.213773
N28   N     N_R   0.534821 0.034832 0.732855 -0.213773
N29   N     N_R   0.034821 0.465167 0.732855 -0.213771
N30   N     N_R   0.465179 0.965169 0.732854 -0.213772
N31   N     N_R   0.965182 0.534833 0.732854 -0.213770
N32   N     N_R   0.034802 0.465149 0.767146 -0.213771
O1    O     O_R   0.547030 0.081100 0.499900 -0.499825
O2    O     O_R   0.418900 0.047030 0.999900 -0.499825
O3    O     O_R   0.952970 0.418900 0.999900 -0.499823
O4    O     O_R   0.581100 0.952970 0.999900 -0.499825
O5    O     O_R   0.047030 0.418900 0.000100 -0.499828
O6    O     O_R   0.418900 0.952970 0.000100 -0.499825
O7    O     O_R   0.952970 0.581100 0.000100 -0.499828
O8    O     O_R   0.581100 0.047030 0.000100 -0.499826
O9    O     O_R   0.547030 0.999700 0.449980 -0.510481
O10   O     O_R   0.000300 0.547030 0.449980 -0.510480
O11   O     O_R   0.452970 0.000300 0.449980 -0.510481
O12   O     O_R   0.918900 0.547030 0.499900 -0.499823
O13   O     O_R   0.999700 0.452970 0.449980 -0.510480
O14   O     O_R   0.547030 0.000300 0.550020 -0.510480
O15   O     O_R   0.000300 0.452970 0.550020 -0.510481
O16   O     O_R   0.452970 0.999700 0.550020 -0.510481
O17   O     O_R   0.999700 0.547030 0.550020 -0.510481
O18   O     O_R   0.047030 0.499700 0.949980 -0.510481
O19   O     O_R   0.500300 0.047030 0.949980 -0.510480
O20   O     O_R   0.952970 0.500300 0.949980 -0.510480
O21   O     O_R   0.499700 0.952970 0.949980 -0.510480
O22   O     O_R   0.047030 0.500300 0.050020 -0.510480
O23   O     O_R   0.452970 0.918900 0.499900 -0.499825
O24   O     O_R   0.500300 0.952970 0.050020 -0.510481
O25   O     O_R   0.952970 0.499700 0.050020 -0.510481
O26   O     O_R   0.499700 0.047030 0.050020 -0.510481
O27   O     O_R   0.419660 0.499650 0.470270 -0.498851
O28   O     O_R   0.500350 0.419660 0.470270 -0.498851
O29   O     O_R   0.580340 0.500350 0.470270 -0.498851
O30   O     O_R   0.499650 0.580340 0.470270 -0.498851
O31   O     O_R   0.419660 0.500350 0.529730 -0.498851
O32   O     O_R   0.500350 0.580340 0.529730 -0.498851
O33   O     O_R   0.580340 0.499650 0.529730 -0.498851
O34   O     O_R   0.081100 0.452970 0.499900 -0.499823
O35   O     O_R   0.499650 0.419660 0.529730 -0.498851
O36   O     O_R   0.919660 0.999650 0.970270 -0.498851
O37   O     O_R   0.000350 0.919660 0.970270 -0.498851
O38   O     O_R   0.080340 0.000350 0.970270 -0.498851
O39   O     O_R   0.999650 0.080340 0.970270 -0.498852
O40   O     O_R   0.919660 0.000350 0.029730 -0.498851
O41   O     O_R   0.000350 0.080340 0.029730 -0.498851
O42   O     O_R   0.080340 0.999650 0.029730 -0.498852
O43   O     O_R   0.999650 0.919660 0.029730 -0.498851
O44   O     O_R   0.547030 0.918900 0.500100 -0.499826
O45   O     O_R   0.918900 0.452970 0.500100 -0.499827
O46   O     O_R   0.452970 0.081100 0.500100 -0.499826
O47   O     O_R   0.081100 0.547030 0.500100 -0.499828
O48   O     O_R   0.047030 0.581100 0.999900 -0.499823

loop_
_geom_bond_atom_site_label_1
_geom_bond_atom_site_label_2
_ccdc_geom_bond_type
Cu5   O12   S    
C53   C95   S    
C17   H13   S    
C55   O39   A    
Cu10  O20   S    
C9    C45   S    
C7    N26   S    
C10   C124  A    
C12   C126  A    
C21   H30   S    
C28   H55   S    
C105  C123  A    
C3    N21   S    
C12   C42   S    
C96   O5    A    
C29   H59   S    
C48   C91   S    
C9    C121  A    
C23   H39   S    
C88   C97   T    
C38   N6    A    
Cu2   Cu12  S    
C34   C60   S    
C17   H11   S    
C46   N23   A    
C36   C62   S    
H44   N18   S    
C47   O27   A    
C52   O23   A    
C48   O28   A    
H66   N24   S    
C57   O10   A    
C4    C113  A    
C18   N10   S    
C37   C114  A    
C82   C91   T    
C21   N14   S    
C31   H69   S    
C25   N17   S    
C3    C112  A    
C69   C74   S    
C52   O44   A    
C15   C39   S    
C81   C90   S    
C122  N14   S    
Cu10  O3    S    
C126  N18   S    
C18   H16   S    
C108  C125  A    
C68   C77   T    
C70   C79   T    
Cu12  O30   S    
C13   C106  A    
C10   C122  A    
H18   N11   S    
C12   C128  A    
C33   H77   S    
C28   H57   S    
Cu1   O44   S    
C59   O15   A    
Cu11  O4    S    
C18   H17   S    
C55   C98   S    
C56   O9    A    
C84   C93   T    
C23   H37   S    
C124  N16   S    
C43   N31   A    
C31   H68   S    
C106  C124  A    
Cu5   Cu7   S    
C100  C117  A    
C28   N20   S    
Cu1   O14   S    
C78   C87   S    
Cu6   O11   S    
Cu12  O28   S    
C74   O48   A    
C27   H50   S    
C22   H35   S    
Cu9   O19   S    
C2    C57   S    
C37   C116  A    
H31   N15   S    
C20   H25   S    
C31   H70   S    
C59   O17   A    
C21   H28   S    
C19   H20   S    
C48   O35   A    
C104  C122  A    
H62   N22   S    
Cu11  O6    S    
Cu6   O46   S    
H22   N13   S    
C26   H48   S    
C64   O26   A    
C87   C95   T    
C28   H54   S    
N4    N30   A    
C32   H74   S    
Cu6   O23   S    
N2    N28   A    
C4    N22   S    
C8    C117  A    
C33   H79   S    
N5    N12   A    
Cu3   O37   S    
C10   C44   S    
C56   O11   A    
C51   O36   A    
C102  H23   S    
C30   H65   S    
C103  H34   S    
C50   O32   A    
C7    C116  A    
Cu2   O31   S    
C43   N29   A    
C35   C61   S    
C52   C67   S    
C47   O31   A    
C54   O42   A    
C45   N12   A    
Cu1   O1    S    
C27   H52   S    
C23   N16   S    
C90   C99   T    
C22   H33   S    
C25   H42   S    
C63   C68   S    
N29   N32   A    
C41   O12   A    
Cu9   O2    S    
C41   C66   S    
C63   O47   A    
C32   N25   S    
H9    N9    S    
H71   N25   S    
C26   H46   S    
C24   C59   S    
C21   H29   S    
C49   O29   A    
C8    C46   S    
C103  C121  A    
C55   O41   A    
N7    N27   A    
C22   N15   S    
C109  C126  A    
C20   N13   S    
C30   N22   S    
C111  C128  A    
Cu11  O21   S    
C70   C85   S    
C35   C112  A    
C105  H56   S    
C127  N19   S    
C17   H10   S    
C76   C84   S    
C27   N19   S    
C30   H63   S    
Cu9   Cu11  S    
C85   O2    A    
C50   O30   A    
C11   C125  A    
C100  H1    S    
Cu7   O45   S    
Cu3   O36   S    
C20   H24   S    
C115  H7    S    
Cu4   O41   S    
C19   H21   S    
C113  H5    S    
C80   C89   S    
C41   O45   A    
C1    C65   S    
C54   C97   S    
C24   C108  A    
C62   O25   A    
C39   N7    A    
C72   C81   T    
C108  H78   S    
C42   N32   A    
Cu1   O9    S    
C79   C88   S    
C1    O1    A    
H58   N21   S    
Cu6   O16   S    
C29   H61   S    
C31   N24   S    
C106  H67   S    
C116  H8    S    
C17   N9    S    
C71   C96   S    
N1    N6    A    
C14   C127  A    
C40   N2    A    
H53   N20   S    
C83   C92   T    
C26   N18   S    
C29   H60   S    
C1    O46   A    
Cu7   O34   S    
C13   C104  A    
C3    C14   A    
C123  N15   S    
C44   N30   A    
C7    C16   A    
C121  N13   S    
C109  H80   S    
C100  C118  A    
C49   C92   S    
Cu3   Cu4   S    
C73   C82   S    
C37   C64   S    
C102  C120  A    
N3    N31   A    
Cu10  O7    S    
C56   C118  S    
Cu8   O22   S    
Cu2   O35   S    
C128  N20   S    
C20   H26   S    
C89   C98   T    
C101  H12   S    
Cu4   O43   S    
C19   H19   S    
C51   O40   A    
C54   O38   A    
C75   C83   S    
N8    N23   A    
C2    C103  A    
C66   C75   T    
C47   C94   S    
C5    N24   S    
C6    C115  A    
C39   N5    A    
C44   N28   A    
Cu1   Cu6   S    
H75   N26   S    
C58   O16   A    
C61   O21   A    
C60   O18   A    
C61   O19   A    
C18   H15   S    
H27   N14   S    
C5    C114  A    
C6    N25   S    
Cu12  O29   S    
C45   N27   A    
C74   O7    A    
C64   O24   A    
C104  H45   S    
C49   O33   A    
C46   N1    A    
C40   N4    A    
C62   O22   A    
C32   H72   S    
C65   C73   T    
C117  N9    S    
C110  H2    S    
C23   H38   S    
Cu2   O32   S    
C86   C94   T    
C119  N10   S    
C6    C15   A    
C5    C16   A    
Cu4   O40   S    
C11   C43   S    
C85   O6    A    
C63   O34   A    
C110  C127  A    
C57   O13   A    
H14   N10   S    
Cu7   O15   S    
C34   C111  A    
Cu12  O27   S    
C69   C78   T    
C27   H51   S    
Cu2   O33   S    
C36   C113  A    
C120  N11   S    
C71   C80   T    
C33   H76   S    
C25   H41   S    
C51   C99   S    
Cu5   O10   S    
Cu9   O26   S    
C101  C119  A    
C33   N26   S    
C125  N17   S    
C114  H6    S    
Cu8   Cu10  S    
C13   C58   S    
C2    C101  A    
C107  O8    A    
C26   H47   S    
Cu5   O17   S    
C72   C107  S    
C53   O37   A    
C58   O14   A    
Cu5   O47   S    
C60   O20   A    
C35   C110  A    
C32   H73   S    
C77   C86   S    
Cu10  O25   S    
C9    C119  A    
Cu11  O24   S    
C42   N3    A    
Cu8   O5    S    
C8    C120  A    
C38   N8    A    
Cu9   O8    S    
C11   C123  A    
Cu3   O38   S    
C96   O3    A    
C102  C118  A    
Cu3   O39   S    
C50   C93   S    
C24   C105  A    
C111  H3    S    
C30   H64   S    
C112  H4    S    
C4    C15   A    
H36   N16   S    
H40   N17   S    
Cu4   O42   S    
C107  O4    A    
C14   C40   S    
Cu8   O48   S    
Cu7   O13   S    
C34   C109  A    
C29   N21   S    
Cu8   O18   S    
C67   C76   T    
C36   C115  A    
C19   N11   S    
C53   O43   A    
C22   H32   S    
C25   H43   S    
C16   C38   S    
H49   N19   S    
