data_mof_unit_20732.cif
_audit_creation_date              2012-12-10T18:44:23-0500
_audit_creation_method            fapswitch 2.2
_symmetry_space_group_name_H-M    P1
_symmetry_Int_Tables_number       1
_space_group_crystal_system       triclinic
_cell_length_a                    12.9073
_cell_length_b                    10.698851
_cell_length_c                    9.831441
_cell_angle_alpha                 90.469596
_cell_angle_beta                  95.60845
_cell_angle_gamma                 90.480374
_cell_volume                      1351.05389921

loop_
_atom_site_label
_atom_site_type_symbol
_atom_type_description
_atom_site_fract_x
_atom_site_fract_y
_atom_site_fract_z
_atom_type_partial_charge
C1    C     C_R   0.499540 0.259885 0.499538 0.870624
C2    C     C_R   0.500306 0.740121 0.500433 0.864877
C3    C     C_R   0.500307 0.872528 0.500568 -0.005807
C4    C     C_R   0.499088 0.127466 0.499262 -0.009030
C5    C     C_R   0.547113 0.594431 0.079508 -0.183800
C6    C     C_R   0.453623 0.404991 0.920283 -0.177650
C7    C     C_R   0.548218 0.594320 0.935564 0.262727
C8    C     C_R   0.452335 0.404493 0.064921 0.291814
C9    C     C_R   0.299691 0.515111 0.475747 0.907774
C10   C     C_R   0.702343 0.498187 0.524439 0.902130
C11   C     C_R   0.815838 0.499121 0.535185 -0.175245
C12   C     C_R   0.190817 0.549706 0.465650 -0.166324
C13   C     C_R   0.032265 0.615461 0.336780 -0.029953
C14   C     C_R   0.980813 0.462428 0.666687 -0.022424
C15   C     C_R   0.140007 0.598868 0.344972 -0.105651
C16   C     C_R   0.872720 0.451819 0.652785 -0.109421
C17   C     C_R   0.138372 0.545348 0.583686 0.152204
C18   C     C_R   0.867282 0.545251 0.424601 0.142301
C19   C     C_R   0.031481 0.523984 0.564901 -0.026748
C20   C     C_R   0.975779 0.562666 0.440507 0.010173
C21   C     C_R   0.528008 0.063394 0.384890 -0.193221
C22   C     C_R   0.471166 0.936585 0.614833 -0.188664
C23   C     C_R   0.528645 0.935387 0.385532 -0.194783
C24   C     C_R   0.470555 0.064613 0.614209 -0.188038
H1    H     H_    0.551120 0.111878 0.296168 0.174096
H2    H     H_    0.447900 0.888090 0.703444 0.152797
H3    H     H_    0.552012 0.885977 0.296979 0.150273
H4    H     H_    0.447167 0.114047 0.702747 0.151161
H5    H     H_    0.584529 0.669740 0.140466 0.149281
H6    H     H_    0.415608 0.331737 0.857174 0.159437
N1    N     N_R   0.499970 0.499970 0.857200 -0.110896
N2    N     N_R   0.500030 0.500030 0.142800 -0.114000
O1    O     O_R   0.499990 0.316750 0.614620 -0.629613
O2    O     O_R   0.500010 0.683250 0.385380 -0.633336
O3    O     O_R   0.499990 0.316780 0.385290 -0.609595
O4    O     O_R   0.500010 0.683220 0.614710 -0.604601
O5    O     O_R   0.346360 0.499970 0.595710 -0.607271
O6    O     O_R   0.653640 0.500030 0.404290 -0.589736
O7    O     O_R   0.346360 0.499990 0.366380 -0.636584
O8    O     O_R   0.653640 0.500010 0.633620 -0.598514
Zn1   Zn    Zn3+2 0.500000 0.499980 0.653120 0.964815
Zn2   Zn    Zn3+2 0.500000 0.500020 0.346880 0.960851
N3    N     N_2   0.809351 0.564316 0.295528 -0.288830
H7    H     H_    0.795850 0.654623 0.263489 0.220324
C25   C     C_3   0.814337 0.466518 0.193702 -0.671367
H8    H     H_    0.893569 0.461108 0.159423 0.231000
H9    H     H_    0.757994 0.486020 0.104015 0.232600
H10   H     H_    0.793541 0.374874 0.236441 0.242152
N4    N     N_2   0.178598 0.619353 0.699207 -0.302466
H11   H     H_    0.130322 0.690154 0.725560 0.226027
C26   C     C_3   0.233386 0.559304 0.816015 -0.656940
H12   H     H_    0.186444 0.564089 0.904619 0.227004
H13   H     H_    0.307705 0.610094 0.844233 0.241156
H14   H     H_    0.249961 0.459877 0.794518 0.247602
C27   C     C_1   0.821439 0.383416 0.755140 0.202861
N5    N     N_1   0.780845 0.328918 0.836584 -0.204377
C28   C     C_1   0.198638 0.643034 0.235565 0.225194
N6    N     N_1   0.245570 0.678821 0.149033 -0.219657
C29   C     C_1   0.984551 0.689849 0.225045 0.161206
N7    N     N_1   0.947965 0.749685 0.135521 -0.223157
C30   C     C_1   0.038609 0.395605 0.777243 0.181719
N8    N     N_1   0.082636 0.340372 0.865386 -0.228085
N9    N     N_2   0.597189 0.694270 0.872075 -0.264049
H15   H     H_    0.567201 0.780013 0.895452 0.200429
C31   C     C_3   0.709625 0.694587 0.893160 -0.744035
H16   H     H_    0.736266 0.716040 0.001789 0.219920
H17   H     H_    0.741173 0.767128 0.827977 0.241350
H18   H     H_    0.740620 0.602642 0.864803 0.260091
N10   N     N_2   0.399045 0.308420 0.130630 -0.268691
H19   H     H_    0.339076 0.339750 0.183253 0.258852
C32   C     C_3   0.378982 0.188943 0.062410 -0.850713
H20   H     H_    0.315381 0.197501 0.978360 0.242370
H21   H     H_    0.354182 0.120057 0.136909 0.260278
H22   H     H_    0.450834 0.153623 0.022027 0.243800

loop_
_geom_bond_atom_site_label_1
_geom_bond_atom_site_label_2
_ccdc_geom_bond_type
C12   C17   A    
C32   H22   S    
C6    C8    A    
N3    H7    S    
N9    C31   S    
C11   C18   A    
C13   C29   S    
C14   C16   A    
C23   H3    S    
C15   C28   S    
C11   C16   A    
C18   C20   A    
C19   C20   A    
O2    Zn2   S    
C12   C15   A    
C10   O6    A    
C26   H14   S    
O1    Zn1   S    
C1    C4    S    
C27   N5    T    
C9    O5    A    
C2    C3    S    
C28   N6    T    
C16   C27   S    
C1    O1    A    
C29   N7    T    
C18   N3    S    
O5    Zn1   S    
C4    C21   A    
N3    C25   S    
C7    N9    S    
O4    Zn1   S    
N10   H19   S    
C26   H12   S    
C21   H1    S    
N4    H11   S    
O8    Zn1   S    
C6    H6    S    
O6    Zn2   S    
O7    Zn2   S    
C5    H5    S    
C13   C15   A    
C21   C23   A    
N2    Zn2   S    
C30   N8    T    
C4    C24   A    
C9    C12   S    
C22   C24   A    
C25   H10   S    
C7    N1    A    
C10   C11   S    
C17   N4    S    
N9    H15   S    
C8    N2    A    
N10   C32   S    
C9    O7    A    
C31   H18   S    
C32   H20   S    
C1    O3    A    
C10   O8    A    
C31   H16   S    
C22   H2    S    
C25   H9    S    
C2    O4    A    
C32   H21   S    
O3    Zn2   S    
C8    N10   S    
C5    C7    A    
C17   C19   A    
C3    C22   A    
C6    N1    A    
C31   H17   S    
N1    Zn1   S    
C13   C20   A    
N4    C26   S    
C2    O2    A    
C25   H8    S    
C14   C30   S    
C3    C23   A    
C14   C19   A    
C5    N2    A    
C24   H4    S    
C26   H13   S    
