data_mof_unit_47574.cif
_audit_creation_date              2012-10-26T17:12:29-0400
_audit_creation_method            fapswitch 2.2
_symmetry_space_group_name_H-M    P1
_symmetry_Int_Tables_number       1
_space_group_crystal_system       triclinic
_cell_length_a                    16.851235
_cell_length_b                    16.752416
_cell_length_c                    16.852573
_cell_angle_alpha                 68.029912
_cell_angle_beta                  68.379354
_cell_angle_gamma                 67.996525
_cell_volume                      3943.79455268

loop_
_atom_site_label
_atom_site_type_symbol
_atom_type_description
_atom_site_fract_x
_atom_site_fract_y
_atom_site_fract_z
_atom_type_partial_charge
C1    C     C_R   0.032182 0.827899 0.563129 0.573219
C2    C     C_R   0.017656 0.569169 0.829861 0.585833
C3    C     C_R   0.171019 0.975884 0.433891 0.577533
C4    C     C_R   0.828980 0.024116 0.566109 0.577533
C5    C     C_R   0.467437 0.016387 0.719715 0.281496
C6    C     C_R   0.532563 0.983612 0.280285 0.281496
C7    C     C_R   0.087693 0.692892 0.453245 0.274105
C8    C     C_R   0.912307 0.307107 0.546755 0.274104
C9    C     C_R   0.711615 0.456075 0.049474 0.288315
C10   C     C_R   0.288385 0.543925 0.950526 0.288315
C11   C     C_R   0.301372 0.923327 0.542646 0.272025
C12   C     C_R   0.967818 0.172101 0.436870 0.573219
C13   C     C_R   0.698628 0.076672 0.457354 0.272025
C14   C     C_R   0.543841 0.293150 0.938623 0.277170
C15   C     C_R   0.456159 0.706850 0.061377 0.277170
C16   C     C_R   0.079577 0.465410 0.273534 0.277409
C17   C     C_R   0.920423 0.534590 0.726466 0.277410
C18   C     C_R   0.544740 0.018571 0.544441 -0.031102
C19   C     C_R   0.455260 0.981428 0.455559 -0.031102
C20   C     C_R   0.009136 0.550572 0.545778 -0.041852
C21   C     C_R   0.990864 0.449428 0.454222 -0.041852
C22   C     C_R   0.542924 0.542033 0.024441 -0.029804
C23   C     C_R   0.829055 0.565782 0.024499 0.589428
C24   C     C_R   0.457075 0.457967 0.975559 -0.029804
C25   C     C_R   0.579494 0.029383 0.452145 0.007785
C26   C     C_R   0.420506 0.970616 0.547855 0.007785
C27   C     C_R   0.958838 0.487561 0.592248 0.008608
C28   C     C_R   0.041162 0.512438 0.407752 0.008608
C29   C     C_R   0.455501 0.586631 0.014457 0.021192
C30   C     C_R   0.544499 0.413369 0.985543 0.021192
C31   C     C_R   0.532743 0.012277 0.407804 0.030161
C32   C     C_R   0.467257 0.987722 0.592196 0.030162
C33   C     C_R   0.411278 0.542912 0.992858 0.022516
C34   C     C_R   0.170945 0.434218 0.975501 0.589427
C35   C     C_R   0.588722 0.457088 0.007142 0.022516
C36   C     C_R   0.956345 0.430985 0.547674 0.011981
C37   C     C_R   0.043655 0.569015 0.452326 0.011981
C38   C     C_R   0.444374 0.968269 0.684676 0.317372
C39   C     C_R   0.555626 0.031730 0.315324 0.317372
C40   C     C_R   0.073616 0.647340 0.406708 0.297505
C41   C     C_R   0.926384 0.352660 0.593291 0.297506
C42   C     C_R   0.678648 0.421176 0.009589 0.322331
C43   C     C_R   0.321352 0.578824 0.990411 0.322331
C44   C     C_R   0.339933 0.944111 0.590578 0.286694
C45   C     C_R   0.567547 0.019164 0.830374 0.571039
C46   C     C_R   0.660067 0.055888 0.409422 0.286694
C47   C     C_R   0.582447 0.325038 0.976078 0.309382
C48   C     C_R   0.417552 0.674962 0.023922 0.309383
C49   C     C_R   0.098192 0.505138 0.322870 0.316221
C50   C     C_R   0.901808 0.494862 0.677130 0.316220
C51   C     C_R   0.553955 0.025695 0.683150 -0.025700
C52   C     C_R   0.446045 0.974304 0.316850 -0.025700
C53   C     C_R   0.054909 0.673883 0.546613 -0.048773
C54   C     C_R   0.945091 0.326116 0.453386 -0.048773
C55   C     C_R   0.677870 0.547265 0.045784 -0.022909
C56   C     C_R   0.432453 0.980836 0.169626 0.571039
C57   C     C_R   0.322130 0.452735 0.954215 -0.022909
C58   C     C_R   0.325105 0.951427 0.449504 -0.048491
C59   C     C_R   0.674895 0.048573 0.550496 -0.048491
C60   C     C_R   0.451776 0.324622 0.949792 -0.040140
C61   C     C_R   0.548223 0.675378 0.050208 -0.040140
C62   C     C_R   0.011256 0.422017 0.313389 -0.048577
C63   C     C_R   0.988744 0.577983 0.686611 -0.048577
C64   C     C_R   0.605313 0.023260 0.734896 0.015528
C65   C     C_R   0.394687 0.976739 0.265104 0.015528
C66   C     C_R   0.052423 0.727773 0.596506 0.024856
C67   C     C_R   0.434156 0.171110 0.975380 0.567203
C68   C     C_R   0.947576 0.272226 0.403494 0.024856
C69   C     C_R   0.731814 0.601465 0.034585 0.024828
C70   C     C_R   0.268186 0.398535 0.965415 0.024828
C71   C     C_R   0.268316 0.966965 0.396299 0.016048
C72   C     C_R   0.731684 0.033035 0.603701 0.016047
C73   C     C_R   0.397990 0.269104 0.964106 0.008027
C74   C     C_R   0.602010 0.730896 0.035894 0.008027
C75   C     C_R   0.980371 0.388863 0.266430 0.013102
C76   C     C_R   0.019629 0.611137 0.733570 0.013102
C77   C     C_R   0.697092 0.012018 0.696989 0.207904
C78   C     C_R   0.565844 0.828890 0.024620 0.567203
C79   C     C_R   0.302908 0.987981 0.303011 0.207904
C80   C     C_R   0.052781 0.686815 0.685935 0.211484
C81   C     C_R   0.947219 0.313185 0.314065 0.211484
C82   C     C_R   0.694793 0.694628 0.016581 0.198743
C83   C     C_R   0.305207 0.305372 0.983419 0.198743
C84   C     C_R   0.592074 0.029983 0.592583 -0.046900
C85   C     C_R   0.407926 0.970016 0.407417 -0.046900
C86   C     C_R   0.019138 0.599898 0.592799 -0.064886
C87   C     C_R   0.980862 0.400102 0.407201 -0.064886
C88   C     C_R   0.589708 0.588318 0.039914 -0.043516
C89   C     C_R   0.982344 0.430831 0.170139 0.585833
C90   C     C_R   0.410293 0.411682 0.960086 -0.043516
Cl1   Cl    Cl    0.382254 0.110588 0.746207 -0.454996
Cl2   Cl    Cl    0.384408 0.762430 0.143389 -0.381197
Cl3   Cl    Cl    0.159267 0.445465 0.174874 -0.492944
Cl4   Cl    Cl    0.840733 0.554535 0.825126 -0.492944
Cl5   Cl    Cl    0.458211 0.854180 0.743093 -0.417170
Cl6   Cl    Cl    0.541791 0.145818 0.256907 -0.417168
Cl7   Cl    Cl    0.072977 0.704124 0.294428 -0.345372
Cl8   Cl    Cl    0.927023 0.295876 0.705572 -0.345372
Cl9   Cl    Cl    0.761483 0.365330 0.932012 -0.299494
Cl10  Cl    Cl    0.238517 0.634670 0.067988 -0.299494
Cl11  Cl    Cl    0.273559 0.949865 0.698957 -0.331994
Cl12  Cl    Cl    0.617745 0.889411 0.253793 -0.454995
Cl13  Cl    Cl    0.726443 0.050132 0.301044 -0.331996
Cl14  Cl    Cl    0.648779 0.239103 0.043682 -0.318720
Cl15  Cl    Cl    0.351221 0.760897 0.956318 -0.318720
Cl16  Cl    Cl    0.206561 0.517709 0.291620 -0.360624
Cl17  Cl    Cl    0.793439 0.482291 0.708380 -0.360624
Cl18  Cl    Cl    0.769661 0.951090 0.767615 -0.409348
Cl19  Cl    Cl    0.230339 0.048910 0.232385 -0.409348
Cl20  Cl    Cl    0.099644 0.729580 0.734297 -0.337540
Cl21  Cl    Cl    0.900356 0.270419 0.265703 -0.337540
Cl22  Cl    Cl    0.764952 0.765889 0.946872 -0.421118
Cl23  Cl    Cl    0.162360 0.759997 0.393478 -0.391515
Cl24  Cl    Cl    0.235048 0.234110 0.053128 -0.421118
Cl25  Cl    Cl    0.837640 0.240002 0.606522 -0.391515
Cl26  Cl    Cl    0.762863 0.378392 0.132938 -0.359044
Cl27  Cl    Cl    0.237137 0.621608 0.867062 -0.359044
Cl28  Cl    Cl    0.245041 0.839545 0.599864 -0.366124
Cl29  Cl    Cl    0.754959 0.160454 0.400135 -0.366124
Cl30  Cl    Cl    0.615592 0.237570 0.856611 -0.381197
Cu1   Cu    Cu3+1 0.995180 0.995180 0.424630 1.300571
Cu2   Cu    Cu3+1 0.004820 0.004820 0.575370 1.300571
Cu3   Cu    Cu3+1 0.995180 0.424630 0.995180 1.303273
Cu4   Cu    Cu3+1 0.004820 0.575370 0.004820 1.303273
Cu5   Cu    Cu3+1 0.424630 0.995180 0.995180 1.320878
Cu6   Cu    Cu3+1 0.575370 0.004820 0.004820 1.320878
O1    O     O_R   0.124540 0.978640 0.385460 -0.426864
O2    O     O_R   0.124540 0.385460 0.978640 -0.463190
O3    O     O_R   0.021360 0.875460 0.614540 -0.431494
O4    O     O_R   0.978640 0.124540 0.385460 -0.431494
O5    O     O_R   0.013780 0.867370 0.487190 -0.500743
O6    O     O_R   0.986220 0.132630 0.512810 -0.500743
O7    O     O_R   0.867370 0.487190 0.013780 -0.460371
O8    O     O_R   0.132630 0.512810 0.986220 -0.460371
O9    O     O_R   0.487190 0.013780 0.867370 -0.494510
O10   O     O_R   0.512810 0.986220 0.132630 -0.494510
O11   O     O_R   0.512810 0.132630 0.986220 -0.488114
O12   O     O_R   0.875460 0.021360 0.614540 -0.426864
O13   O     O_R   0.487190 0.867370 0.013780 -0.488114
O14   O     O_R   0.986220 0.512810 0.132630 -0.497395
O15   O     O_R   0.013780 0.487190 0.867370 -0.497395
O16   O     O_R   0.132630 0.986220 0.512810 -0.497047
O17   O     O_R   0.867370 0.013780 0.487190 -0.497047
O18   O     O_R   0.978640 0.385460 0.124540 -0.430069
O19   O     O_R   0.021360 0.614540 0.875460 -0.430069
O20   O     O_R   0.385460 0.124540 0.978640 -0.438766
O21   O     O_R   0.614540 0.875460 0.021360 -0.438766
O22   O     O_R   0.614540 0.021360 0.875460 -0.423350
O23   O     O_R   0.385460 0.978640 0.124540 -0.423350
O24   O     O_R   0.875460 0.614540 0.021360 -0.463190

loop_
_geom_bond_atom_site_label_1
_geom_bond_atom_site_label_2
_ccdc_geom_bond_type
C25   C31   A    
C21   C87   A    
Cu6   O11   S    
C26   C32   A    
C65   C79   A    
C22   C29   A    
C45   O22   A    
C64   C77   A    
Cu1   O17   S    
C3    O16   A    
Cu1   O4    S    
C19   C31   A    
C78   O13   A    
C4    O17   A    
C71   C79   A    
C26   C44   A    
Cu3   Cu4   S    
C21   C36   A    
Cu5   O13   S    
C2    O19   A    
C22   C35   A    
C12   C68   S    
C16   Cl3   S    
C12   O4    A    
C30   C35   A    
Cu3   O7    S    
C68   C81   A    
C52   C85   A    
C74   C82   A    
Cu1   O1    S    
C37   C40   A    
C1    O3    A    
Cu5   O20   S    
C54   C87   A    
C3    O1    A    
C58   C71   A    
C54   C68   A    
C63   C76   A    
C34   O8    A    
C56   C65   S    
C29   C33   A    
C60   C73   A    
C55   C88   A    
C35   C42   A    
C19   C26   A    
C23   C69   S    
C69   C82   A    
C8    Cl25  S    
C56   O10   A    
C15   Cl2   S    
C14   C47   A    
C81   Cl21  S    
C4    C72   S    
C20   C86   A    
Cu3   O18   S    
C18   C84   A    
C7    C40   A    
C53   C86   A    
C67   C73   S    
C22   C88   A    
C57   C70   A    
C11   C58   A    
C34   C70   S    
Cu2   O3    S    
C27   C50   A    
C59   C72   A    
Cu5   O9    S    
Cu6   O10   S    
C5    C38   A    
C83   Cl24  S    
C36   C41   A    
C18   C25   A    
C16   C62   A    
C15   C48   A    
Cu1   O5    S    
Cu2   O6    S    
C13   Cl29  S    
C24   C33   A    
C15   C61   A    
C45   O9    A    
C57   C90   A    
C79   Cl19  S    
C29   C48   A    
C33   C43   A    
C30   C47   A    
C10   C57   A    
C8    C41   A    
Cu2   O12   S    
C8    C54   A    
C40   Cl7   S    
C23   O7    A    
C75   C81   A    
C1    O5    A    
C82   Cl22  S    
C38   Cl5   S    
C3    C71   S    
C72   C77   A    
C70   C83   A    
C61   C88   A    
C28   C49   A    
C48   Cl15  S    
Cu6   O21   S    
C89   O14   A    
Cu3   O15   S    
C67   O20   A    
C1    C66   S    
C9    C42   A    
C11   C44   A    
C5    Cl1   S    
C43   Cl10  S    
C53   C66   A    
Cu1   Cu2   S    
C55   C69   A    
Cu5   O23   S    
C78   O21   A    
C9    C55   A    
C21   C28   A    
C32   C38   A    
C63   C86   A    
Cu5   Cu6   S    
C61   C74   A    
C62   C75   A    
C18   C32   A    
C7    C53   A    
C58   C85   A    
C16   C49   A    
C2    C76   S    
C62   C87   A    
C13   C46   A    
Cu4   O24   S    
Cu6   O22   S    
C47   Cl14  S    
C12   O6    A    
C66   C80   A    
C10   C43   A    
C6    C39   A    
C9    Cl26  S    
C23   O24   A    
Cu4   O14   S    
C77   Cl18  S    
C51   C64   A    
C76   C80   A    
C19   C85   A    
C24   C90   A    
C17   C50   A    
C44   Cl11  S    
C49   Cl16  S    
C13   C59   A    
C20   C27   A    
C60   C90   A    
C27   C36   A    
C89   O18   A    
C14   C60   A    
Cu4   O19   S    
C45   C64   S    
C14   Cl30  S    
C59   C84   A    
Cu4   O8    S    
C7    Cl23  S    
C10   Cl27  S    
C42   Cl9   S    
C17   C63   A    
C20   C37   A    
Cu3   O2    S    
C50   Cl17  S    
C28   C37   A    
C51   C84   A    
C31   C39   A    
C6    Cl12  S    
C67   O11   A    
C24   C30   A    
C39   Cl6   S    
C46   Cl13  S    
C75   C89   S    
C4    O12   A    
C34   O2    A    
C74   C78   S    
C80   Cl20  S    
C2    O15   A    
Cu2   O16   S    
C41   Cl8   S    
C5    C51   A    
C17   Cl4   S    
C6    C52   A    
C56   O23   A    
C11   Cl28  S    
C25   C46   A    
C73   C83   A    
C52   C65   A    
