data_mof_unit_45380.cif
_audit_creation_date              2012-10-26T19:05:02-0400
_audit_creation_method            fapswitch 2.2
_symmetry_space_group_name_H-M    P1
_symmetry_Int_Tables_number       1
_space_group_crystal_system       triclinic
_cell_length_a                    15.862732
_cell_length_b                    10.762936
_cell_length_c                    9.653648
_cell_angle_alpha                 90.216327
_cell_angle_beta                  89.479819
_cell_angle_gamma                 93.190603
_cell_volume                      1645.53170987

loop_
_atom_site_label
_atom_site_type_symbol
_atom_type_description
_atom_site_fract_x
_atom_site_fract_y
_atom_site_fract_z
_atom_type_partial_charge
C1    C     C_R   0.498268 0.262975 0.499863 0.525172
C2    C     C_R   0.277578 0.045583 0.637119 -0.109764
C3    C     C_R   0.278109 0.916317 0.636979 -0.116071
C4    C     C_R   0.340443 0.499163 0.500585 0.515836
C5    C     C_R   0.349863 0.857667 0.592740 -0.096894
C6    C     C_R   0.422925 0.928080 0.547837 -0.013525
C7    C     C_R   0.422175 0.059287 0.547775 0.013968
C8    C     C_R   0.494427 0.129092 0.499721 -0.028557
C9    C     C_R   0.565434 0.071274 0.451744 -0.107995
C10   C     C_R   0.567156 0.943089 0.452873 0.231202
C11   C     C_R   0.496270 0.871087 0.500616 0.040520
C12   C     C_3   0.947027 0.468692 0.647793 -0.222078
C13   C     C_R   0.628586 0.631729 0.146003 -0.055564
C14   C     C_R   0.706349 0.657895 0.084621 -0.185346
C15   C     C_R   0.714596 0.644599 0.943579 -0.130498
C16   C     C_R   0.499388 0.737125 0.500088 0.612595
C17   C     C_R   0.642104 0.622153 0.864392 0.269883
C18   C     C_R   0.566651 0.563085 0.925991 0.159948
C19   C     C_R   0.564059 0.564415 0.075065 0.114697
C20   C     C_R   0.438439 0.438580 0.074169 0.007275
C21   C     C_R   0.438019 0.439515 0.926775 -0.001781
C22   C     C_R   0.659523 0.501085 0.499467 0.589070
C23   C     C_3   0.916726 0.499722 0.498898 0.066589
C24   C     C_3   0.045174 0.464720 0.647893 0.122207
C25   C     C_3   0.047095 0.405295 0.390306 -0.099906
C26   C     C_3   0.948734 0.390636 0.400253 0.520400
C27   C     C_1   0.749171 0.503146 0.498909 0.002646
C28   C     C_3   0.082805 0.498243 0.501245 -0.013245
C29   C     C_3   0.937290 0.824683 0.365253 -0.011666
C30   C     C_3   0.912770 0.882787 0.229117 -0.360739
C31   C     C_3   0.854410 0.211137 0.438484 0.026044
C32   C     C_3   0.826797 0.128463 0.559840 -0.372447
C33   C     C_3   0.912591 0.486877 0.184012 -0.006684
C34   C     C_3   0.958233 0.634571 0.472324 0.118478
C35   C     C_3   0.902288 0.450343 0.032620 -0.387501
C36   C     C_3   0.055567 0.628767 0.460432 -0.268080
C37   C     C_1   0.824708 0.502919 0.499150 -0.017387
C38   C     C_1   0.175144 0.498778 0.502001 -0.026473
C39   C     C_1   0.250745 0.499003 0.501756 -0.011596
C40   C     C_R   0.348749 0.116919 0.592781 -0.091128
Cl1   Cl    Cl    0.661184 0.876690 0.399191 -0.655125
Cl2   Cl    Cl    0.076145 0.315988 0.706576 -0.649334
Cl3   Cl    Cl    0.646467 0.734887 0.733528 -0.548884
Cu1   Cu    Cu3+1 0.499990 0.499990 0.640660 1.002964
Cu2   Cu    Cu3+1 0.500010 0.500010 0.359340 0.956782
H1    H     H_    0.916204 0.380224 0.686833 0.202173
H2    H     H_    0.620990 0.665281 0.248676 0.239235
H3    H     H_    0.758178 0.698216 0.144690 0.156653
H4    H     H_    0.773311 0.679629 0.895794 0.148843
H5    H     H_    0.387272 0.389240 0.872722 0.126665
H6    H     H_    0.069039 0.435721 0.285636 0.078909
H7    H     H_    0.074854 0.313387 0.404341 0.185563
H8    H     H_    0.086144 0.700614 0.529709 0.086806
H9    H     H_    0.077291 0.651310 0.352986 0.144729
H10   H     H_    0.944737 0.690875 0.566915 0.118115
H11   H     H_    0.004747 0.852780 0.384783 0.130514
H12   H     H_    0.070762 0.534584 0.724135 0.129251
H13   H     H_    0.897452 0.861979 0.449466 0.165129
H14   H     H_    0.843375 0.872426 0.215633 0.182906
H15   H     H_    0.932319 0.983409 0.229116 0.117914
H16   H     H_    0.944590 0.837167 0.141133 0.152029
H17   H     H_    0.862605 0.151704 0.345615 0.175070
H18   H     H_    0.803187 0.274343 0.417639 0.144967
H19   H     H_    0.816368 0.186421 0.653192 0.152081
H20   H     H_    0.766978 0.075243 0.534762 0.167117
H21   H     H_    0.876054 0.062190 0.582364 0.173212
H22   H     H_    0.972143 0.545180 0.191810 0.166393
H23   H     H_    0.927454 0.540153 0.723305 0.055399
H24   H     H_    0.856847 0.539207 0.213109 0.201714
H25   H     H_    0.842879 0.392234 0.018412 0.168823
H26   H     H_    0.899550 0.535563 0.968854 0.089422
H27   H     H_    0.956624 0.397251 0.997258 0.192906
H28   H     H_    0.620554 0.126583 0.415865 0.134709
H29   H     H_    0.345373 0.217054 0.592827 0.130475
H30   H     H_    0.221646 0.090773 0.670963 0.165477
H31   H     H_    0.222570 0.861179 0.670688 0.111557
H32   H     H_    0.347156 0.757154 0.593156 0.122221
H33   H     H_    0.388009 0.387442 0.129120 0.124979
N1    N     N_R   0.500800 0.501210 0.147910 -0.246969
N2    N     N_R   0.500820 0.501290 0.852040 -0.242030
O1    O     O_R   0.499990 0.319640 0.618810 -0.503711
O2    O     O_3   0.932572 0.274481 0.470464 -0.536048
O3    O     O_3   0.912789 0.378234 0.264419 -0.580523
O4    O     O_R   0.500000 0.319660 0.381240 -0.497880
O5    O     O_R   0.379430 0.499990 0.618840 -0.514770
O6    O     O_R   0.379440 0.500020 0.381260 -0.507135
O7    O     O_R   0.500000 0.680340 0.618760 -0.435737
O8    O     O_R   0.500010 0.680360 0.381190 -0.507241
O9    O     O_R   0.620560 0.499980 0.618740 -0.463374
O10   O     O_R   0.620570 0.500010 0.381160 -0.521105
O11   O     O_3   0.924055 0.693766 0.356251 -0.593442

loop_
_geom_bond_atom_site_label_1
_geom_bond_atom_site_label_2
_ccdc_geom_bond_type
C26   O3    S    
C1    C8    S    
C24   Cl2   S    
C25   H6    S    
C7    C8    A    
C1    O4    A    
C12   H23   S    
C12   C23   S    
C31   O2    S    
C5    C6    A    
C4    O6    A    
C1    O1    A    
C18   C19   A    
C23   C26   S    
C34   O11   S    
C36   H8    S    
C35   H25   S    
C24   H12   S    
C30   H15   S    
C16   O7    A    
C7    C40   A    
Cu1   O7    S    
C9    C10   A    
C33   H24   S    
C35   H26   S    
C34   H10   S    
C26   O2    S    
C13   C14   A    
C10   Cl1   S    
C31   H17   S    
C9    H28   S    
C21   H5    S    
C13   C19   A    
C31   H18   S    
Cu1   N2    S    
Cu2   O8    S    
C32   H19   S    
C12   H1    S    
Cu1   O1    S    
C6    C11   A    
C13   H2    S    
C8    C9    A    
C14   H3    S    
C4    O5    A    
C25   C26   S    
C23   C37   S    
C25   C28   S    
C17   Cl3   S    
C29   C30   S    
C3    H31   S    
C11   C16   S    
C31   C32   S    
C4    C39   S    
C28   C38   S    
C23   C34   S    
C30   H14   S    
C17   C18   A    
C22   O10   A    
Cu2   N1    S    
C29   H13   S    
C19   N1    A    
Cu2   O10   S    
C33   O3    S    
C35   H27   S    
C22   C27   S    
Cu2   O4    S    
C5    H32   S    
Cu1   O5    S    
C29   O11   S    
Cu1   Cu2   S    
C33   H22   S    
C32   H21   S    
C15   C17   A    
C20   N1    A    
C24   C28   S    
C3    C5    A    
C6    C7    A    
C29   H11   S    
C12   C24   S    
C20   H33   S    
C2    C3    A    
C25   H7    S    
C38   C39   T    
C27   C37   T    
C21   N2    A    
C33   C35   S    
C22   O9    A    
C40   H29   S    
Cu2   O6    S    
C34   C36   S    
C15   H4    S    
C36   H9    S    
C10   C11   A    
Cu1   O9    S    
C2    C40   A    
C20   C21   A    
C28   C36   S    
C18   N2    A    
C30   H16   S    
C16   O8    A    
C14   C15   A    
C2    H30   S    
C32   H20   S    
