data_mof_unit_50630.cif
_audit_creation_date              2012-12-11T17:01:07-0500
_audit_creation_method            fapswitch 2.2
_symmetry_space_group_name_H-M    P1
_symmetry_Int_Tables_number       1
_space_group_crystal_system       triclinic
_cell_length_a                    15.083409
_cell_length_b                    15.046638
_cell_length_c                    14.890633
_cell_angle_alpha                 109.817238
_cell_angle_beta                  108.587174
_cell_angle_gamma                 109.81536
_cell_volume                      2607.44574679

loop_
_atom_site_label
_atom_site_type_symbol
_atom_type_description
_atom_site_fract_x
_atom_site_fract_y
_atom_site_fract_z
_atom_type_partial_charge
C1    C     C_R   0.965576 0.779577 0.059652 -0.116088
C2    C     C_R   0.221950 0.747595 0.314286 -0.150073
C3    C     C_R   0.911158 0.414758 0.216414 0.593392
C4    C     C_R   0.791724 0.199459 0.697669 0.583908
C5    C     C_R   0.294833 0.587932 0.987554 -0.153600
C6    C     C_R   0.934093 0.508201 0.304684 -0.036620
C7    C     C_R   0.294814 0.495557 0.924274 0.089466
C8    C     C_R   0.322069 0.768795 0.321665 0.056694
C9    C     C_R   0.932255 0.132970 0.933139 0.026864
C10   C     C_3   0.476928 0.398620 0.832624 -0.662362
C11   C     C_3   0.369389 0.397095 0.817274 0.577049
C12   C     C_R   0.694831 0.138000 0.688552 -0.070744
C13   C     C_3   0.555887 0.494001 0.037211 -0.434440
C14   C     C_3   0.571139 0.603907 0.935449 0.562235
C15   C     C_3   0.573523 0.502023 0.942828 0.164586
C16   C     C_R   0.034488 0.593122 0.778885 -0.074487
C17   C     C_3   0.391878 0.495221 0.922404 0.156769
C18   C     C_3   0.454109 0.497040 0.029055 -0.394455
C19   C     C_3   0.465233 0.601421 0.927944 -0.671151
C20   C     C_R   0.611177 0.982058 0.499548 0.015408
C21   C     C_R   0.614572 0.025382 0.601468 0.031447
C22   C     C_R   0.533196 0.959711 0.614999 -0.156026
C23   C     C_R   0.962698 0.505238 0.675766 0.164915
C24   C     C_R   0.439848 0.865377 0.523753 -0.203213
C25   C     C_R   0.427617 0.836928 0.418883 0.046845
C26   C     C_R   0.517189 0.891993 0.409970 -0.063225
C27   C     C_3   0.529462 0.934766 0.333959 0.793672
C28   C     C_R   0.686082 0.409149 0.939298 -0.148128
C29   C     C_3   0.636480 0.032160 0.431545 0.363421
C30   C     C_R   0.965188 0.617576 0.488975 -0.055808
C31   C     C_R   0.900846 0.520341 0.388341 -0.171028
C32   C     C_R   0.817430 0.432138 0.380049 0.472992
C33   C     C_R   0.830805 0.428003 0.477425 0.343301
C34   C     C_R   0.675573 0.501902 0.961327 0.080816
C35   C     C_R   0.922568 0.515222 0.578453 -0.102483
C36   C     C_R   0.978471 0.613798 0.582699 -0.168245
C37   C     C_3   0.094512 0.705809 0.647903 0.977051
C38   C     C_3   0.078077 0.711679 0.543275 0.316297
C39   C     C_R   0.900000 0.921999 0.005429 0.194907
C40   C     C_R   0.942053 0.411783 0.684477 -0.124825
C41   C     C_R   0.953665 0.880278 0.959444 -0.083760
C42   C     C_R   0.954148 0.886033 0.867443 -0.246740
C43   C     C_R   0.923708 0.954788 0.839618 0.498546
C44   C     C_R   0.900450 0.021993 0.909983 -0.159262
C45   C     C_R   0.992083 0.594376 0.296824 -0.271971
C46   C     C_R   0.873960 0.992725 0.981609 0.215099
C47   C     C_3   0.904189 0.061448 0.098423 -0.393833
C48   C     C_3   0.931707 0.982638 0.123286 -0.597895
C49   C     C_R   0.776867 0.591791 0.038982 -0.109998
C50   C     C_R   0.697370 0.198166 0.785239 -0.236614
C51   C     C_R   0.059889 0.783626 0.970649 -0.155174
C52   C     C_R   0.997688 0.822998 0.000599 0.122953
C53   C     C_3   0.923453 0.295144 0.271867 -0.151258
C54   C     C_3   0.924685 0.174571 0.666154 -0.181500
C55   C     C_3   0.298952 0.228275 0.818863 -0.272215
C56   C     C_R   0.206868 0.406867 0.903337 -0.142291
C57   C     C_3   0.678121 0.765983 0.114080 -0.215578
C58   C     C_3   0.435955 0.035182 0.357131 -0.359001
C59   C     C_3   0.758686 0.090903 0.373376 -0.121541
C60   C     C_3   0.669674 0.378884 0.224739 -0.174783
C61   C     C_3   0.213432 0.878896 0.804568 -0.143730
C62   C     C_3   0.177127 0.595409 0.613427 -0.409670
C63   C     C_3   0.165544 0.880923 0.557470 -0.186592
C64   C     C_R   0.308755 0.735850 0.217995 -0.021412
C65   C     C_R   0.897768 0.194422 0.987389 0.502045
C66   C     C_R   0.001532 0.197691 0.910110 -0.288408
H1    H     H_    0.925160 0.800680 0.103799 0.113037
H2    H     H_    0.547784 0.416239 0.033314 0.159439
H3    H     H_    0.402707 0.428548 0.034942 0.162024
H4    H     H_    0.564036 0.589422 0.854375 0.054580
H5    H     H_    0.421804 0.604322 0.853820 0.156200
H6    H     H_    0.482549 0.674757 0.997105 0.209258
H7    H     H_    0.626639 0.559873 0.118640 0.166715
H8    H     H_    0.476971 0.572394 0.101668 0.182469
H9    H     H_    0.536526 0.985599 0.693763 0.135109
H10   H     H_    0.069281 0.676633 0.801395 0.149717
H11   H     H_    0.373683 0.822159 0.534293 0.119985
H12   H     H_    0.177467 0.321383 0.855323 0.157626
H13   H     H_    0.643946 0.114328 0.460632 0.037468
H14   H     H_    0.623765 0.324442 0.890826 0.101670
H15   H     H_    0.127211 0.691166 0.506822 -0.014853
H16   H     H_    0.981577 0.841335 0.820228 0.206718
H17   H     H_    0.976645 0.143493 0.141096 0.170993
H18   H     H_    0.832757 0.059445 0.106099 0.226875
H19   H     H_    0.019234 0.018982 0.179403 0.203620
H20   H     H_    0.875981 0.936237 0.145082 0.215452
H21   H     H_    0.891339 0.329648 0.617673 0.197798
H22   H     H_    0.797810 0.672926 0.091345 0.148871
H23   H     H_    0.366806 0.732304 0.192312 0.149972
H24   H     H_    0.641822 0.169053 0.813301 0.133420
H25   H     H_    0.110079 0.814626 0.938581 0.115173
H26   H     H_    0.007975 0.676750 0.339398 0.178375
H27   H     H_    0.777196 0.205245 0.996423 0.340078
H28   H     H_    0.949639 0.353818 0.357199 0.092580
H29   H     H_    0.996110 0.303059 0.263734 0.094346
H30   H     H_    0.877424 0.212670 0.258808 0.157645
H31   H     H_    0.916738 0.110630 0.687936 0.156555
H32   H     H_    0.989740 0.255947 0.735118 0.118553
H33   H     H_    0.948695 0.156983 0.601934 0.188822
H34   H     H_    0.038402 0.173253 0.862279 0.160587
H35   H     H_    0.364887 0.275470 0.904497 0.132402
H36   H     H_    0.316369 0.171465 0.766864 0.149958
H37   H     H_    0.224515 0.177328 0.816967 0.171420
H38   H     H_    0.633200 0.714383 0.139700 0.159205
H39   H     H_    0.652818 0.827282 0.114578 0.170430
H40   H     H_    0.764456 0.811500 0.177288 0.141840
H41   H     H_    0.541844 0.892576 0.201829 0.314116
H42   H     H_    0.491991 0.118020 0.377004 0.166515
H43   H     H_    0.447647 0.032042 0.433171 0.135814
H44   H     H_    0.352619 0.020055 0.315384 0.201142
H45   H     H_    0.202647 0.760830 0.379688 0.099587
H46   H     H_    0.805730 0.178995 0.435535 0.167340
H47   H     H_    0.689986 0.074986 0.300931 0.107356
H48   H     H_    0.812697 0.070065 0.345752 0.132975
H49   H     H_    0.713499 0.430537 0.197746 0.136376
H50   H     H_    0.642535 0.423108 0.276420 0.117919
H51   H     H_    0.596244 0.305959 0.150103 0.152194
H52   H     H_    0.698661 0.287070 0.400180 0.344143
H53   H     H_    0.263117 0.892539 0.764143 0.122294
H54   H     H_    0.248602 0.856978 0.865739 0.150482
H55   H     H_    0.217042 0.957013 0.849203 0.144449
H56   H     H_    0.346680 0.671778 0.013068 0.122793
H57   H     H_    0.232403 0.634067 0.586691 0.165247
H58   H     H_    0.097033 0.529447 0.541781 0.130847
H59   H     H_    0.212298 0.556159 0.653215 0.204732
H60   H     H_    0.148608 0.868864 0.474864 0.128149
H61   H     H_    0.239422 0.876517 0.595636 0.081674
H62   H     H_    0.183305 0.964688 0.608553 0.170559
H63   H     H_    0.869041 0.979428 0.721740 0.313219
H64   H     H_    0.473928 0.323578 0.829766 0.196663
H65   H     H_    0.489114 0.399461 0.762927 0.153331
H66   H     H_    0.345397 0.416835 0.750902 0.038538
N1    N     N_R   0.995640 0.706130 0.053910 -0.044409
N2    N     N_R   0.054010 0.556790 0.847890 -0.052910
N3    N     N_R   0.789940 0.443190 0.997130 -0.046985
N4    N     N_R   0.997630 0.443170 0.791110 -0.061277
N5    N     N_R   0.846320 0.556810 0.053910 -0.050937
N6    N     N_R   0.791080 0.293860 0.847890 -0.068664
N7    N     N_R   0.052880 0.706130 0.997130 -0.041070
N8    N     N_R   0.002370 0.556830 0.208890 -0.072271
N9    N     N_R   0.153680 0.443190 0.946090 -0.049988
N10   N     N_R   0.208920 0.706140 0.152110 -0.046497
N11   N     N_R   0.947120 0.293870 0.002870 -0.108878
N12   N     N_R   0.004360 0.293870 0.946090 -0.071009
N13   N     N_R   0.151690 0.706140 0.208890 -0.041196
N14   N     N_R   0.945990 0.443210 0.152110 -0.115706
N15   N     N_R   0.210060 0.556810 0.002870 -0.049597
N16   N     N_R   0.848310 0.293860 0.791110 -0.098785
Ni1   Ni    Ni4+2 0.999010 0.630300 0.130220 0.200263
Ni2   Ni    Ni4+2 0.000990 0.369700 0.869780 0.199276
Ni3   Ni    Ni4+2 0.130280 0.630280 0.000000 0.236598
Ni4   Ni    Ni4+2 0.869720 0.369720 0.000000 0.215453
O1    O     O_3   0.800040 0.149799 0.984498 -0.753517
O2    O     O_3   0.759048 0.340239 0.475803 -0.785528
O3    O     O_3   0.104138 0.797885 0.729204 -0.630656
O4    O     O_3   0.171926 0.675884 0.691910 -0.663478
O5    O     O_3   0.072750 0.805847 0.550109 -0.555902
O6    O     O_3   0.923567 0.958956 0.748903 -0.732233
O7    O     O_3   0.856136 0.308852 0.193175 -0.589399
O8    O     O_3   0.824644 0.169086 0.621596 -0.639849
O9    O     O_3   0.278820 0.293042 0.773984 -0.629817
O10   O     O_3   0.667409 0.707720 0.010337 -0.639938
O11   O     O_3   0.544114 0.866697 0.255125 -0.778127
O12   O     O_3   0.446678 0.955883 0.283761 -0.643920
O13   O     O_3   0.724720 0.027464 0.419814 -0.538840
O14   O     O_3   0.732976 0.343786 0.279459 -0.591248

loop_
_geom_bond_atom_site_label_1
_geom_bond_atom_site_label_2
_ccdc_geom_bond_type
C57   H39   S    
C5    N15   A    
C6    C45   A    
C49   N5    A    
C53   H29   S    
C28   N3    A    
C41   C42   A    
C37   O3    S    
C19   H5    S    
C35   C36   A    
C49   H22   S    
C43   O6    S    
C16   N2    A    
C11   H66   S    
C62   H58   S    
C39   C41   A    
C2    N13   A    
C40   N4    A    
C55   H36   S    
C26   C27   S    
C20   C26   A    
C13   C18   S    
C63   H61   S    
C7    C56   A    
C40   H21   S    
C36   C37   S    
N16   Ni2   S    
C32   O14   S    
C10   C15   S    
C30   C31   A    
C65   N11   A    
C61   H53   S    
C29   O13   S    
C23   C40   A    
C58   H43   S    
C55   H37   S    
C11   O9    S    
C56   H12   S    
C27   C29   S    
C30   C38   S    
C61   H55   S    
C66   H34   S    
C45   H26   S    
C9    C66   A    
H63   O6    S    
C65   O1    S    
C51   H25   S    
C10   H65   S    
C50   H24   S    
C57   O10   S    
C47   C48   S    
N6    N16   A    
C7    C17   S    
C42   H16   S    
N12   Ni2   S    
C54   H31   S    
C47   H17   S    
C4    C12   A    
C15   C34   S    
C58   H42   S    
C63   H62   S    
C59   O13   S    
C27   O11   S    
C3    C6    A    
C18   H3    S    
C6    C31   S    
C58   O12   S    
C18   H8    S    
C58   H44   S    
C21   C22   A    
C61   H54   S    
C3    O7    S    
C8    C25   S    
C14   H4    S    
C37   O4    S    
N5    Ni1   S    
C19   H6    S    
C64   H23   S    
C1    N1    A    
C61   O3    S    
C62   H57   S    
C44   C46   A    
N9    Ni2   S    
C59   H46   S    
C20   C29   S    
C2    H45   S    
C53   O7    S    
N10   N13   A    
C51   C52   A    
N1    Ni1   S    
C24   C25   A    
C55   O9    S    
N8    N14   A    
C5    C7    A    
C33   O2    S    
C17   C19   S    
N2    N4    A    
N6    Ni4   S    
C25   C26   A    
C54   O8    S    
C5    H56   S    
C45   N8    A    
C60   O14   S    
N10   Ni3   S    
C14   O10   S    
N15   Ni3   S    
C43   C44   A    
C10   H64   S    
C37   C38   S    
C27   O12   S    
N4    Ni2   S    
C31   C32   A    
C29   H13   S    
C59   H47   S    
C14   C15   S    
C17   C18   S    
C60   H51   S    
C47   H18   S    
C9    C44   S    
C8    C64   A    
C39   C46   A    
N14   Ni4   S    
C56   N9    A    
N11   Ni4   S    
C13   H7    S    
N1    N7    A    
C16   C23   A    
C23   C35   S    
C13   C15   S    
C38   H15   S    
C22   C24   A    
C54   H33   S    
C60   H50   S    
C42   C43   A    
C63   O5    S    
C22   H9    S    
C57   H40   S    
N3    N5    A    
C57   H38   S    
C46   C47   S    
C11   C17   S    
C34   C49   A    
C41   C52   S    
C53   H28   S    
C16   H10   S    
C14   C19   S    
C2    C8    A    
C38   O5    S    
H41   O11   S    
C62   H59   S    
C12   C50   A    
C50   N6    A    
C1    H1    S    
C55   H35   S    
C30   C36   A    
C32   C33   A    
H27   O1    S    
C4    O8    S    
C64   N10   A    
C59   H48   S    
N2    Ni3   S    
C12   C21   S    
N7    Ni3   S    
C33   C35   A    
C62   O4    S    
H52   O2    S    
C48   H20   S    
C28   H14   S    
C1    C52   A    
C9    C65   A    
C63   H60   S    
C10   C11   S    
N9    N15   A    
C28   C34   A    
C24   H11   S    
C66   N12   A    
C20   C21   A    
C3    N14   A    
C48   H19   S    
C54   H32   S    
C60   H49   S    
N3    Ni4   S    
N8    Ni1   S    
N13   Ni1   S    
N11   N12   A    
C51   N7    A    
C39   C48   S    
C53   H30   S    
C13   H2    S    
C4    N16   A    
