data_mof_unit_10541.cif
_audit_creation_date              2013-03-05T15:40:53-0500
_audit_creation_method            fapswitch 2.2
_symmetry_space_group_name_H-M    P1
_symmetry_Int_Tables_number       1
_space_group_crystal_system       triclinic
_cell_length_a                    16.860308
_cell_length_b                    16.727889
_cell_length_c                    16.920876
_cell_angle_alpha                 66.054758
_cell_angle_beta                  66.373537
_cell_angle_gamma                 66.133396
_cell_volume                      3825.52716712

loop_
_atom_site_label
_atom_site_type_symbol
_atom_site_description
_atom_site_fract_x
_atom_site_fract_y
_atom_site_fract_z
_atom_type_partial_charge
O1    O     O_R   0.982940 0.138950 0.510160 -0.590910
O2    O     O_R   0.017060 0.861050 0.489840 -0.626072
O3    O     O_R   0.138950 0.510160 0.982940 -0.590635
O4    O     O_R   0.861050 0.489840 0.017060 -0.609653
O5    O     O_R   0.510160 0.982940 0.138950 -0.595071
O6    O     O_R   0.489840 0.017060 0.861050 -0.609749
O7    O     O_R   0.489840 0.861050 0.017060 -0.587812
O8    O     O_R   0.510160 0.138950 0.982940 -0.620254
O9    O     O_R   0.017060 0.489840 0.861050 -0.588229
O10   O     O_R   0.982940 0.510160 0.138950 -0.620087
O11   O     O_R   0.861050 0.017060 0.489840 -0.633472
O12   O     O_R   0.138950 0.982940 0.510160 -0.617013
O13   O     O_R   0.867700 0.025880 0.612340 -0.564231
O14   O     O_R   0.132300 0.974120 0.387660 -0.542166
O15   O     O_R   0.025880 0.612340 0.867700 -0.573657
O16   O     O_R   0.974120 0.387660 0.132300 -0.571013
O17   O     O_R   0.612340 0.867700 0.025880 -0.575916
O18   O     O_R   0.387660 0.132300 0.974120 -0.567083
O19   O     O_R   0.387660 0.974120 0.132300 -0.566620
O20   O     O_R   0.612340 0.025880 0.867700 -0.576150
O21   O     O_R   0.132300 0.387660 0.974120 -0.566308
O22   O     O_R   0.867700 0.612340 0.025880 -0.575243
O23   O     O_R   0.974120 0.132300 0.387660 -0.565815
O24   O     O_R   0.025880 0.867700 0.612340 -0.566443
C1    C     C_R   0.443601 0.956324 0.687407 -0.252266
C2    C     C_R   0.594468 0.945549 0.338923 -0.211049
C3    C     C_R   0.081544 0.650505 0.396154 -0.258111
C4    C     C_R   0.948060 0.345062 0.594367 -0.214695
C5    C     C_R   0.677296 0.437546 0.974392 -0.250762
C6    C     C_R   0.329810 0.601855 0.957408 -0.196631
C7    C     C_R   0.320709 0.017152 0.574226 -0.244527
C8    C     C_R   0.668060 0.034405 0.405615 -0.261976
C9    C     C_R   0.558735 0.318615 0.033891 -0.251644
C10   C     C_R   0.397893 0.668905 0.050824 -0.200792
C11   C     C_R   0.081169 0.532720 0.304507 -0.250321
C12   C     C_R   0.034794 0.406626 0.670661 -0.199994
C13   C     C_R   0.961174 0.179673 0.438428 0.949255
C14   C     C_R   0.040161 0.820447 0.561137 0.931207
C15   C     C_R   0.179207 0.439213 0.959949 0.979267
C16   C     C_R   0.821994 0.568133 0.024494 0.970601
C17   C     C_R   0.434799 0.969095 0.178464 0.978617
C18   C     C_R   0.568430 0.022771 0.822890 0.972008
C19   C     C_R   0.560344 0.820830 0.041361 0.966412
C20   C     C_R   0.431785 0.177577 0.976491 0.966518
C21   C     C_R   0.037671 0.562667 0.820504 0.950600
C22   C     C_R   0.978749 0.430627 0.176730 0.984256
C23   C     C_R   0.820791 0.037568 0.561921 0.917195
C24   C     C_R   0.172501 0.989103 0.428914 0.962818
Zn1   Zn    Zn3+2 0.004880 0.004880 0.583590 1.227158
Zn2   Zn    Zn3+2 0.995120 0.995120 0.416410 1.208205
Zn3   Zn    Zn3+2 0.004880 0.583590 0.004880 1.211011
Zn4   Zn    Zn3+2 0.995120 0.416410 0.995120 1.236518
Zn5   Zn    Zn3+2 0.583590 0.004880 0.004880 1.211899
Zn6   Zn    Zn3+2 0.416410 0.995120 0.995120 1.237311
H1    H     H_    0.386292 0.929078 0.724410 0.201252
H2    H     H_    0.667479 0.928864 0.314485 0.190340
H3    H     H_    0.094130 0.678198 0.324003 0.191930
H4    H     H_    0.926308 0.327057 0.667198 0.197364
H5    H     H_    0.712547 0.379000 0.948457 0.202037
H6    H     H_    0.304468 0.675200 0.945266 0.195102
H7    H     H_    0.287412 0.037287 0.635682 0.201331
H8    H     H_    0.691982 0.046720 0.333223 0.205796
H9    H     H_    0.616751 0.282193 0.060246 0.202695
H10   H     H_    0.325283 0.694971 0.062575 0.193152
H11   H     H_    0.124589 0.576415 0.264250 0.191247
H12   H     H_    0.034806 0.335962 0.702166 0.200954
C25   C     C_R   0.500888 0.948684 0.733191 0.350261
C26   C     C_R   0.547690 0.922331 0.302487 0.349497
C27   C     C_R   0.094544 0.697237 0.440707 0.320368
C28   C     C_R   0.922913 0.305239 0.552580 0.347898
C29   C     C_R   0.725037 0.495213 0.962997 0.351349
C30   C     C_R   0.294941 0.559285 0.927310 0.360929
C31   C     C_R   0.269487 0.035607 0.517632 0.355220
C32   C     C_R   0.703560 0.065855 0.446169 0.325866
C33   C     C_R   0.501504 0.271282 0.043850 0.352352
C34   C     C_R   0.440710 0.703763 0.080476 0.345942
C35   C     C_R   0.071929 0.481337 0.262356 0.354661
C36   C     C_R   0.066531 0.444502 0.708028 0.358553
C37   C     C_R   0.554056 0.999499 0.546388 0.052152
C38   C     C_R   0.457170 0.981588 0.455735 0.048552
C39   C     C_R   0.043655 0.535065 0.536639 0.043198
C40   C     C_R   0.008255 0.444734 0.449757 0.052417
C41   C     C_R   0.537662 0.551562 0.016616 0.047431
C42   C     C_R   0.445696 0.460298 0.992022 0.045989
C43   C     C_R   0.592619 0.001364 0.455080 0.022273
C44   C     C_R   0.415209 0.990918 0.543350 0.022116
C45   C     C_R   0.019933 0.452644 0.585495 0.013330
C46   C     C_R   0.046333 0.518356 0.398232 0.025896
C47   C     C_R   0.446029 0.592833 0.017910 0.022477
C48   C     C_R   0.531469 0.414165 0.006546 0.021515
C49   C     C_R   0.549093 0.977549 0.414927 0.023823
C50   C     C_R   0.468934 0.984058 0.593053 0.022961
C51   C     C_R   0.405277 0.552553 0.990794 0.021957
C52   C     C_R   0.582713 0.465240 0.002176 0.022266
C53   C     C_R   0.992487 0.413375 0.544036 0.027906
C54   C     C_R   0.055618 0.569376 0.442739 0.033656
C55   C     C_R   0.569249 0.994605 0.686187 -0.053782
C56   C     C_R   0.451180 0.953258 0.327261 -0.031875
C57   C     C_R   0.072993 0.668007 0.536519 -0.054775
C58   C     C_R   0.950084 0.327361 0.457097 -0.029111
C59   C     C_R   0.680477 0.565547 0.006700 -0.041900
C60   C     C_R   0.323422 0.462147 0.947937 -0.016379
C61   C     C_R   0.311548 0.003525 0.439836 -0.046781
C62   C     C_R   0.676318 0.045930 0.542060 -0.055412
C63   C     C_R   0.432013 0.317552 0.999437 -0.039805
C64   C     C_R   0.537143 0.674389 0.059672 -0.028664
C65   C     C_R   0.013463 0.424750 0.311489 -0.051128
C66   C     C_R   0.060628 0.539190 0.672531 -0.032021
C67   C     C_R   0.606154 0.025046 0.728355 -0.204159
C68   C     C_R   0.397145 0.966945 0.272479 -0.143315
C69   C     C_R   0.069331 0.719687 0.588561 -0.177554
C70   C     C_R   0.940396 0.279552 0.409359 -0.146841
C71   C     C_R   0.725677 0.604424 0.031738 -0.203428
C72   C     C_R   0.277691 0.411161 0.939711 -0.145565
C73   C     C_R   0.263095 0.998541 0.390259 -0.175473
C74   C     C_R   0.722399 0.055942 0.591124 -0.155284
C75   C     C_R   0.394690 0.273513 0.971566 -0.184356
C76   C     C_R   0.588314 0.721338 0.065009 -0.144091
C77   C     C_R   0.977330 0.391839 0.270782 -0.192089
C78   C     C_R   0.063324 0.591026 0.721226 -0.177395
C79   C     C_R   0.678273 0.062090 0.677932 0.211222
C80   C     C_R   0.303244 0.997590 0.302457 0.237730
C81   C     C_R   0.078136 0.676557 0.675328 0.216006
C82   C     C_R   0.935307 0.323283 0.322381 0.210643
C83   C     C_R   0.676481 0.677177 0.068460 0.206241
C84   C     C_R   0.322630 0.323343 0.934410 0.209268
C85   C     C_R   0.599636 0.014035 0.591411 0.000377
C86   C     C_R   0.406642 0.978758 0.407884 0.009882
C87   C     C_R   0.058128 0.581346 0.582082 -0.001556
C88   C     C_R   0.989259 0.400025 0.406346 0.013072
C89   C     C_R   0.584955 0.596461 0.029059 0.014501
C90   C     C_R   0.400832 0.413517 0.978764 0.012904
N1    N     N_R   0.703268 0.111559 0.712307 0.251473
O25   O     O_R   0.762070 0.068829 0.758372 -0.290882
O26   O     O_R   0.652097 0.193432 0.715804 -0.293107
N2    N     N_R   0.247610 0.041013 0.241473 0.217721
O27   O     O_R   0.212501 0.129296 0.220135 -0.336102
O28   O     O_R   0.221168 0.992323 0.218643 -0.252242
N3    N     N_R   0.108379 0.718346 0.713346 0.259685
O29   O     O_R   0.050054 0.764186 0.769722 -0.302547
O30   O     O_R   0.185914 0.735570 0.670168 -0.285481
N4    N     N_R   0.883551 0.300761 0.288682 0.245503
O31   O     O_R   0.802722 0.354221 0.285669 -0.301170
O32   O     O_R   0.922734 0.240673 0.244104 -0.272093
N5    N     N_R   0.714057 0.704012 0.113275 0.250579
O33   O     O_R   0.760310 0.762875 0.067660 -0.295011
O34   O     O_R   0.718841 0.654984 0.194596 -0.290972
N6    N     N_R   0.299173 0.287581 0.885159 0.245472
O35   O     O_R   0.239262 0.242685 0.926254 -0.269788
O36   O     O_R   0.352808 0.280831 0.806027 -0.306414
N7    N     N_R   0.500047 0.881265 0.819638 0.218639
O37   O     O_R   0.426416 0.858855 0.872288 -0.388582
O38   O     O_R   0.575931 0.832037 0.839436 -0.418168
N8    N     N_R   0.598318 0.858631 0.250360 0.221877
O39   O     O_R   0.683275 0.851262 0.207051 -0.311246
O40   O     O_R   0.563159 0.799405 0.256063 -0.348449
N9    N     N_R   0.143170 0.764178 0.386666 0.233279
O41   O     O_R   0.206104 0.766039 0.411374 -0.335525
O42   O     O_R   0.132785 0.815697 0.307571 -0.311250
N10   N     N_R   0.861349 0.251040 0.607642 0.224148
O43   O     O_R   0.860409 0.205571 0.691117 -0.308473
O44   O     O_R   0.798783 0.255860 0.578010 -0.339409
N11   N     N_R   0.809761 0.493361 0.893518 0.220545
O45   O     O_R   0.861602 0.417944 0.873094 -0.383737
O46   O     O_R   0.829051 0.569512 0.842058 -0.411845
N12   N     N_R   0.240398 0.615518 0.866483 0.221355
O47   O     O_R   0.192632 0.698810 0.867903 -0.317109
O48   O     O_R   0.247171 0.587223 0.802244 -0.358922
N13   N     N_R   0.181985 0.102138 0.529654 0.218787
O49   O     O_R   0.131596 0.108346 0.609890 -0.370980
O50   O     O_R   0.158493 0.165229 0.459733 -0.397331
N14   N     N_R   0.756165 0.128647 0.388745 0.234558
O51   O     O_R   0.803029 0.126107 0.306730 -0.326954
O52   O     O_R   0.748400 0.195641 0.414429 -0.323399
N15   N     N_R   0.502457 0.185280 0.112920 0.218904
O53   O     O_R   0.576480 0.132172 0.135052 -0.386540
O54   O     O_R   0.426413 0.167124 0.163554 -0.394623
N16   N     N_R   0.385221 0.761342 0.138720 0.219950
O55   O     O_R   0.304080 0.811852 0.133523 -0.304019
O56   O     O_R   0.411832 0.756352 0.203378 -0.341095
N17   N     N_R   0.133875 0.475602 0.175567 0.209044
O57   O     O_R   0.165049 0.544179 0.119994 -0.410366
O58   O     O_R   0.172589 0.396641 0.159607 -0.393324
N18   N     N_R   0.122310 0.382920 0.766714 0.228666
O59   O     O_R   0.110506 0.303395 0.817169 -0.315837
O60   O     O_R   0.191617 0.402335 0.762149 -0.340794

loop_
_geom_bond_atom_site_label_1
_geom_bond_atom_site_label_2
_geom_bond_distance
_ccdc_geom_bond_type
C46   C54   1.429821 A    
O9    C21   1.244432 A    
N9    O41   1.301739 A    
C56   C68   1.441362 A    
O17   Zn5   2.050141 S    
C59   C71   1.437586 A    
N13   O49   1.301663 A    
C7    H7    1.083200 S    
O11   C23   1.246456 A    
N11   O45   1.301712 A    
C1    C25   1.403184 A    
O12   C24   1.236688 A    
C82   N4    1.437988 S    
C4    H4    1.081560 S    
O12   Zn1   2.058098 S    
C43   C49   1.419437 A    
N15   O54   1.301364 A    
O14   Zn2   2.070971 S    
C77   C82   1.388660 A    
O20   C18   1.280166 A    
C6    C30   1.408985 A    
C29   N11   1.439199 S    
O4    Zn4   2.051083 S    
C4    C53   1.408385 A    
O5    Zn5   2.062656 S    
N11   O46   1.301744 A    
C18   C67   1.455823 S    
C60   C90   1.406897 A    
C70   C82   1.372962 A    
C6    C51   1.402531 A    
C34   N16   1.441010 S    
C8    C32   1.408200 A    
C5    C52   1.398844 A    
C72   C84   1.375469 A    
C12   H12   1.081585 S    
C7    C31   1.401906 A    
C71   C83   1.392498 A    
C11   H11   1.078591 S    
C81   N3    1.441848 S    
N18   O59   1.301659 A    
C36   C66   1.423943 A    
C66   C78   1.440388 A    
C13   C70   1.467486 S    
C38   C44   1.407313 A    
O2    Zn2   2.036056 S    
C34   C64   1.429692 A    
C62   C74   1.433913 A    
C9    C33   1.402147 A    
O4    C16   1.238614 A    
C28   C58   1.419772 A    
C6    H6    1.082406 S    
O10   C22   1.238222 A    
C32   C62   1.429080 A    
O24   C14   1.291552 A    
N7    O37   1.301686 A    
C76   C83   1.380145 A    
O7    C19   1.246922 A    
C40   C88   1.424718 A    
C75   C84   1.390530 A    
C58   C88   1.413841 A    
N8    O40   1.301546 A    
C3    C27   1.406013 A    
C78   C81   1.394379 A    
C55   C85   1.411740 A    
C56   C86   1.413839 A    
C29   C59   1.428688 A    
O22   C16   1.277074 A    
N9    O42   1.301552 A    
C73   C80   1.367509 A    
C64   C76   1.427464 A    
N12   O48   1.301147 A    
N13   O50   1.301633 A    
C63   C75   1.433910 A    
C3    C54   1.410580 A    
C64   C89   1.407308 A    
O9    Zn4   2.055532 S    
C42   C48   1.405396 A    
O6    Zn6   2.062656 S    
C65   C88   1.409444 A    
O10   Zn3   2.055532 S    
C65   C77   1.436753 A    
N5    O34   1.300745 A    
N14   O52   1.301124 A    
C48   C52   1.405967 A    
C63   C90   1.408679 A    
N17   O58   1.301610 A    
C12   C45   1.401770 A    
C23   C74   1.464331 S    
C41   C47   1.409258 A    
C74   C79   1.380739 A    
C57   C87   1.410901 A    
C69   C81   1.387909 A    
C1    H1    1.083141 S    
C35   C65   1.420663 A    
N6    O35   1.301864 A    
N2    O28   1.303301 A    
C3    H3    1.078391 S    
O16   C22   1.272361 A    
C35   N17   1.435461 S    
O13   C23   1.293015 A    
C39   C54   1.411089 A    
O3    Zn3   2.051083 S    
O20   Zn5   2.078556 S    
O23   Zn2   2.049936 S    
O14   C24   1.291590 A    
C38   C86   1.414306 A    
C2    C49   1.401626 A    
O23   C13   1.294565 A    
C41   C52   1.404222 A    
C25   N7    1.438400 S    
C11   C35   1.402429 A    
C45   C53   1.420568 A    
N10   O44   1.301158 A    
N17   O57   1.301003 A    
C61   C73   1.428024 A    
O17   C19   1.287372 A    
C41   C89   1.411318 A    
C60   C72   1.433817 A    
O18   C20   1.278006 A    
C55   C67   1.436243 A    
C11   C46   1.405732 A    
O2    C14   1.251347 A    
C39   C87   1.427117 A    
C16   C71   1.457344 S    
O21   C15   1.287910 A    
C9    H9    1.083389 S    
C15   C72   1.462451 S    
C57   C69   1.434500 A    
C10   H10   1.082460 S    
N8    O39   1.301186 A    
C61   C86   1.408566 A    
C80   N2    1.445128 S    
C66   C87   1.411726 A    
C39   C45   1.414323 A    
C27   N9    1.439825 S    
C24   C73   1.447882 S    
O13   Zn1   2.070971 S    
C59   C89   1.414504 A    
C21   C78   1.473391 S    
C33   C63   1.427004 A    
O15   Zn3   2.077865 S    
C17   C68   1.448295 S    
N1    O25   1.301952 A    
N4    O32   1.301681 A    
O15   C21   1.282736 A    
C31   N13   1.439130 S    
C27   C57   1.423942 A    
N5    O33   1.302092 A    
C37   C43   1.408152 A    
N14   O51   1.301460 A    
O19   Zn6   2.078556 S    
C37   C50   1.405701 A    
O24   Zn1   2.049938 S    
C33   N15   1.437835 S    
O5    C17   1.243636 A    
C1    C50   1.399707 A    
C84   N6    1.438445 S    
C40   C53   1.408682 A    
C30   N12   1.436199 S    
C4    C28   1.405230 A    
O16   Zn4   2.077865 S    
N6    O36   1.301131 A    
N2    O27   1.301066 A    
C2    H2    1.082523 S    
O8    Zn5   2.036181 S    
N16   O56   1.301660 A    
N3    O29   1.302555 A    
C58   C70   1.433399 A    
O1    C13   1.247210 A    
C26   N8    1.437165 S    
N18   O60   1.300500 A    
O18   Zn6   2.050143 S    
C2    C26   1.408905 A    
N10   O43   1.301375 A    
C38   C49   1.406668 A    
C10   C47   1.401931 A    
C37   C85   1.414558 A    
N15   O53   1.301711 A    
C44   C50   1.410376 A    
C9    C48   1.398465 A    
C68   C80   1.391843 A    
N3    O30   1.301592 A    
C67   C79   1.392651 A    
N12   O47   1.301569 A    
C62   C85   1.408799 A    
C30   C60   1.426637 A    
C20   C75   1.447244 S    
C40   C46   1.417242 A    
C8    C43   1.401403 A    
C28   N10   1.438102 S    
C42   C90   1.411529 A    
C22   C77   1.448483 S    
O11   Zn2   2.058098 S    
C36   N18   1.437333 S    
C42   C51   1.407365 A    
N7    O38   1.301662 A    
C47   C51   1.419486 A    
O8    C20   1.242161 A    
C26   C56   1.427996 A    
C25   C55   1.427182 A    
C19   C76   1.458731 S    
C8    H8    1.082580 S    
C31   C61   1.428631 A    
O6    C18   1.244342 A    
C7    C44   1.399004 A    
N1    O26   1.300864 A    
C5    H5    1.083393 S    
N4    O31   1.300776 A    
O22   Zn3   2.070480 S    
C12   C36   1.399380 A    
O7    Zn6   2.036183 S    
C79   N1    1.438775 S    
C14   C69   1.474913 S    
O1    Zn1   2.036056 S    
C32   N14   1.438302 S    
C83   N5    1.438554 S    
O21   Zn4   2.070481 S    
O3    C15   1.237655 A    
O19   C17   1.280302 A    
C10   C34   1.407602 A    
N16   O55   1.301513 A    
C5    C29   1.403067 A    
