data_mof_unit_46208.cif
_audit_creation_date              2012-12-10T18:22:28-0500
_audit_creation_method            fapswitch 2.2
_symmetry_space_group_name_H-M    P1
_symmetry_Int_Tables_number       1
_space_group_crystal_system       triclinic
_cell_length_a                    23.50062
_cell_length_b                    10.644397
_cell_length_c                    9.410579
_cell_angle_alpha                 89.999873
_cell_angle_beta                  90.445927
_cell_angle_gamma                 90.266645
_cell_volume                      2353.95887987

loop_
_atom_site_label
_atom_site_type_symbol
_atom_type_description
_atom_site_fract_x
_atom_site_fract_y
_atom_site_fract_z
_atom_type_partial_charge
C1    C     C_R   0.501097 0.259506 0.499743 0.787302
C2    C     C_R   0.499803 0.740546 0.500172 0.787445
C3    C     C_R   0.245200 0.596264 0.614321 -0.103206
C4    C     C_R   0.757853 0.481413 0.649929 -0.104460
C5    C     C_R   0.303946 0.589688 0.600027 -0.246992
C6    C     C_R   0.699152 0.474953 0.633952 -0.249246
C7    C     C_R   0.328556 0.505934 0.503041 -0.070090
C8    C     C_R   0.672361 0.509214 0.505190 -0.083840
C9    C     C_R   0.293320 0.426115 0.419270 0.046271
C10   C     C_R   0.706330 0.552267 0.389557 0.049057
C11   C     C_R   0.233844 0.437548 0.432184 -0.106651
C12   C     C_R   0.766020 0.554256 0.407856 -0.107811
C13   C     C_R   0.209848 0.520331 0.530466 0.312554
C14   C     C_R   0.791615 0.520062 0.536831 0.316022
C15   C     C_3   0.533736 0.042037 0.608506 -0.188970
C16   C     C_3   0.468467 0.958131 0.390583 -0.201971
C17   C     C_3   0.554666 0.956800 0.486091 -0.211931
C18   C     C_3   0.447473 0.043120 0.513355 -0.222034
C19   C     C_3   0.500228 0.877371 0.500746 -0.040912
C20   C     C_3   0.501827 0.122708 0.498648 -0.042949
C21   C     C_3   0.479558 0.961016 0.622033 0.162116
C22   C     C_3   0.522711 0.039139 0.377162 0.161397
C23   C     C_R   0.391076 0.499884 0.499956 0.784999
C24   C     C_R   0.609221 0.503238 0.500470 0.786152
C25   C     C_3   0.519762 0.605032 0.050935 -0.038474
C26   C     C_3   0.480300 0.394958 0.948999 -0.038279
C27   C     C_3   0.468820 0.589795 0.948757 -0.041534
C28   C     C_3   0.531228 0.410227 0.051168 -0.054106
C29   C     C_3   0.550946 0.515133 0.950553 -0.034862
C30   C     C_3   0.449077 0.484839 0.049203 -0.023807
C31   C     C_R   0.881177 0.634287 0.530281 0.529337
C32   C     C_R   0.120482 0.416403 0.583065 0.529637
C33   C     C_R   0.881266 0.414186 0.580605 0.534259
C34   C     C_R   0.120516 0.634124 0.520896 0.535606
C35   C     C_R   0.940922 0.413681 0.587425 -0.014492
C36   C     C_R   0.060892 0.637662 0.528386 -0.013884
C37   C     C_R   0.970862 0.526000 0.560594 -0.018580
C38   C     C_R   0.030931 0.526282 0.559706 -0.018499
C39   C     C_R   0.940883 0.637572 0.532464 -0.013117
C40   C     C_R   0.060867 0.414711 0.588045 -0.012540
C41   C     C_R   0.971244 0.303231 0.617340 -0.164261
C42   C     C_R   0.030569 0.748894 0.502386 -0.164717
C43   C     C_R   0.030597 0.303896 0.618393 -0.165910
C44   C     C_R   0.971196 0.748986 0.505114 -0.164430
Cu1   Cu    Cu3+1 0.500010 0.499990 0.643150 0.926049
Cu2   Cu    Cu3+1 0.499990 0.500010 0.356850 0.917686
H1    H     H_    0.949254 0.215736 0.639014 0.189663
H2    H     H_    0.052563 0.835992 0.478825 0.188475
H3    H     H_    0.441555 0.663557 0.901007 0.109832
H4    H     H_    0.558515 0.336499 0.098837 0.111602
H5    H     H_    0.536847 0.692857 0.098583 0.104731
H6    H     H_    0.463330 0.306953 0.901486 0.110209
H7    H     H_    0.593679 0.525626 0.903448 0.112979
H8    H     H_    0.405975 0.473868 0.094090 0.108105
H9    H     H_    0.052622 0.216872 0.640808 0.188602
H10   H     H_    0.949165 0.836165 0.483559 0.189569
H11   H     H_    0.227147 0.659825 0.691489 0.156186
H12   H     H_    0.777195 0.455569 0.750528 0.152962
H13   H     H_    0.330498 0.649864 0.665988 0.148277
H14   H     H_    0.674578 0.442727 0.723891 0.157545
H15   H     H_    0.205037 0.381283 0.368482 0.138738
H16   H     H_    0.793968 0.582496 0.323081 0.138175
H17   H     H_    0.598264 0.918470 0.475026 0.133597
H18   H     H_    0.403830 0.081006 0.525278 0.131740
H19   H     H_    0.560292 0.079069 0.697179 0.138291
H20   H     H_    0.441871 0.920329 0.302549 0.142737
N1    N     N_R   0.852601 0.523245 0.551427 -0.463515
N2    N     N_R   0.149057 0.524287 0.546803 -0.462464
N3    N     N_3   0.500040 0.499970 0.858290 -0.151893
N4    N     N_3   0.499960 0.500030 0.141710 -0.151259
O1    O     O_R   0.500030 0.316850 0.620870 -0.583112
O2    O     O_R   0.499970 0.683150 0.379130 -0.584862
O3    O     O_R   0.500000 0.316860 0.379090 -0.590218
O4    O     O_R   0.500000 0.683140 0.620910 -0.591071
O5    O     O_R   0.417890 0.499960 0.620920 -0.574655
O6    O     O_R   0.582110 0.500040 0.379080 -0.590970
O7    O     O_R   0.417870 0.499970 0.379140 -0.583924
O8    O     O_R   0.582130 0.500030 0.620860 -0.580583
O9    O     O_2   0.851876 0.741142 0.506853 -0.543506
O10   O     O_2   0.149725 0.310895 0.613912 -0.547091
O11   O     O_2   0.852197 0.305980 0.600024 -0.539198
O12   O     O_2   0.149608 0.738901 0.485166 -0.543323
C45   C     C_3   0.319633 0.327173 0.323404 -0.396442
C46   C     C_3   0.278102 0.227123 0.265458 -0.350953
C47   C     C_3   0.309410 0.126109 0.182893 -0.842219
H21   H     H_    0.331624 0.169022 0.091014 0.256763
H22   H     H_    0.340703 0.077997 0.253014 0.251478
H23   H     H_    0.278482 0.055281 0.142351 0.257988
H24   H     H_    0.255205 0.181636 0.354866 0.245877
H25   H     H_    0.246765 0.271492 0.192246 0.223744
H26   H     H_    0.339813 0.375383 0.232357 0.203754
H27   H     H_    0.353414 0.277734 0.384811 0.193270
C48   C     C_3   0.679128 0.597645 0.250730 -0.385606
C49   C     C_3   0.719382 0.664894 0.146670 -0.370988
C50   C     C_3   0.687769 0.711249 0.014659 -0.843469
H28   H     H_    0.676548 0.630555 0.945370 0.242475
H29   H     H_    0.648539 0.762272 0.044183 0.250051
H30   H     H_    0.715691 0.775685 0.953573 0.260022
H31   H     H_    0.739468 0.746958 0.200696 0.242887
H32   H     H_    0.753062 0.599530 0.110600 0.220697
H33   H     H_    0.659554 0.515762 0.195301 0.213776
H34   H     H_    0.645081 0.665625 0.277753 0.204727
C51   C     C_3   0.455357 0.912976 0.761885 -0.392412
C52   C     C_3   0.440788 0.020861 0.862073 -0.348340
C53   C     C_3   0.415976 0.970851 0.000229 -0.882855
H35   H     H_    0.371287 0.939762 0.982874 0.264512
H36   H     H_    0.440959 0.890129 0.041012 0.245106
H37   H     H_    0.417252 0.046329 0.081334 0.244807
H38   H     H_    0.479949 0.075371 0.886933 0.217618
H39   H     H_    0.409575 0.085005 0.810840 0.221269
H40   H     H_    0.416675 0.855748 0.739035 0.192660
H41   H     H_    0.487941 0.852853 0.813864 0.206409
C54   C     C_3   0.548380 0.088725 0.239252 -0.387946
C55   C     C_3   0.571511 0.982989 0.146152 -0.360741
C56   C     C_3   0.602164 0.036302 0.016836 -0.856420
H42   H     H_    0.575005 0.105496 0.960419 0.240080
H43   H     H_    0.642271 0.083596 0.050580 0.261462
H44   H     H_    0.612583 0.959294 0.942043 0.244750
H45   H     H_    0.601874 0.924335 0.207934 0.219335
H46   H     H_    0.535872 0.922186 0.109776 0.219424
H47   H     H_    0.514942 0.140408 0.179448 0.200373
H48   H     H_    0.583458 0.154933 0.266983 0.199372

loop_
_geom_bond_atom_site_label_1
_geom_bond_atom_site_label_2
_ccdc_geom_bond_type
C38   C40   A    
C48   C49   S    
Cu1   O1    S    
C18   C21   S    
C27   N3    S    
C36   C42   A    
C50   H28   S    
C22   C54   S    
Cu2   O6    S    
C55   C56   S    
C50   H30   S    
Cu1   Cu2   S    
C31   N1    A    
C45   H27   S    
C30   H8    S    
C1    O1    A    
C46   H25   S    
C28   C29   S    
C35   C37   A    
C52   H38   S    
C56   H42   S    
C15   H19   S    
C18   C20   S    
C51   H40   S    
C33   C35   A    
C28   H4    S    
C40   C43   A    
C54   H48   S    
C56   H43   S    
C14   N1    S    
Cu1   O8    S    
Cu2   O2    S    
C55   H45   S    
C3    C13   A    
C32   N2    A    
C53   H36   S    
C27   C30   S    
C41   C43   A    
C42   C44   A    
C2    O2    A    
C52   C53   S    
C30   N4    S    
C29   N3    S    
C47   H22   S    
C25   C29   S    
C15   C20   S    
C53   H37   S    
C5    H13   S    
Cu1   N3    S    
C6    H14   S    
C46   C47   S    
C4    C6    A    
C48   H33   S    
C5    C7    A    
C24   O6    A    
C6    C8    A    
C10   C48   S    
C11   H15   S    
C47   H21   S    
C51   H41   S    
C25   H5    S    
C37   C38   A    
C26   H6    S    
C32   O10   S    
C12   H16   S    
C44   H10   S    
C45   C46   S    
C49   H32   S    
C56   H44   S    
C41   H1    S    
C16   C18   S    
C42   H2    S    
C23   O7    A    
C9    C11   A    
C10   C12   A    
C9    C45   S    
C3    H11   S    
C43   H9    S    
C12   C14   A    
C26   C30   S    
C16   H20   S    
C46   H24   S    
C34   N2    A    
C23   O5    A    
C33   N1    A    
C54   C55   S    
C47   H23   S    
C24   O8    A    
C15   C17   S    
C1    C20   S    
C16   C22   S    
C19   C21   S    
C2    C19   S    
C28   N4    S    
C20   C22   S    
C3    C5    A    
C2    O4    A    
C48   H34   S    
Cu2   O7    S    
C50   H29   S    
C31   O9    S    
C39   C44   A    
C25   C27   S    
C45   H26   S    
C53   H35   S    
C26   C28   S    
C17   C22   S    
Cu1   O5    S    
C1    O3    A    
C36   C38   A    
C37   C39   A    
C17   H17   S    
C52   H39   S    
C11   C13   A    
C18   H18   S    
C29   H7    S    
C49   H31   S    
C16   C19   S    
C7    C23   S    
C8    C24   S    
C31   C39   A    
C34   C36   A    
C32   C40   A    
C4    C14   A    
C49   C50   S    
C35   C41   A    
Cu2   N4    S    
C21   C51   S    
C17   C19   S    
C7    C9    A    
C15   C21   S    
C54   H47   S    
C8    C10   A    
C4    H12   S    
C51   C52   S    
C26   N3    S    
Cu1   O4    S    
C25   N4    S    
C34   O12   S    
C33   O11   S    
Cu2   O3    S    
C55   H46   S    
C27   H3    S    
C13   N2    S    
