data_mof_unit_24099.cif
_audit_creation_date              2012-12-10T17:17:31-0500
_audit_creation_method            fapswitch 2.2
_symmetry_space_group_name_H-M    P1
_symmetry_Int_Tables_number       1
_space_group_crystal_system       triclinic
_cell_length_a                    10.240526
_cell_length_b                    10.68017
_cell_length_c                    12.228745
_cell_angle_alpha                 91.043753
_cell_angle_beta                  109.247108
_cell_angle_gamma                 96.255479
_cell_volume                      1253.09976277

loop_
_atom_site_label
_atom_site_type_symbol
_atom_type_description
_atom_site_fract_x
_atom_site_fract_y
_atom_site_fract_z
_atom_type_partial_charge
Br1   Br    Br    0.248816 0.945078 0.473031 -0.578590
C1    C     C_R   0.049147 0.733034 0.487636 0.873268
C2    C     C_R   0.207201 0.518654 0.838826 -0.118220
C3    C     C_2   0.067315 0.865215 0.463134 0.090192
C4    C     C_R   0.133052 0.508394 0.714359 0.858990
C5    C     C_2   0.954648 0.926906 0.437320 -0.159413
C6    C     C_2   0.907545 0.128808 0.496314 0.286290
C7    C     C_2   0.965017 0.062306 0.434001 -0.198523
C8    C     C_2   0.428127 0.523862 0.490981 -0.211171
C9    C     C_2   0.566504 0.490220 0.483918 0.590955
C10   C     C_R   0.946319 0.265926 0.505536 0.772464
C11   C     C_R   0.866909 0.489128 0.285802 0.849288
C12   C     C_R   0.432085 0.515027 0.988097 0.078116
C13   C     C_R   0.723229 0.329861 0.991135 -0.202324
C14   C     C_R   0.792898 0.469515 0.162620 -0.052712
C15   C     C_R   0.169827 0.603496 0.908709 -0.191527
C16   C     C_R   0.261181 0.642313 0.018719 -0.124462
C17   C     C_R   0.392900 0.602440 0.056993 -0.205210
C18   C     C_3   0.725203 0.124405 0.571710 0.107687
C19   C     C_3   0.633332 0.033103 0.617010 -0.753049
C20   C     C_3   0.498484 0.388452 0.302644 0.088737
C21   C     C_3   0.520942 0.274603 0.237333 -0.781441
C22   C     C_3   0.785392 0.655844 0.717813 0.239739
C23   C     C_R   0.331513 0.463482 0.883353 0.082996
C24   C     C_3   0.741169 0.716894 0.811232 -0.892975
C25   C     C_R   0.566428 0.475192 0.020169 0.074496
C26   C     C_R   0.593152 0.375359 0.954874 0.161955
C27   C     C_R   0.487782 0.317771 0.858030 -0.247546
C28   C     C_R   0.358021 0.359956 0.823589 -0.186200
C29   C     C_R   0.673876 0.528172 0.118254 -0.265992
C30   C     C_R   0.821982 0.374622 0.096891 -0.202521
H1    H     H_    0.915788 0.329419 0.130740 0.155728
H2    H     H_    0.232635 0.708695 0.072327 0.152336
H3    H     H_    0.277726 0.309757 0.749999 0.174604
H4    H     H_    0.027966 0.107761 0.386230 0.177761
H5    H     H_    0.660476 0.152225 0.485055 0.195066
H6    H     H_    0.762663 0.207385 0.634920 0.167289
H7    H     H_    0.693002 0.009031 0.706000 0.235764
H8    H     H_    0.541779 0.077983 0.620330 0.234939
H9    H     H_    0.596825 0.945633 0.559467 0.294089
H10   H     H_    0.537705 0.475872 0.270419 0.155874
H11   H     H_    0.384630 0.387806 0.281595 0.128989
H12   H     H_    0.853148 0.879008 0.431859 0.198526
H13   H     H_    0.478790 0.186443 0.267148 0.250343
H14   H     H_    0.466133 0.278924 0.142867 0.216265
H15   H     H_    0.633808 0.272554 0.253138 0.249944
H16   H     H_    0.880454 0.712580 0.712537 0.177963
H17   H     H_    0.808025 0.559252 0.745409 0.139729
H18   H     H_    0.646535 0.660938 0.818349 0.268857
H19   H     H_    0.826213 0.720520 0.896170 0.212946
H20   H     H_    0.718148 0.814196 0.789774 0.265422
H21   H     H_    0.424069 0.615666 0.528309 0.219669
H22   H     H_    0.322774 0.354995 0.433488 0.204787
H23   H     H_    0.505184 0.239067 0.809441 0.157479
H24   H     H_    0.744433 0.253681 0.942119 0.138983
H25   H     H_    0.663443 0.608326 0.168249 0.134391
H26   H     H_    0.073576 0.645047 0.876187 0.134779
H27   H     H_    0.459918 0.640143 0.141530 0.122917
N1    N     N_2   0.313640 0.446500 0.454900 -0.216671
N2    N     N_2   0.686360 0.553430 0.545150 0.027681
O1    O     O_R   0.936910 0.692950 0.509080 -0.621709
O2    O     O_3   0.568933 0.380385 0.422556 -0.641488
O3    O     O_3   0.677701 0.653215 0.610571 -0.594408
O4    O     O_R   0.138320 0.658600 0.480130 -0.566078
O5    O     O_R   0.002900 0.525670 0.675280 -0.650503
O6    O     O_R   0.204310 0.491320 0.646330 -0.583955
O7    O     O_R   0.861680 0.341400 0.519870 -0.595916
O8    O     O_R   0.063090 0.307050 0.490920 -0.615014
O9    O     O_R   0.795690 0.508680 0.353670 -0.599453
O10   O     O_R   0.997100 0.474330 0.324720 -0.608402
O11   O     O_3   0.838896 0.065130 0.564549 -0.613535
Zn1   Zn    Zn3+2 0.865520 0.522940 0.519330 0.972150
Zn2   Zn    Zn3+2 0.134480 0.477060 0.480670 0.958561

loop_
_geom_bond_atom_site_label_1
_geom_bond_atom_site_label_2
_ccdc_geom_bond_type
O9    Zn1   S    
C9    N2    D    
C11   O9    A    
C24   H20   S    
C14   C30   A    
C13   C26   A    
O5    Zn1   S    
C19   H7    S    
C8    C9    S    
N1    Zn2   S    
C18   O11   S    
C30   H1    S    
C11   C14   S    
C13   C30   A    
O4    Zn2   S    
Br1   C3    S    
O8    Zn2   S    
O10   Zn2   S    
C22   O3    S    
C16   C17   A    
H22   N1    S    
C6    C7    D    
C20   C21   S    
C6    C10   S    
C15   H26   S    
C25   C26   A    
C9    O2    S    
C8    H21   S    
C16   H2    S    
C12   C17   A    
N2    O3    S    
C20   H10   S    
C1    C3    S    
C25   C29   A    
O1    Zn1   S    
C3    C5    D    
C27   C28   A    
C21   H15   S    
C10   O7    A    
C13   H24   S    
C5    H12   S    
C22   C24   S    
C6    O11   S    
C27   H23   S    
C19   H9    S    
C24   H18   S    
C12   C25   A    
C22   H16   S    
N2    Zn1   S    
C20   H11   S    
C2    C4    S    
C21   H14   S    
C7    H4    S    
C10   O8    A    
C1    O4    A    
C14   C29   A    
C4    O5    A    
O7    Zn1   S    
C26   C27   A    
C19   H8    S    
C11   O10   A    
C23   C28   A    
C15   C16   A    
C5    C7    S    
C22   H17   S    
C18   H6    S    
C20   O2    S    
C18   H5    S    
C24   H19   S    
O6    Zn2   S    
C29   H25   S    
C28   H3    S    
C17   H27   S    
C21   H13   S    
C2    C15   A    
C18   C19   S    
C12   C23   A    
C2    C23   A    
C4    O6    A    
C8    N1    D    
C1    O1    A    
