data_mof_unit_5830.cif
_audit_creation_date              2013-03-05T15:42:26-0500
_audit_creation_method            fapswitch 2.2
_symmetry_space_group_name_H-M    P1
_symmetry_Int_Tables_number       1
_space_group_crystal_system       triclinic
_cell_length_a                    10.977316
_cell_length_b                    10.999262
_cell_length_c                    18.781553
_cell_angle_alpha                 90.154765
_cell_angle_beta                  90.119632
_cell_angle_gamma                 60.158415
_cell_volume                      1967.0307628

loop_
_atom_site_label
_atom_site_type_symbol
_atom_site_description
_atom_site_fract_x
_atom_site_fract_y
_atom_site_fract_z
_atom_type_partial_charge
O1    O     O_R   0.507340 0.255690 0.581430 -0.539827
O2    O     O_R   0.280360 0.527380 0.578910 -0.530425
C1    C     C_R   0.241132 0.642716 0.611078 0.548224
O3    O     O_R   0.260600 0.739610 0.584580 -0.486165
O4    O     O_R   0.532370 0.695050 0.573830 -0.508325
C2    C     C_R   0.626437 0.585688 0.608623 0.537943
O5    O     O_R   0.744850 0.503430 0.576380 -0.511737
O6    O     O_R   0.699080 0.276500 0.571950 -0.481891
C3    C     C_R   0.632792 0.221371 0.600442 0.563085
O7    O     O_R   0.498860 0.256520 0.419860 -0.537943
O8    O     O_R   0.272490 0.528150 0.429140 -0.494980
C4    C     C_R   0.219353 0.652672 0.401721 0.565221
O9    O     O_R   0.252110 0.740440 0.423010 -0.508362
O10   O     O_R   0.524510 0.695820 0.424050 -0.490765
C5    C     C_R   0.643962 0.620195 0.391443 0.548304
O11   O     O_R   0.736370 0.504260 0.414810 -0.530641
O12   O     O_R   0.691220 0.277270 0.422180 -0.477207
C6    C     C_R   0.614838 0.228009 0.395315 0.563177
Cr1   Cr    Cr6+3 0.392940 0.397950 0.502230 1.008899
Cr2   Cr    Cr6+3 0.398400 0.708500 0.501260 1.057408
Cr3   Cr    Cr6+3 0.708640 0.393530 0.496460 1.076468
O13   O     O_3   0.499990 0.499990 0.499980 -0.286705
C7    C     C_3   0.524299 0.709156 0.805374 -0.291576
H1    H     H_    0.459443 0.823357 0.816641 0.113296
H2    H     H_    0.488127 0.654150 0.841952 0.114715
C8    C     C_3   0.502729 0.679544 0.726457 -0.257030
H3    H     H_    0.463006 0.604472 0.725493 0.114800
H4    H     H_    0.424092 0.779121 0.700909 0.140062
H5    H     H_    0.649855 0.855701 0.776259 0.107684
H6    H     H_    0.626747 0.816650 0.661508 0.106616
C9    C     C_3   0.721693 0.743284 0.765552 0.116198
C10   C     C_3   0.761935 0.498670 0.800171 -0.211071
C11   C     C_3   0.681986 0.658233 0.817811 0.042966
H7    H     H_    0.875194 0.446347 0.813778 0.198199
H8    H     H_    0.717677 0.445393 0.832715 0.093675
C12   C     C_3   0.643277 0.614026 0.684304 0.005220
C13   C     C_3   0.701264 0.715546 0.687526 -0.185879
C14   C     C_3   0.746963 0.474924 0.721149 -0.223637
H9    H     H_    0.852211 0.427686 0.695658 0.178298
H10   H     H_    0.801606 0.671528 0.657260 0.183851
H11   H     H_    0.512108 0.108355 0.677766 0.131002
C15   C     C_R   0.701277 0.126157 0.816311 0.029859
C16   C     C_R   0.808082 0.135928 0.778266 0.011879
C17   C     C_R   0.809275 0.129019 0.702174 0.025521
C18   C     C_R   0.596203 0.115002 0.704388 -0.156265
C19   C     C_R   0.600485 0.110835 0.777122 -0.136022
C20   C     C_R   0.912058 0.154025 0.812824 -0.126453
C21   C     C_R   0.019607 0.154952 0.774273 -0.207523
C22   C     C_R   0.028932 0.133487 0.701093 -0.141522
C23   C     C_R   0.928202 0.114690 0.664564 0.231089
C24   C     C_R   0.688813 0.141359 0.666842 0.034955
H12   H     H_    0.909206 0.173807 0.869202 0.138782
H13   H     H_    0.524478 0.090241 0.802341 0.136147
H14   H     H_    0.098596 0.168248 0.801898 0.121007
H15   H     H_    0.118998 0.124287 0.673041 0.138213
H16   H     H_    0.168790 0.860646 0.694100 0.155144
C25   C     C_R   0.193789 0.666297 0.837579 0.018744
C26   C     C_R   0.233161 0.536776 0.804628 0.059063
C27   C     C_R   0.229912 0.529389 0.728766 0.064946
C28   C     C_R   0.180883 0.771008 0.723111 -0.115371
C29   C     C_R   0.179740 0.778058 0.796177 -0.119486
C30   C     C_R   0.262405 0.418419 0.845908 -0.066869
C31   C     C_R   0.270056 0.300679 0.814496 -0.110293
C32   C     C_R   0.256398 0.295687 0.741261 -0.123274
C33   C     C_R   0.237567 0.407229 0.698605 -0.042413
C34   C     C_R   0.205907 0.649216 0.687559 0.019394
H17   H     H_    0.156901 0.876748 0.820013 0.150889
H18   H     H_    0.287182 0.212595 0.847158 0.093246
H19   H     H_    0.262330 0.203692 0.717144 0.084333
H20   H     H_    0.217804 0.398054 0.643337 0.154781
H21   H     H_    0.536319 0.867573 0.320741 0.127576
C35   C     C_R   0.651686 0.675024 0.168237 -0.006130
C36   C     C_R   0.714504 0.540144 0.197215 0.026340
C37   C     C_R   0.746633 0.524790 0.270211 0.035673
C38   C     C_R   0.591700 0.776061 0.286992 -0.147545
C39   C     C_R   0.595387 0.792386 0.213784 -0.144265
C40   C     C_R   0.767540 0.420661 0.152824 -0.082984
C41   C     C_R   0.877862 0.294171 0.175794 -0.114749
C42   C     C_R   0.926052 0.282182 0.245037 -0.149353
C43   C     C_R   0.862033 0.394632 0.292015 -0.090167
C44   C     C_R   0.666603 0.642511 0.316460 0.001418
H22   H     H_    0.732966 0.428357 0.098103 0.111160
H23   H     H_    0.927372 0.206089 0.139563 0.124602
H24   H     H_    0.011777 0.184645 0.263092 0.111475
H25   H     H_    0.913808 0.378658 0.342717 0.146883
H26   H     H_    0.858148 0.085035 0.325207 0.132456
C45   C     C_R   0.656972 0.154290 0.176725 0.001605
C46   C     C_R   0.522919 0.215759 0.206993 0.019817
C47   C     C_R   0.513652 0.200925 0.280431 0.034783
C48   C     C_R   0.765342 0.115307 0.293040 -0.154169
C49   C     C_R   0.777515 0.097246 0.220456 -0.140720
C50   C     C_R   0.399570 0.277517 0.164940 -0.087823
C51   C     C_R   0.274110 0.296782 0.192314 -0.122327
C52   C     C_R   0.266973 0.266379 0.263153 -0.144726
C53   C     C_R   0.385163 0.216284 0.306567 -0.085616
C54   C     C_R   0.633906 0.171072 0.323706 0.006423
H27   H     H_    0.400778 0.305695 0.109871 0.121987
H28   H     H_    0.882606 0.039183 0.198692 0.157647
H29   H     H_    0.182603 0.334633 0.158378 0.120253
H30   H     H_    0.169307 0.281964 0.284901 0.099240
H31   H     H_    0.374506 0.182673 0.358956 0.143765
H32   H     H_    0.079633 0.539902 0.332968 0.126202
C55   C     C_R   0.149480 0.668001 0.183535 -0.001874
C56   C     C_R   0.211368 0.740339 0.214468 0.026121
C57   C     C_R   0.185071 0.774417 0.286381 0.033685
C58   C     C_R   0.108294 0.602683 0.300219 -0.148766
C59   C     C_R   0.092552 0.604512 0.226937 -0.139992
C60   C     C_R   0.276570 0.799448 0.173246 -0.077559
C61   C     C_R   0.286538 0.912347 0.199247 -0.115320
C62   C     C_R   0.245427 0.957626 0.268505 -0.146769
C63   C     C_R   0.190007 0.893866 0.310830 -0.088605
C64   C     C_R   0.157425 0.685546 0.330710 0.002902
H33   H     H_    0.309677 0.765628 0.118983 0.116238
H34   H     H_    0.034236 0.558090 0.204438 0.147624
H35   H     H_    0.254898 0.043063 0.289910 0.105952
H36   H     H_    0.147267 0.942616 0.361700 0.156798
O14   O     O_R   0.089570 0.825450 0.930590 -0.530607
O15   O     O_R   0.818700 0.054260 0.929860 -0.499349
C65   C     C_R   0.705685 0.094826 0.893417 0.555777
O16   O     O_R   0.606310 0.077010 0.915520 -0.537683
O17   O     O_R   0.646730 0.806540 0.917560 -0.512471
C66   C     C_R   0.716574 0.682772 0.891470 0.556329
O18   O     O_R   0.837290 0.593240 0.915240 -0.496926
O19   O     O_R   0.065320 0.635310 0.931580 -0.470900
C67   C     C_R   0.122715 0.704383 0.907277 0.569484
O20   O     O_R   0.068470 0.828620 0.091850 -0.532487
O21   O     O_R   0.799150 0.057200 0.079350 -0.519170
C68   C     C_R   0.676382 0.106263 0.103914 0.528251
O22   O     O_R   0.585220 0.080180 0.076770 -0.530073
O23   O     O_R   0.627170 0.809480 0.067050 -0.514167
C69   C     C_R   0.694729 0.690725 0.097065 0.523987
O24   O     O_R   0.816200 0.596410 0.076500 -0.527990
O25   O     O_R   0.045770 0.638240 0.081070 -0.519240
C70   C     C_R   0.094444 0.707800 0.112238 0.522552
Cr4   Cr    Cr6+3 0.937880 0.938320 0.007620 1.003554
Cr5   Cr    Cr6+3 0.625560 0.937220 0.994510 1.000218
Cr6   Cr    Cr6+3 0.938080 0.625010 0.001190 1.024311
O26   O     O_3   0.833840 0.833520 0.001110 -0.231502
N1    N     N_R   0.864717 0.713669 0.776367 0.080029
O27   O     O_R   0.890560 0.815105 0.788219 -0.348994
O28   O     O_R   0.967197 0.586829 0.767946 -0.379394
N2    N     N_R   0.957085 0.064680 0.592184 0.087783
O29   O     O_R   0.921623 0.974647 0.569501 -0.342427
O30   O     O_R   0.033780 0.095327 0.551453 -0.369627
H37   H     H_    0.276382 0.417472 0.903004 0.101468
H38   H     H_    0.555817 0.897110 0.192908 0.148589
H39   H     H_    0.324373 0.965803 0.165349 0.120130
H40   H     H_    0.706945 0.400697 0.715609 0.107741

loop_
_geom_bond_atom_site_label_1
_geom_bond_atom_site_label_2
_geom_bond_distance
_ccdc_geom_bond_type
C26   C30   1.409774 A    
Cr4   O26   1.989197 S    
C45   C46   1.398932 A    
O25   Cr6   1.957569 S    
C51   C52   1.384565 A    
C45   C49   1.411094 A    
C6    C54   1.452942 S    
C36   C37   1.404440 A    
C23   N2    1.440587 S    
C3    C24   1.473777 S    
C56   C60   1.415114 A    
C35   C39   1.407977 A    
C68   O22   1.275328 A    
C48   C49   1.374273 A    
C5    C44   1.472865 S    
O4    Cr2   1.954110 S    
C58   C64   1.390914 A    
C40   C41   1.382991 A    
C21   H14   1.079965 S    
O8    Cr1   1.949915 S    
C8    H3    1.109296 S    
C30   C31   1.385684 A    
O4    C2    1.305956 A    
C12   C13   1.537075 S    
C55   C70   1.444411 S    
O21   Cr4   1.964995 S    
C13   H10   1.114094 S    
C27   C34   1.436865 A    
C25   C67   1.474373 S    
C42   H24   1.071165 S    
C15   C65   1.484626 S    
C58   C59   1.385746 A    
C18   C24   1.382842 A    
C5    O11   1.249618 A    
C60   C61   1.387184 A    
C15   C19   1.405644 A    
C7    C8    1.559390 S    
O15   C65   1.286028 A    
C45   C68   1.442160 S    
C62   C63   1.386915 A    
C41   H23   1.082144 S    
C46   C50   1.414829 A    
O6    C3    1.275166 A    
C7    C11   1.548773 S    
C30   H37   1.082293 S    
C53   H31   1.078883 S    
C7    H1    1.112966 S    
C9    C11   1.562389 S    
C63   H36   1.081285 S    
C10   C14   1.528894 S    
C51   H29   1.082211 S    
C33   H20   1.074719 S    
C57   C63   1.416851 A    
C28   C34   1.394851 A    
C49   H28   1.083112 S    
C37   C43   1.420617 A    
Cr3   O13   1.988117 S    
C61   H39   1.081535 S    
C56   C57   1.392578 A    
C50   H27   1.082521 S    
O6    Cr3   1.955287 S    
C32   C33   1.393574 A    
O1    Cr1   2.070585 S    
C11   C66   1.492868 S    
C10   H8    1.113356 S    
O10   Cr2   1.963126 S    
O19   Cr6   1.959314 S    
Cr1   O13   1.988833 S    
O1    C3    1.283670 A    
C42   C43   1.390625 A    
Cr5   O26   1.986963 S    
H26   C48   1.083824 S    
C41   C42   1.384608 A    
C38   C44   1.393073 A    
C26   C27   1.428276 A    
C22   H15   1.080576 S    
O12   Cr3   1.962327 S    
H16   C28   1.076535 S    
H6    C13   1.113811 S    
C9    C13   1.534663 S    
C28   C29   1.374006 A    
O16   Cr5   2.073023 S    
C10   H7    1.108901 S    
C60   H33   1.083532 S    
C47   C53   1.422751 A    
C38   C39   1.390393 A    
C59   H34   1.082624 S    
C43   H25   1.077004 S    
O22   Cr5   2.086237 S    
C29   H17   1.081022 S    
O23   C69   1.269706 A    
C20   C21   1.390601 A    
C52   H30   1.078982 S    
O7    Cr1   2.087975 S    
C65   O16   1.271144 A    
O12   C6    1.303873 A    
C52   C53   1.392218 A    
C32   H19   1.079529 S    
C4    O9    1.250571 A    
C25   C29   1.398427 A    
C14   H40   1.107551 S    
O17   C66   1.280798 A    
C2    O5    1.305700 A    
C17   C24   1.423240 A    
C8    C12   1.556272 S    
C21   C22   1.389259 A    
C57   C64   1.428805 A    
Cr2   O13   1.989622 S    
O20   Cr4   2.071950 S    
C16   C17   1.430681 A    
O25   C70   1.271485 A    
N2    O30   1.301616 A    
C1    C34   1.480605 S    
C15   C16   1.423387 A    
C37   C44   1.438035 A    
C9    N1    1.449962 S    
C1    O3    1.288095 A    
O14   Cr4   2.085685 S    
C4    C64   1.458022 S    
C35   C69   1.457738 S    
C17   C23   1.423581 A    
C31   H18   1.082493 S    
H11   C18   1.082853 S    
O9    Cr2   2.072100 S    
O2    Cr1   1.968123 S    
N2    O29   1.301692 A    
O23   Cr5   1.953499 S    
C35   C36   1.399064 A    
N1    O27   1.299332 A    
O11   Cr3   2.075747 S    
C48   C54   1.382199 A    
C20   H12   1.077795 S    
Cr6   O26   1.989360 S    
O18   Cr6   2.079998 S    
C8    H4    1.111394 S    
C10   C11   1.557383 S    
C47   C54   1.441039 A    
C12   C14   1.544229 S    
O2    C1    1.270084 A    
O24   Cr6   2.078168 S    
H5    C9    1.104603 S    
O5    Cr3   2.082834 S    
C61   C62   1.385258 A    
C27   C33   1.420247 A    
H21   C38   1.083370 S    
N1    O28   1.294049 A    
C25   C26   1.408184 A    
C14   H9    1.112451 S    
O14   C67   1.269926 A    
C40   H22   1.083653 S    
O7    C6    1.239369 A    
C19   H13   1.078021 S    
C50   C51   1.384872 A    
C2    C12   1.485116 S    
H32   C58   1.083270 S    
C7    H2    1.112718 S    
O17   Cr5   1.966354 S    
C69   O24   1.275431 A    
C39   H38   1.083070 S    
C31   C32   1.387204 A    
O3    Cr2   2.084701 S    
C18   C19   1.366861 A    
C46   C47   1.399163 A    
O20   C70   1.272469 A    
C22   C23   1.399891 A    
C55   C56   1.402128 A    
C36   C40   1.412767 A    
O10   C5    1.304413 A    
C55   C59   1.407891 A    
C66   O18   1.275263 A    
C16   C20   1.409225 A    
C62   H35   1.072645 S    
O15   Cr4   1.952557 S    
O21   C68   1.264008 A    
O8    C4    1.299553 A    
O19   C67   1.289181 A    
