data_mof_unit_54747.cif
_audit_creation_date              2012-12-10T20:34:50-0500
_audit_creation_method            fapswitch 2.2
_symmetry_space_group_name_H-M    P1
_symmetry_Int_Tables_number       1
_space_group_crystal_system       triclinic
_cell_length_a                    10.652404
_cell_length_b                    10.757491
_cell_length_c                    9.881345
_cell_angle_alpha                 89.763356
_cell_angle_beta                  90.009546
_cell_angle_gamma                 91.604895
_cell_volume                      1131.8805114

loop_
_atom_site_label
_atom_site_type_symbol
_atom_type_description
_atom_site_fract_x
_atom_site_fract_y
_atom_site_fract_z
_atom_type_partial_charge
C1    C     C_R   0.505418 0.260303 0.499462 0.914717
C2    C     C_3   0.878485 0.493868 0.500072 0.093859
C3    C     C_3   0.930733 0.622807 0.451789 -0.372190
C4    C     C_3   0.925835 0.391800 0.403934 -0.378432
C5    C     C_R   0.504751 0.062435 0.617810 0.094208
C6    C     C_R   0.515839 0.128271 0.496615 -0.284812
C7    C     C_R   0.523303 0.063664 0.372542 0.318231
C8    C     C_R   0.492646 0.937744 0.371235 0.374415
C9    C     C_R   0.485706 0.871968 0.495303 -0.300053
C10   C     C_R   0.493333 0.935137 0.617665 0.062815
C11   C     C_3   0.395070 0.936273 0.726418 -0.381339
C12   C     C_R   0.257622 0.499010 0.500217 0.832603
C13   C     C_3   0.409946 0.076167 0.727512 -0.434554
C14   C     C_R   0.440394 0.406447 0.071609 0.228414
C15   C     C_R   0.572994 0.583099 0.071874 0.399475
C16   C     C_R   0.570169 0.585913 0.927186 0.142906
C17   C     C_R   0.441317 0.405587 0.929405 0.156780
C18   C     C_3   0.304993 0.370103 0.925277 -0.491084
C19   C     C_3   0.304837 0.370766 0.078756 -0.464050
C20   C     C_R   0.491380 0.739460 0.498968 0.958881
C21   C     C_R   0.742123 0.495970 0.500056 0.852359
C22   C     C_3   0.069629 0.484605 0.648910 0.243243
C23   C     C_3   0.927935 0.463800 0.644149 -0.417396
C24   C     C_3   0.073981 0.619296 0.436498 -0.347768
C25   C     C_3   0.069685 0.385662 0.416125 -0.491051
C26   C     C_3   0.121055 0.497694 0.501045 0.092991
H1    H     H_    0.900101 0.413632 0.297401 0.217995
H2    H     H_    0.099140 0.622778 0.327134 0.194843
H3    H     H_    0.888892 0.649106 0.352931 0.223288
H4    H     H_    0.301242 0.902703 0.690164 0.219454
H5    H     H_    0.425674 0.893084 0.822498 0.228697
H6    H     H_    0.324405 0.124048 0.692893 0.185493
H7    H     H_    0.452954 0.112902 0.822314 0.235852
H8    H     H_    0.110465 0.402203 0.699024 0.099481
H9    H     H_    0.247848 0.444507 0.881645 0.261993
H10   H     H_    0.287186 0.276245 0.881914 0.200088
H11   H     H_    0.247235 0.445460 0.122011 0.214177
H12   H     H_    0.288889 0.276976 0.124243 0.229248
H13   H     H_    0.903499 0.365243 0.670475 0.150035
H14   H     H_    0.884125 0.520598 0.722395 0.221344
H15   H     H_    0.118679 0.702844 0.484383 0.202396
H16   H     H_    0.906158 0.695434 0.526366 0.189801
H17   H     H_    0.111007 0.386265 0.312832 0.204085
H18   H     H_    0.095227 0.296739 0.465675 0.169049
H19   H     H_    0.881894 0.299660 0.429963 0.177183
N1    N     N_R   0.499150 0.499140 0.142800 -0.153007
N2    N     N_R   0.499150 0.499180 0.857150 -0.137112
O1    O     O_R   0.500020 0.316790 0.614690 -0.625563
O2    O     O_R   0.500000 0.316760 0.385350 -0.569868
O3    O     O_R   0.314800 0.500000 0.614670 -0.595503
O4    O     O_R   0.314790 0.499960 0.385330 -0.635287
O5    O     O_R   0.500000 0.683240 0.614650 -0.599551
O6    O     O_R   0.499980 0.683210 0.385310 -0.522914
O7    O     O_R   0.685210 0.500040 0.614670 -0.621984
O8    O     O_R   0.685200 0.500000 0.385330 -0.579128
Zn1   Zn    Zn3+2 0.500010 0.500020 0.653130 0.983632
Zn2   Zn    Zn3+2 0.499990 0.499980 0.346870 1.044869
Cl1   Cl    Cl    0.107158 0.619503 0.751238 -0.678744
Cl2   Cl    Cl    0.567675 0.134742 0.216325 -0.560424
Cl3   Cl    Cl    0.442109 0.872523 0.214978 -0.518764
Cl4   Cl    Cl    0.673995 0.686308 0.160158 -0.574239
N3    N     N_2   0.628088 0.686922 0.855481 -0.254184
H20   H     H_    0.586522 0.770337 0.874112 0.246835
C27   C     C_3   0.763802 0.697608 0.858419 -0.605147
H21   H     H_    0.794549 0.780456 0.917916 0.260891
H22   H     H_    0.798882 0.711245 0.753661 0.228109
H23   H     H_    0.806035 0.614211 0.904631 0.239411

loop_
_geom_bond_atom_site_label_1
_geom_bond_atom_site_label_2
_ccdc_geom_bond_type
C22   Cl1   S    
C12   O3    A    
C3    H16   S    
C13   H7    S    
N3    H20   S    
O4    Zn2   S    
C19   H12   S    
C17   N2    A    
C18   H9    S    
C13   H6    S    
C5    C13   S    
C27   H21   S    
C25   H17   S    
C2    C21   S    
C17   C18   S    
C15   Cl4   S    
C11   H5    S    
C5    C10   A    
C1    O1    A    
C8    Cl3   S    
C24   H15   S    
C11   C13   S    
C14   C17   A    
C3    H3    S    
C3    C24   S    
C6    C7    A    
C5    C6    A    
C18   H10   S    
C23   H13   S    
C2    C4    S    
C16   N2    A    
C7    Cl2   S    
N2    Zn1   S    
C24   C26   S    
C4    C25   S    
C2    C3    S    
C4    H19   S    
O8    Zn2   S    
N1    Zn2   S    
C22   C26   S    
C21   O7    A    
C22   H8    S    
C9    C20   S    
O7    Zn1   S    
C10   C11   S    
C23   H14   S    
C27   H23   S    
O5    Zn1   S    
C7    C8    A    
C12   O4    A    
O2    Zn2   S    
C25   H18   S    
C24   H2    S    
C20   O5    A    
C18   C19   S    
C9    C10   A    
C2    C23   S    
O1    Zn1   S    
O6    Zn2   S    
C22   C23   S    
C20   O6    A    
C21   O8    A    
N3    C27   S    
C4    H1    S    
C19   H11   S    
C15   N1    A    
C25   C26   S    
C1    O2    A    
C14   C19   S    
C16   N3    S    
C15   C16   A    
O3    Zn1   S    
C1    C6    S    
C11   H4    S    
C12   C26   S    
C8    C9    A    
C14   N1    A    
C27   H22   S    
