data_mof_unit_62547.cif
_audit_creation_date              2012-12-10T18:59:15-0500
_audit_creation_method            fapswitch 2.2
_symmetry_space_group_name_H-M    P1
_symmetry_Int_Tables_number       1
_space_group_crystal_system       triclinic
_cell_length_a                    43.8786
_cell_length_b                    30.279242
_cell_length_c                    30.276489
_cell_angle_alpha                 89.979243
_cell_angle_beta                  133.408796
_cell_angle_gamma                 90.034833
_cell_volume                      29222.7031208

loop_
_atom_site_label
_atom_site_type_symbol
_atom_type_description
_atom_site_fract_x
_atom_site_fract_y
_atom_site_fract_z
_atom_type_partial_charge
C1    C     C_R   0.499900 0.999978 0.586216 0.864354
C2    C     C_3   0.725343 0.988645 0.770850 -0.448721
C3    C     C_R   0.503920 0.296929 0.043871 -0.152046
C4    C     C_R   0.996263 0.842697 0.956316 -0.187476
C5    C     C_R   0.003812 0.842694 0.043810 -0.187594
C6    C     C_R   0.496220 0.342697 0.956279 -0.187525
C7    C     C_R   0.503846 0.342695 0.043842 -0.187392
C8    C     C_R   0.000024 0.865804 0.000045 -0.034896
C9    C     C_R   0.500021 0.365804 0.000043 -0.034949
C10   C     C_R   0.000066 0.774270 0.000107 0.120214
C11   C     C_R   0.500058 0.274270 0.000102 0.120045
C12   C     C_R   0.538185 0.203362 0.042294 0.014416
C13   C     C_3   0.774634 0.486239 0.229790 -0.448538
C14   C     C_R   0.461899 0.203349 0.957887 0.015087
C15   C     C_R   0.038180 0.703359 0.042383 0.014851
C16   C     C_R   0.961914 0.703349 0.957800 0.014817
C17   C     C_R   0.537952 0.157510 0.041945 -0.230824
C18   C     C_R   0.462110 0.157499 0.958179 -0.232901
C19   C     C_R   0.037945 0.657507 0.042032 -0.232119
C20   C     C_R   0.962123 0.657499 0.958093 -0.232113
C21   C     C_R   0.500025 0.134498 0.000045 -0.073392
C22   C     C_R   0.000027 0.634497 0.000045 -0.073194
C23   C     C_3   0.274442 0.048339 0.284745 0.260486
C24   C     C_3   0.225356 0.484522 0.769623 -0.448557
C25   C     C_3   0.725650 0.047003 0.710183 0.260759
C26   C     C_3   0.774423 0.547685 0.287393 0.260540
C27   C     C_3   0.225621 0.548231 0.714532 0.260569
C28   C     C_R   0.500048 0.226357 0.000101 -0.012231
C29   C     C_R   0.000054 0.726356 0.000104 -0.012198
C30   C     C_R   0.012183 0.203170 0.050126 -0.168063
C31   C     C_R   0.987733 0.203171 0.949745 -0.167360
C32   C     C_R   0.512168 0.703171 0.050119 -0.167759
C33   C     C_R   0.487766 0.703173 0.949769 -0.167890
C34   C     C_R   0.011954 0.157397 0.050010 -0.178112
C35   C     C_1   0.162997 0.000465 0.163027 -0.013688
C36   C     C_R   0.987997 0.157396 0.949901 -0.176788
C37   C     C_R   0.511936 0.657397 0.050000 -0.177338
C38   C     C_R   0.488026 0.657397 0.949922 -0.177753
C39   C     C_R   0.999985 0.134357 0.999967 -0.029540
C40   C     C_R   0.499989 0.634358 0.999971 -0.029351
C41   C     C_R   0.999953 0.226049 0.999928 0.107247
C42   C     C_R   0.499962 0.726050 0.999937 0.107419
C43   C     C_R   0.463694 0.796807 0.951474 -0.169496
C44   C     C_R   0.536243 0.796821 0.048414 -0.169696
C45   C     C_R   0.963682 0.296808 0.951482 -0.169550
C46   C     C_1   0.837003 0.000441 0.836947 -0.013672
C47   C     C_R   0.036244 0.296819 0.048392 -0.169424
C48   C     C_R   0.463600 0.842583 0.951653 -0.186577
C49   C     C_R   0.536348 0.842595 0.048269 -0.188249
C50   C     C_R   0.963590 0.342584 0.951663 -0.187109
C51   C     C_R   0.036351 0.342592 0.048249 -0.187207
C52   C     C_R   0.499977 0.865621 0.999971 -0.035322
C53   C     C_R   0.999975 0.365620 0.999967 -0.035841
C54   C     C_R   0.499966 0.773936 0.999937 0.106566
C55   C     C_R   0.999959 0.273935 0.999929 0.106381
C56   C     C_3   0.225457 0.048084 0.236826 0.243506
C57   C     C_1   0.662997 0.500438 0.163041 -0.013681
C58   C     C_3   0.774635 0.046603 0.758147 0.243459
C59   C     C_3   0.725438 0.547360 0.239459 0.243487
C60   C     C_3   0.274605 0.547942 0.762455 0.243440
C61   C     C_1   0.125497 0.000262 0.125352 -0.168262
C62   C     C_1   0.874503 0.000252 0.874642 -0.168257
C63   C     C_1   0.625497 0.500250 0.125355 -0.168259
C64   C     C_1   0.374503 0.500271 0.874647 -0.168267
C65   C     C_3   0.291210 0.000586 0.292356 0.138253
C66   C     C_3   0.708791 0.000521 0.707583 0.138099
C67   C     C_3   0.791210 0.500519 0.292389 0.138155
C68   C     C_1   0.337003 0.500483 0.836968 -0.013678
C69   C     C_3   0.208790 0.500633 0.707634 0.138162
C70   C     C_3   0.224864 0.968912 0.261679 -0.510514
C71   C     C_3   0.775079 0.965160 0.741848 -0.510454
C72   C     C_3   0.724871 0.466897 0.259895 -0.510388
C73   C     C_3   0.275096 0.468384 0.738793 -0.510493
C74   C     C_3   0.208703 0.000809 0.209192 0.169189
C75   C     C_3   0.791299 0.000759 0.790739 0.169065
C76   C     C_3   0.708702 0.500761 0.209228 0.169111
C77   C     C_3   0.291298 0.500836 0.790797 0.169139
C78   C     C_1   0.289617 0.978961 0.371563 0.140544
C79   C     C_1   0.337008 0.000201 0.337585 -0.011319
C80   C     C_1   0.710349 0.970350 0.631149 0.140439
C81   C     C_1   0.789610 0.474447 0.370267 0.141030
C82   C     C_1   0.210359 0.477756 0.628764 0.140601
C83   C     C_1   0.578163 0.984561 0.852413 0.144819
C84   C     C_1   0.421828 0.015372 0.147573 0.144783
C85   C     C_1   0.078153 0.484491 0.852404 0.145237
C86   C     C_1   0.921809 0.484660 0.147573 0.144959
C87   C     C_1   0.577837 0.226195 0.085817 0.157447
C88   C     C_1   0.422257 0.226166 0.914389 0.156530
C89   C     C_1   0.077825 0.726189 0.085997 0.156609
C90   C     C_1   0.662992 0.000222 0.662383 -0.011206
C91   C     C_1   0.922282 0.726168 0.914212 0.156635
C92   C     C_1   0.837008 0.500174 0.337603 -0.011334
C93   C     C_R   0.500099 0.000006 0.413784 0.865104
C94   C     C_1   0.162992 0.500266 0.662409 -0.011272
C95   C     C_1   0.374507 0.000022 0.374748 -0.159203
C96   C     C_1   0.625493 0.000069 0.625239 -0.159130
C97   C     C_1   0.874507 0.500015 0.374755 -0.159164
C98   C     C_1   0.125492 0.500079 0.625250 -0.159184
C99   C     C_R   0.508067 0.960538 0.711117 -0.151567
C100  C     C_R   0.491909 0.039370 0.288840 -0.150295
C101  C     C_R   0.008042 0.460531 0.711091 -0.151324
C102  C     C_R   0.991907 0.460611 0.288868 -0.151568
C103  C     C_R   0.507631 0.960517 0.664917 -0.186332
C104  C     C_R   0.999900 0.499978 0.586216 0.864859
C105  C     C_R   0.492349 0.039417 0.335043 -0.181685
C106  C     C_R   0.007605 0.460511 0.664891 -0.185886
C107  C     C_R   0.992347 0.460568 0.335071 -0.186179
C108  C     C_R   0.499835 0.999890 0.634144 -0.032825
C109  C     C_R   0.500159 0.000060 0.365850 -0.033665
C110  C     C_R   0.999836 0.499890 0.634145 -0.032955
C111  C     C_R   0.000159 0.499934 0.365850 -0.032844
C112  C     C_R   0.492058 0.039156 0.649572 -0.181370
C113  C     C_R   0.507944 0.960783 0.350453 -0.184592
C114  C     C_R   0.992087 0.539161 0.649602 -0.181001
C115  C     C_R   0.000099 0.499993 0.413783 0.864577
C116  C     C_R   0.007946 0.539217 0.350423 -0.181201
C117  C     C_R   0.492219 0.039034 0.695520 -0.167954
C118  C     C_R   0.507778 0.960879 0.304499 -0.168825
C119  C     C_R   0.992249 0.539039 0.695551 -0.167807
C120  C     C_R   0.007783 0.539117 0.304472 -0.167846
C121  C     C_R   0.418945 0.999994 0.418948 0.905767
C122  C     C_R   0.581055 0.000012 0.581052 0.905734
C123  C     C_R   0.918945 0.499994 0.418948 0.905739
C124  C     C_R   0.081055 0.500013 0.581052 0.905814
C125  C     C_R   0.500553 0.999818 0.726479 0.110344
C126  C     C_3   0.226148 0.984459 0.181572 -0.426539
C127  C     C_R   0.499431 0.000080 0.273505 0.109775
C128  C     C_R   0.000555 0.499817 0.726481 0.110164
C129  C     C_R   0.999434 0.499906 0.273509 0.110295
C130  C     C_R   0.463877 0.007985 0.760395 -0.186655
C131  C     C_R   0.536103 0.991879 0.239586 -0.186120
C132  C     C_R   0.963885 0.508015 0.760403 -0.186432
C133  C     C_R   0.036119 0.508074 0.239595 -0.186623
C134  C     C_R   0.463366 0.007790 0.805631 -0.189613
C135  C     C_R   0.536621 0.992100 0.194356 -0.189803
C136  C     C_R   0.963373 0.507820 0.805639 -0.189485
C137  C     C_3   0.773819 0.989352 0.819825 -0.426376
C138  C     C_R   0.036635 0.507847 0.194363 -0.189610
C139  C     C_R   0.500490 0.999904 0.866048 -0.054477
C140  C     C_R   0.499506 0.000029 0.133948 -0.054131
C141  C     C_R   0.000491 0.499903 0.866049 -0.054499
C142  C     C_R   0.999506 0.499941 0.133949 -0.054468
C143  C     C_R   0.538159 0.992132 0.880937 -0.229093
C144  C     C_R   0.461839 0.007812 0.119058 -0.228709
C145  C     C_R   0.038153 0.492098 0.880933 -0.228920
C146  C     C_R   0.961827 0.492189 0.119056 -0.229097
C147  C     C_R   0.538801 0.991964 0.835688 0.026936
C148  C     C_3   0.726159 0.486947 0.180782 -0.426451
C149  C     C_R   0.461190 0.007953 0.164300 0.026489
C150  C     C_R   0.038796 0.491929 0.835684 0.026815
C151  C     C_R   0.961180 0.492053 0.164300 0.026885
C152  C     C_R   0.501343 0.999888 0.775129 0.048769
C153  C     C_R   0.498639 0.999993 0.224853 0.048922
C154  C     C_R   0.001345 0.499885 0.775131 0.048800
C155  C     C_R   0.998643 0.499989 0.224857 0.048783
C156  C     C_R   0.000004 0.913812 0.000011 0.863339
C157  C     C_R   0.500003 0.413812 0.000010 0.863379
C158  C     C_R   0.081054 0.000118 0.081001 0.909856
C159  C     C_3   0.273831 0.485197 0.818655 -0.426422
C160  C     C_R   0.918946 0.000117 0.918999 0.909882
C161  C     C_R   0.581054 0.500118 0.081001 0.909874
C162  C     C_R   0.418946 0.500117 0.918999 0.909869
C163  C     C_R   0.999998 0.086428 0.999991 0.871544
C164  C     C_R   0.499999 0.586429 0.999992 0.871498
C165  C     C_3   0.273738 0.968465 0.311091 -0.202170
C166  C     C_3   0.726204 0.964690 0.692475 -0.202215
C167  C     C_3   0.773745 0.466434 0.309291 -0.202339
C168  C     C_3   0.226221 0.467947 0.689385 -0.202219
C169  C     C_R   0.500009 0.086480 0.000012 0.896263
C170  C     C_3   0.274622 0.983778 0.230612 -0.448627
C171  C     C_R   0.000009 0.586479 0.000012 0.896200
C172  C     C_R   0.500103 0.999963 0.913651 0.884763
C173  C     C_R   0.499896 0.999993 0.086348 0.884823
C174  C     C_R   0.000103 0.499963 0.913652 0.884853
C175  C     C_R   0.999896 0.499968 0.086348 0.884769
C176  C     C_R   0.499991 0.913539 0.999991 0.874161
C177  C     C_R   0.999991 0.413539 0.999990 0.874266
C178  C     C_R   0.996228 0.796933 0.956347 -0.152223
C179  C     C_R   0.003888 0.796929 0.043841 -0.152280
C180  C     C_R   0.496183 0.296932 0.956308 -0.152338
H1    H     H_    0.211685 0.978859 0.281169 0.181700
H2    H     H_    0.786680 0.932002 0.763593 0.196091
H3    H     H_    0.288630 0.574024 0.834028 0.339279
H4    H     H_    0.713221 0.433263 0.239856 0.196248
H5    H     H_    0.286717 0.434438 0.757470 0.196115
H6    H     H_    0.214934 0.005328 0.142650 0.172504
H7    H     H_    0.785071 0.013065 0.856372 0.172254
H8    H     H_    0.714944 0.509324 0.143061 0.172322
H9    H     H_    0.285071 0.506491 0.857259 0.172440
H10   H     H_    0.514252 0.930094 0.734931 0.137692
H11   H     H_    0.485717 0.069804 0.265003 0.139242
H12   H     H_    0.014204 0.430082 0.734884 0.137852
H13   H     H_    0.788280 0.971535 0.721498 0.181826
H14   H     H_    0.985711 0.430171 0.265051 0.137689
H15   H     H_    0.513732 0.929880 0.653700 0.159132
H16   H     H_    0.486241 0.070063 0.346235 0.162492
H17   H     H_    0.013684 0.429868 0.653652 0.159276
H18   H     H_    0.986236 0.429917 0.346285 0.159176
H19   H     H_    0.485737 0.069818 0.626093 0.161590
H20   H     H_    0.514277 0.930134 0.373961 0.159403
H21   H     H_    0.985787 0.569829 0.626145 0.161745
H22   H     H_    0.014280 0.569874 0.373908 0.161621
H23   H     H_    0.486294 0.069439 0.707416 0.140785
H24   H     H_    0.711681 0.475006 0.279875 0.181800
H25   H     H_    0.513711 0.930467 0.292627 0.139770
H26   H     H_    0.986345 0.569449 0.707469 0.140876
H27   H     H_    0.013719 0.569534 0.292577 0.140814
H28   H     H_    0.435015 0.014107 0.713750 0.148680
H29   H     H_    0.564960 0.985732 0.286227 0.148664
H30   H     H_    0.935027 0.514162 0.713762 0.148695
H31   H     H_    0.064985 0.514204 0.286240 0.148669
H32   H     H_    0.434051 0.014050 0.793401 0.160776
H33   H     H_    0.565934 0.985828 0.206585 0.160412
H34   H     H_    0.934063 0.514106 0.793413 0.160802
H35   H     H_    0.288290 0.477815 0.719161 0.181713
H36   H     H_    0.065957 0.514095 0.206596 0.160770
H37   H     H_    0.567000 0.986062 0.927661 0.163486
H38   H     H_    0.433004 0.013913 0.072340 0.163374
H39   H     H_    0.066990 0.486003 0.927652 0.163530
H40   H     H_    0.932982 0.486106 0.072334 0.163491
H41   H     H_    0.993278 0.779139 0.922520 0.137724
H42   H     H_    0.006846 0.779131 0.077684 0.137668
H43   H     H_    0.493201 0.279138 0.922454 0.137668
H44   H     H_    0.506908 0.279132 0.077741 0.138013
H45   H     H_    0.993228 0.859892 0.922086 0.160232
H46   H     H_    0.284528 0.934337 0.314225 0.164440
H47   H     H_    0.006830 0.859887 0.078017 0.160148
H48   H     H_    0.493155 0.359891 0.922021 0.160162
H49   H     H_    0.506896 0.359889 0.078076 0.160319
H50   H     H_    0.567374 0.139835 0.074470 0.166327
H51   H     H_    0.432678 0.139815 0.925632 0.165697
H52   H     H_    0.067359 0.639830 0.074626 0.165802
H53   H     H_    0.932698 0.639816 0.925476 0.165819
H54   H     H_    0.021460 0.220765 0.088956 0.137071
H55   H     H_    0.978448 0.220767 0.910905 0.137441
H56   H     H_    0.521427 0.720765 0.088937 0.136998
H57   H     H_    0.715348 0.931589 0.692915 0.164148
H58   H     H_    0.478499 0.720770 0.910941 0.137092
H59   H     H_    0.021456 0.140088 0.089147 0.157960
H60   H     H_    0.978506 0.140085 0.910780 0.158430
H61   H     H_    0.521419 0.640088 0.089124 0.158117
H62   H     H_    0.478554 0.640087 0.910812 0.158003
H63   H     H_    0.435459 0.779206 0.913993 0.140798
H64   H     H_    0.564474 0.779232 0.085885 0.140560
H65   H     H_    0.935441 0.279209 0.914011 0.140981
H66   H     H_    0.064479 0.279228 0.085850 0.140770
H67   H     H_    0.435291 0.859898 0.913895 0.157676
H68   H     H_    0.784552 0.432787 0.310563 0.164541
H69   H     H_    0.564662 0.859918 0.086042 0.156825
H70   H     H_    0.935277 0.359900 0.913917 0.157751
H71   H     H_    0.064672 0.359913 0.086010 0.157670
H72   H     H_    0.285334 0.058446 0.329015 0.122329
H73   H     H_    0.714779 0.053477 0.665034 0.122787
H74   H     H_    0.785311 0.555929 0.332169 0.122149
H75   H     H_    0.214740 0.557823 0.670114 0.122295
H76   H     H_    0.215636 0.055855 0.261489 0.114222
H77   H     H_    0.784472 0.050622 0.732863 0.114731
H78   H     H_    0.715614 0.553197 0.264499 0.114326
H79   H     H_    0.215386 0.433946 0.686758 0.164403
H80   H     H_    0.284435 0.555171 0.737678 0.114277
H81   H     H_    0.285648 0.949357 0.235892 0.189409
H82   H     H_    0.714251 0.955047 0.769186 0.189278
H83   H     H_    0.785671 0.452191 0.233183 0.189351
H84   H     H_    0.214286 0.450197 0.764857 0.189384
H85   H     H_    0.287258 0.003599 0.215324 0.183423
H86   H     H_    0.712744 0.011354 0.783867 0.183394
H87   H     H_    0.787268 0.507579 0.215645 0.183402
H88   H     H_    0.212745 0.504777 0.784609 0.183455
H89   H     H_    0.214391 0.950489 0.163122 0.193076
H90   H     H_    0.213197 0.934865 0.243512 0.196108
H91   H     H_    0.785510 0.956290 0.841844 0.193102
H92   H     H_    0.714414 0.453402 0.160459 0.193128
H93   H     H_    0.285544 0.451332 0.837616 0.193146
H94   H     H_    0.282132 0.072498 0.232657 0.343240
H95   H     H_    0.718006 0.077441 0.759358 0.343095
H96   H     H_    0.782095 0.575125 0.236718 0.343168
H97   H     H_    0.217968 0.573318 0.766258 0.343206
H98   H     H_    0.211471 0.073271 0.164872 0.339366
H99   H     H_    0.788669 0.077855 0.827093 0.339079
H100  H     H_    0.711433 0.575728 0.168978 0.339181
N1    N     N_1   0.302069 0.987184 0.418912 -0.197670
N2    N     N_1   0.390541 0.244468 0.879586 -0.199933
N3    N     N_1   0.109543 0.744500 0.120894 -0.199956
N4    N     N_1   0.890574 0.744470 0.879337 -0.199874
N5    N     N_1   0.697916 0.974789 0.583129 -0.197777
N6    N     N_1   0.802051 0.480727 0.418011 -0.197251
N7    N     N_1   0.197920 0.485442 0.581297 -0.197627
N8    N     N_1   0.609674 0.978635 0.865769 -0.196402
N9    N     N_1   0.390318 0.021311 0.134215 -0.194632
N10   N     N_1   0.109659 0.478536 0.865756 -0.195778
N11   N     N_1   0.890292 0.478742 0.134215 -0.196193
N12   N     N_1   0.609561 0.244509 0.120640 -0.199277
O1    O     O_R   0.500000 0.963030 0.565470 -0.626830
O2    O     O_R   0.465320 0.999980 0.030770 -0.623504
O3    O     O_R   0.034680 0.499980 0.969230 -0.623442
O4    O     O_R   0.965320 0.499980 0.030770 -0.623479
O5    O     O_R   0.465320 0.934500 0.965310 -0.623293
O6    O     O_R   0.534680 0.934500 0.034690 -0.625774
O7    O     O_R   0.965320 0.434500 0.965310 -0.624508
O8    O     O_R   0.034680 0.434500 0.034690 -0.624504
O9    O     O_R   0.499990 0.036970 0.565490 -0.623670
O10   O     O_R   0.500010 0.036970 0.434510 -0.623337
O11   O     O_R   0.999990 0.536970 0.565490 -0.623359
O12   O     O_R   0.500000 0.963030 0.434530 -0.626612
O13   O     O_R   0.000010 0.536970 0.434510 -0.623525
O14   O     O_R   0.438570 0.963030 0.438570 -0.618941
O15   O     O_R   0.561430 0.963030 0.561430 -0.621614
O16   O     O_R   0.938570 0.463030 0.438570 -0.620112
O17   O     O_R   0.061430 0.463030 0.561430 -0.620234
O18   O     O_R   0.438570 0.036970 0.438590 -0.604073
O19   O     O_R   0.561430 0.036970 0.561410 -0.601057
O20   O     O_R   0.938570 0.536970 0.438590 -0.602706
O21   O     O_R   0.061430 0.536970 0.561410 -0.602696
O22   O     O_R   0.000000 0.934650 0.036980 -0.627154
O23   O     O_R   0.000000 0.463030 0.565470 -0.626706
O24   O     O_R   0.000000 0.934650 0.963020 -0.627165
O25   O     O_R   0.500000 0.434650 0.036980 -0.627102
O26   O     O_R   0.500000 0.434650 0.963020 -0.627162
O27   O     O_R   0.061420 0.000140 0.098400 -0.616952
O28   O     O_R   0.938580 0.000140 0.901600 -0.616070
O29   O     O_R   0.561420 0.500140 0.098400 -0.616491
O30   O     O_R   0.438580 0.500140 0.901600 -0.616851
O31   O     O_R   0.061430 0.000120 0.024480 -0.612623
O32   O     O_R   0.938570 0.000120 0.975520 -0.613561
O33   O     O_R   0.561430 0.500120 0.024480 -0.613139
O34   O     O_R   0.000000 0.463030 0.434530 -0.626793
O35   O     O_R   0.438570 0.500120 0.975520 -0.612738
O36   O     O_R   0.999990 0.065630 0.036960 -0.624020
O37   O     O_R   0.000010 0.065630 0.963040 -0.623397
O38   O     O_R   0.499990 0.565630 0.036960 -0.623621
O39   O     O_R   0.500010 0.565630 0.963040 -0.623848
O40   O     O_R   0.465320 0.065470 0.965350 -0.626971
O41   O     O_R   0.534680 0.065470 0.034650 -0.624499
O42   O     O_R   0.965320 0.565470 0.965350 -0.625777
O43   O     O_R   0.034680 0.565470 0.034650 -0.625765
O44   O     O_3   0.291122 0.079937 0.271979 -0.714992
O45   O     O_R   0.465320 0.999980 0.899860 -0.627168
O46   O     O_3   0.709029 0.081587 0.719421 -0.714358
O47   O     O_3   0.791090 0.580870 0.276409 -0.714874
O48   O     O_3   0.208982 0.580287 0.726824 -0.714749
O49   O     O_3   0.207703 0.081397 0.192505 -0.720277
O50   O     O_3   0.792451 0.082562 0.798779 -0.720556
O51   O     O_3   0.707671 0.582097 0.197022 -0.720663
O52   O     O_3   0.292404 0.581659 0.806272 -0.720386
O53   O     O_R   0.534680 0.999980 0.100140 -0.627019
O54   O     O_R   0.965320 0.499980 0.899860 -0.627124
O55   O     O_R   0.034680 0.499980 0.100140 -0.627178
O56   O     O_R   0.534680 0.999980 0.969230 -0.623495
Zn1   Zn    Zn3+2 0.500000 0.950630 0.500000 0.960870
Zn2   Zn    Zn3+2 0.546310 0.999980 0.046300 0.957356
Zn3   Zn    Zn3+2 0.953690 0.499980 0.953700 0.957314
Zn4   Zn    Zn3+2 0.046310 0.499980 0.046300 0.957296
Zn5   Zn    Zn3+2 0.000000 0.450630 0.500000 0.961222
Zn6   Zn    Zn3+2 0.500000 0.049370 0.500000 0.989937
Zn7   Zn    Zn3+2 1.000000 0.549370 0.500000 0.989592
Zn8   Zn    Zn3+2 0.000000 0.000140 0.049370 0.965860
Zn9   Zn    Zn3+2 0.000000 0.000140 0.950630 0.967479
Zn10  Zn    Zn3+2 0.500000 0.500140 0.049370 0.967036
Zn11  Zn    Zn3+2 0.500000 0.500140 0.950630 0.966285
Zn12  Zn    Zn3+2 0.453690 0.999980 0.953700 0.957294

loop_
_geom_bond_atom_site_label_1
_geom_bond_atom_site_label_2
_ccdc_geom_bond_type
O40   Zn12  S    
C99   C103  A    
C3    H44   S    
C156  O22   A    
C100  C127  A    
C142  C146  A    
C46   C62   T    
C170  H81   S    
C57   C76   S    
C24   C69   S    
O9    Zn6   S    
C32   H56   S    
C25   O46   S    
C70   H90   S    
C18   C21   A    
C101  C128  A    
C149  C153  A    
C5    C179  A    
O2    Zn12  S    
C175  O55   A    
C162  O35   A    
C121  O18   A    
C71   C166  S    
C70   C74   S    
O7    Zn3   S    
C123  O20   A    
C151  C155  A    
C26   C59   S    
O34   Zn5   S    
C141  C145  A    
C146  H40   S    
C119  C128  A    
C169  O41   A    
C2    C137  S    
C130  C134  A    
O29   Zn10  S    
C73   C168  S    
C102  H14   S    
C80   C166  S    
O28   Zn9   S    
C50   C53   A    
C174  O3    A    
C176  O5    A    
C159  H93   S    
C72   H4    S    
C17   C21   A    
C34   C39   A    
C88   N2    T    
C144  H38   S    
O27   Zn8   S    
C107  H18   S    
C43   C54   A    
C158  O31   A    
C161  O33   A    
O42   Zn3   S    
C16   C20   A    
C87   N12   T    
C81   C167  S    
C114  H21   S    
C124  O17   A    
C4    H45   S    
C82   N7    T    
C13   H83   S    
C77   C159  S    
C106  H17   S    
C156  O24   A    
C130  C152  A    
C157  O25   A    
O26   Zn11  S    
O36   Zn8   S    
C67   C167  S    
C68   C77   S    
C63   C161  S    
C78   C165  S    
C133  H31   S    
O6    Zn2   S    
C53   C177  S    
C5    C8    A    
C17   H50   S    
C142  C175  S    
C164  O39   A    
C23   O44   S    
C148  H8    S    
C33   C38   A    
C65   C170  S    
C18   H51   S    
C60   H80   S    
C69   C168  S    
C14   C88   S    
C61   C158  S    
C104  C110  S    
C2    H82   S    
C45   C50   A    
C67   C92   S    
C124  O21   A    
O3    Zn4   S    
C3    C11   A    
C116  C120  A    
C48   C52   A    
C76   C148  S    
C16   C91   S    
H96   O47   S    
C73   C77   S    
C31   C36   A    
O18   Zn6   S    
O45   Zn12  S    
C65   C79   S    
O22   Zn8   S    
C6    C9    A    
C137  H91   S    
O54   Zn3   S    
C169  O40   A    
C98   C124  S    
C85   N10   T    
C33   C42   A    
C64   C68   T    
C168  H79   S    
C40   C164  S    
C37   C40   A    
C167  H68   S    
C2    H86   S    
O16   Zn5   S    
O53   Zn2   S    
C122  O19   A    
C33   H58   S    
O55   Zn4   S    
C139  C143  A    
C172  O56   A    
C177  O8    A    
C132  C154  A    
C59   H78   S    
C110  C114  A    
C145  C150  A    
C50   H70   S    
C84   C149  S    
C162  O30   A    
O37   Zn9   S    
O10   Zn6   S    
C170  H85   S    
C175  O4    A    
C56   O49   S    
C46   C75   S    
C92   C97   T    
C57   C63   T    
C37   H61   S    
C30   C34   A    
C120  C129  A    
C93   O10   A    
C130  H28   S    
C70   C165  S    
C134  C139  A    
C25   H73   S    
O17   Zn5   S    
C31   H55   S    
C5    H47   S    
C123  O16   A    
C51   C53   A    
C78   N1    T    
C26   O47   S    
C126  C170  S    
C15   C89   S    
C173  O53   A    
C132  C136  A    
C102  C107  A    
C35   C61   T    
C32   C37   A    
O35   Zn10  S    
C56   H76   S    
C141  C174  S    
O23   Zn5   S    
C62   C160  S    
C118  C127  A    
O4    Zn3   S    
O24   Zn9   S    
C160  O28   A    
C101  C106  A    
C105  C109  A    
C86   N11   T    
C31   C41   A    
C6    C180  A    
C107  C111  A    
O30   Zn11  S    
C36   C39   A    
C73   H35   S    
C25   C66   S    
C4    C178  A    
C2    C66   S    
C99   H10   S    
C73   H5    S    
O14   Zn1   S    
C90   C96   T    
C128  C154  S    
C1    O1    A    
C23   C65   S    
O25   Zn10  S    
O43   Zn4   S    
C97   C123  S    
C164  O38   A    
C21   C169  S    
O19   Zn6   S    
C136  C141  A    
C163  O36   A    
C146  C151  A    
C44   C54   A    
C45   C55   A    
H94   O44   S    
C20   H53   S    
C117  C125  A    
C59   C76   S    
C93   C109  S    
C105  H16   S    
C35   C74   S    
C174  O54   A    
C93   O12   A    
C24   C159  S    
C66   C90   S    
C82   C168  S    
C15   C19   A    
C138  H36   S    
C12   C28   A    
C176  O6    A    
C3    C7    A    
C27   C60   S    
C13   C67   S    
C112  C117  A    
C115  O34   A    
C71   H13   S    
C94   C98   T    
O21   Zn7   S    
C65   C165  S    
O11   Zn7   S    
H98   O49   S    
C159  H9    S    
C85   C150  S    
C41   C55   S    
C140  C173  S    
C6    H48   S    
C12   C17   A    
C131  H29   S    
C178  H41   S    
C111  C116  A    
H95   O46   S    
C19   H52   S    
C52   C176  S    
C22   C171  S    
C4    C8    A    
C72   H24   S    
C49   H69   S    
C95   C121  S    
C133  C138  A    
C24   H88   S    
C171  O42   A    
O39   Zn11  S    
C115  O13   A    
C103  H15   S    
C15   C29   A    
C44   H64   S    
C135  C140  A    
C59   O51   S    
C56   C74   S    
C179  H42   S    
C126  H6    S    
C118  H25   S    
C132  H30   S    
C69   C94   S    
C138  C142  A    
C45   H65   S    
C129  C155  S    
C47   C51   A    
C43   H63   S    
C108  C112  A    
C79   C95   T    
C143  H37   S    
C9    C157  S    
C49   C52   A    
O56   Zn2   S    
C100  C105  A    
O1    Zn1   S    
C139  C172  S    
C119  H26   S    
C30   H54   S    
C34   H59   S    
C27   O48   S    
C20   C22   A    
C104  O11   A    
C75   C137  S    
C10   C179  A    
C39   C163  S    
C7    H49   S    
C120  H27   S    
C140  C144  A    
O5    Zn12  S    
C96   C122  S    
C86   C151  S    
C42   C54   S    
C38   C40   A    
C10   C29   S    
C11   C28   S    
C58   O50   S    
C113  H20   S    
H100  O51   S    
C177  O7    A    
C104  O23   A    
C32   C42   A    
C157  O26   A    
C163  O37   A    
C11   C180  A    
O20   Zn7   S    
C27   H75   S    
C47   H66   S    
C137  H7    S    
C44   C49   A    
C36   H60   S    
C121  O14   A    
C14   C18   A    
C126  H89   S    
C102  C129  A    
C72   C76   S    
C101  H12   S    
C127  C153  S    
C23   C56   S    
C99   C125  A    
C74   C126  S    
C166  H57   S    
C143  C147  A    
C80   N5    T    
C23   H72   S    
C26   C67   S    
C48   H67   S    
C131  C135  A    
O13   Zn7   S    
O41   Zn2   S    
C180  H43   S    
C70   H1    S    
C84   N9    T    
H99   O50   S    
C148  H92   S    
C103  C108  A    
C51   H71   S    
C43   C48   A    
C112  H19   S    
C109  C113  A    
O38   Zn10  S    
C161  O29   A    
C71   H2    S    
C1    O9    A    
C13   H87   S    
C58   C75   S    
C136  H34   S    
O33   Zn11  S    
C60   O52   S    
C38   H62   S    
C60   C77   S    
C89   N3    T    
C134  H32   S    
O12   Zn1   S    
C66   C166  S    
C58   H77   S    
C171  O43   A    
C10   C178  A    
C131  C153  A    
C19   C22   A    
C64   C162  S    
C26   H74   S    
H3    O52   S    
C16   C29   A    
O32   Zn8   S    
C144  C149  A    
O8    Zn4   S    
C125  C152  S    
C145  H39   S    
H97   O48   S    
C160  O32   A    
C24   H84   S    
C91   N4    T    
C30   C41   A    
C158  O27   A    
O15   Zn1   S    
C83   C147  S    
C122  O15   A    
C72   C167  S    
C100  H11   S    
C25   C58   S    
O31   Zn9   S    
C47   C55   A    
C172  O45   A    
C106  C110  A    
C7    C9    A    
C12   C87   S    
C133  C155  A    
C114  C119  A    
C27   C69   S    
C116  H22   S    
C173  O2    A    
C147  C152  A    
C71   C75   S    
C135  H33   S    
C165  H46   S    
C8    C156  S    
C1    C108  S    
C113  C118  A    
C150  C154  A    
C111  C115  S    
C81   N6    T    
C13   C148  S    
C14   C28   A    
C117  H23   S    
C83   N8    T    
