data_mof_unit_33073.cif
_audit_creation_date              2012-12-10T20:51:44-0500
_audit_creation_method            fapswitch 2.2
_symmetry_space_group_name_H-M    P1
_symmetry_Int_Tables_number       1
_space_group_crystal_system       triclinic
_cell_length_a                    8.094709
_cell_length_b                    8.93423
_cell_length_c                    16.880176
_cell_angle_alpha                 89.572065
_cell_angle_beta                  96.427934
_cell_angle_gamma                 90.04827
_cell_volume                      1213.06590606

loop_
_atom_site_label
_atom_site_type_symbol
_atom_type_description
_atom_site_fract_x
_atom_site_fract_y
_atom_site_fract_z
_atom_type_partial_charge
C1    C     C_R   0.499942 0.217943 0.500032 0.932517
C2    C     C_R   0.554076 0.416313 0.140923 -0.218501
C3    C     C_R   0.568455 0.501014 0.905584 0.275995
C4    C     C_R   0.431546 0.498992 0.094416 0.275995
C5    C     C_R   0.688703 0.419186 0.870033 0.169310
C6    C     C_R   0.311299 0.580820 0.129968 0.169311
C7    C     C_R   0.676437 0.410719 0.785686 0.129573
C8    C     C_R   0.323564 0.589285 0.214315 0.129573
C9    C     C_1   0.499932 0.065178 0.500015 -0.202974
C10   C     C_1   0.500068 0.934822 0.499984 -0.202974
C11   C     C_3   0.821707 0.338323 0.924746 -0.919498
C12   C     C_R   0.500058 0.782057 0.499968 0.932517
C13   C     C_3   0.178296 0.661686 0.075255 -0.919499
C14   C     C_3   0.790700 0.307375 0.745310 -0.396404
C15   C     C_3   0.956721 0.382906 0.734695 -0.783209
C16   C     C_3   0.209303 0.692629 0.254691 -0.396405
C17   C     C_3   0.043281 0.617099 0.265306 -0.783209
C18   C     C_R   0.524682 0.493416 0.653765 0.873780
C19   C     C_R   0.475318 0.506584 0.346235 0.873780
C20   C     C_R   0.546683 0.492146 0.740281 -0.109988
C21   C     C_R   0.453317 0.507856 0.259719 -0.109988
C22   C     C_R   0.435086 0.578590 0.777481 -0.276404
C23   C     C_R   0.564913 0.421412 0.222519 -0.276404
C24   C     C_R   0.445923 0.583691 0.859077 -0.218501
H1    H     H_    0.661644 0.356999 0.256946 0.177690
H2    H     H_    0.079866 0.714596 0.105676 0.248138
H3    H     H_    0.937149 0.484635 0.696744 0.271218
H4    H     H_    0.023362 0.416084 0.792925 0.249962
H5    H     H_    0.036630 0.304150 0.705543 0.242774
H6    H     H_    0.812232 0.201251 0.779424 0.199388
H7    H     H_    0.731504 0.269116 0.686530 0.205610
H8    H     H_    0.976638 0.583927 0.207075 0.249962
H9    H     H_    0.062852 0.515367 0.303255 0.271218
H10   H     H_    0.963374 0.695854 0.294460 0.242774
H11   H     H_    0.268499 0.730886 0.313471 0.205610
H12   H     H_    0.338354 0.643002 0.743053 0.177691
H13   H     H_    0.187771 0.798754 0.220578 0.199388
H14   H     H_    0.643208 0.348755 0.113763 0.168609
H15   H     H_    0.356791 0.651249 0.886236 0.168609
H16   H     H_    0.763010 0.249916 0.958771 0.242420
H17   H     H_    0.920137 0.285413 0.894325 0.248139
H18   H     H_    0.885102 0.419193 0.967582 0.242841
H19   H     H_    0.236994 0.750093 0.041231 0.242421
H20   H     H_    0.114900 0.580818 0.032418 0.242841
N1    N     N_1   0.073640 0.500030 0.499990 -0.039958
N2    N     N_1   0.926360 0.499970 0.500010 -0.039958
N3    N     N_2   0.570707 0.495770 0.989028 -0.187723
N4    N     N_2   0.429294 0.504237 0.010972 -0.187723
O1    O     O_R   0.636850 0.285340 0.500000 -0.617415
O2    O     O_R   0.363150 0.714660 0.500000 -0.617415
O3    O     O_R   0.363100 0.285350 0.500000 -0.612848
O4    O     O_R   0.636900 0.714650 0.500000 -0.612848
O5    O     O_R   0.652140 0.498630 0.616140 -0.618012
O6    O     O_R   0.347860 0.501370 0.383860 -0.618012
O7    O     O_R   0.378390 0.498650 0.616130 -0.617988
O8    O     O_R   0.621610 0.501350 0.383870 -0.617988
Zn1   Zn    Zn3+2 0.682780 0.499990 0.500010 0.971096
Zn2   Zn    Zn3+2 0.317220 0.500010 0.499990 0.971096

loop_
_geom_bond_atom_site_label_1
_geom_bond_atom_site_label_2
_ccdc_geom_bond_type
C19   O8    A    
C2    C4    A    
C5    C11   S    
C15   H5    S    
C22   H12   S    
C9    C10   T    
C2    H14   S    
C12   O2    A    
N3    N4    D    
C16   H13   S    
C21   C23   A    
C8    C21   A    
C3    C24   A    
O1    Zn1   S    
C8    C16   S    
O3    Zn2   S    
N1    N2    T    
C13   H20   S    
C6    C13   S    
C1    O3    A    
C15   H4    S    
C17   H9    S    
C18   O7    A    
C14   H6    S    
C10   C12   S    
C19   O6    A    
C3    N3    S    
C19   C21   S    
C20   C22   A    
C11   H17   S    
C18   C20   S    
C23   H1    S    
C16   H11   S    
C4    N4    S    
C11   H16   S    
N1    Zn2   S    
C22   C24   A    
C13   H2    S    
C17   H10   S    
O4    Zn1   S    
O2    Zn2   S    
C3    C5    A    
C13   H19   S    
C24   H15   S    
C1    C9    S    
O8    Zn1   S    
C11   H18   S    
C4    C6    A    
C7    C20   A    
O6    Zn2   S    
O7    Zn2   S    
C2    C23   A    
C5    C7    A    
C14   H7    S    
O5    Zn1   S    
C14   C15   S    
C6    C8    A    
C18   O5    A    
C12   O4    A    
C1    O1    A    
N2    Zn1   S    
C7    C14   S    
C17   H8    S    
C16   C17   S    
C15   H3    S    
