data_mof_unit_63752.cif
_audit_creation_date              2013-03-05T16:17:21-0500
_audit_creation_method            fapswitch 2.2
_symmetry_space_group_name_H-M    P1
_symmetry_Int_Tables_number       1
_space_group_crystal_system       triclinic
_cell_length_a                    38.841953
_cell_length_b                    38.811386
_cell_length_c                    30.217353
_cell_angle_alpha                 89.952346
_cell_angle_beta                  90.092496
_cell_angle_gamma                 90.014201
_cell_volume                      45552.8862551

loop_
_atom_site_label
_atom_site_type_symbol
_atom_site_description
_atom_site_fract_x
_atom_site_fract_y
_atom_site_fract_z
_atom_type_partial_charge
O1    O     O_R   0.028750 0.449060 0.500000 -0.636245
O2    O     O_R   0.449060 0.971250 0.500000 -0.602987
O3    O     O_R   0.971250 0.550940 0.500000 -0.636770
O4    O     O_R   0.550940 0.028750 0.500000 -0.602916
O5    O     O_R   0.028750 0.550940 0.500000 -0.637878
O6    O     O_R   0.449060 0.028750 0.500000 -0.602886
O7    O     O_R   0.971250 0.449060 0.500000 -0.637551
O8    O     O_R   0.550940 0.971250 0.500000 -0.602961
O9    O     O_R   0.528750 0.949060 0.000000 -0.637026
O10   O     O_R   0.949060 0.471250 0.000000 -0.595108
O11   O     O_R   0.471250 0.050940 0.000000 -0.590759
O12   O     O_R   0.050940 0.528750 0.000000 -0.593106
O13   O     O_R   0.528750 0.050940 0.000000 -0.590780
O14   O     O_R   0.949060 0.528750 0.000000 -0.595798
O15   O     O_R   0.471250 0.949060 0.000000 -0.637053
O16   O     O_R   0.050940 0.471250 0.000000 -0.591709
C1    C     C_R   0.000004 0.432941 0.499953 1.037375
C2    C     C_R   0.432823 0.999995 0.499993 0.934631
C3    C     C_R   0.999993 0.567059 0.499956 1.035281
C4    C     C_R   0.567176 0.000003 0.500004 0.934608
C5    C     C_R   0.499995 0.932927 0.000002 1.032348
C6    C     C_R   0.932804 0.500018 0.000428 0.923591
C7    C     C_R   0.500003 0.067216 0.000007 0.988579
C8    C     C_R   0.067199 0.500010 0.999914 0.921066
O17   O     O_R   0.028750 0.499990 0.566060 -0.642702
O18   O     O_R   0.499990 0.971250 0.566060 -0.571204
O19   O     O_R   0.971250 0.500010 0.566060 -0.642971
O20   O     O_R   0.500010 0.028750 0.566060 -0.571219
O21   O     O_R   0.028750 0.500010 0.433940 -0.641245
O22   O     O_R   0.499990 0.028750 0.433940 -0.571369
O23   O     O_R   0.971250 0.499990 0.433940 -0.642454
O24   O     O_R   0.500010 0.971250 0.433940 -0.571052
O25   O     O_R   0.528750 0.999990 0.066060 -0.645558
O26   O     O_R   0.999990 0.471250 0.066060 -0.574587
O27   O     O_R   0.471250 0.000010 0.066060 -0.640876
O28   O     O_R   0.000010 0.528750 0.066060 -0.581385
O29   O     O_R   0.528750 0.000010 0.933940 -0.640962
O30   O     O_R   0.999990 0.528750 0.933940 -0.574373
O31   O     O_R   0.471250 0.999990 0.933940 -0.645541
O32   O     O_R   0.000010 0.471250 0.933940 -0.573744
C9    C     C_R   0.000025 0.499977 0.586536 1.073142
C10   C     C_R   0.499978 0.999990 0.587045 0.969278
C11   C     C_R   0.999938 0.500280 0.413411 1.072852
C12   C     C_R   0.500003 0.000014 0.412955 0.969235
C13   C     C_R   0.500021 0.999982 0.086510 1.049325
C14   C     C_R   0.000185 0.499938 0.086957 0.937915
C15   C     C_R   0.499980 0.999978 0.913489 1.049315
C16   C     C_R   0.999988 0.500014 0.912980 0.951006
Zn1   Zn    Zn3+2 0.038390 0.500000 0.500000 0.951716
Zn2   Zn    Zn3+2 0.500000 0.961610 0.500000 1.049205
Zn3   Zn    Zn3+2 0.961610 0.500000 0.500000 0.951067
Zn4   Zn    Zn3+2 0.500000 0.038390 0.500000 1.049824
Zn5   Zn    Zn3+2 0.538390 0.000000 0.000000 0.975521
Zn6   Zn    Zn3+2 0.000000 0.461610 0.000000 1.052851
Zn7   Zn    Zn3+2 0.461610 0.000000 0.000000 0.975542
Zn8   Zn    Zn3+2 0.000000 0.538390 0.000000 1.045876
O33   O     O_R   0.949030 0.999970 0.537240 -0.614508
O34   O     O_R   0.999970 0.050970 0.537240 -0.616409
O35   O     O_R   0.050970 0.000030 0.537240 -0.614582
O36   O     O_R   0.000030 0.949030 0.537240 -0.616468
O37   O     O_R   0.949030 0.000030 0.462760 -0.614534
O38   O     O_R   0.999970 0.949030 0.462760 -0.616534
O39   O     O_R   0.050970 0.999970 0.462760 -0.614511
O40   O     O_R   0.000030 0.050970 0.462760 -0.616535
O41   O     O_R   0.449030 0.499970 0.037240 -0.617799
O42   O     O_R   0.499970 0.550970 0.037240 -0.615460
O43   O     O_R   0.550970 0.500030 0.037240 -0.619099
O44   O     O_R   0.500030 0.449030 0.037240 -0.618499
O45   O     O_R   0.449030 0.500030 0.962760 -0.619114
O46   O     O_R   0.499970 0.449030 0.962760 -0.618462
O47   O     O_R   0.550970 0.499970 0.962760 -0.617787
O48   O     O_R   0.500030 0.550970 0.962760 -0.615495
C17   C     C_R   0.932789 0.000009 0.499969 0.905942
C18   C     C_R   0.999986 0.067249 0.499979 0.907035
C19   C     C_R   0.067211 0.000008 0.500031 0.905896
C20   C     C_R   0.000025 0.932750 0.500010 0.907127
C21   C     C_R   0.432738 0.500007 0.999967 0.912148
C22   C     C_R   0.500003 0.567241 0.999984 0.909101
C23   C     C_R   0.567262 0.500006 0.000033 0.912122
C24   C     C_R   0.500002 0.432749 0.000017 0.913948
C25   C     C_R   0.987160 0.471161 0.841572 0.375420
C26   C     C_R   0.489213 0.029677 0.843618 0.312487
C27   C     C_R   0.012749 0.528921 0.841556 0.375950
C28   C     C_R   0.510750 0.970343 0.843677 0.322962
C29   C     C_R   0.984757 0.527719 0.157965 0.346738
C30   C     C_R   0.489263 0.970350 0.156390 0.322660
C31   C     C_R   0.013134 0.471300 0.158433 0.382447
C32   C     C_R   0.510777 0.029703 0.156311 0.312479
C33   C     C_R   0.488673 0.970558 0.341458 0.373494
C34   C     C_R   0.985154 0.528330 0.343286 0.325445
C35   C     C_R   0.511417 0.029510 0.341461 0.374021
C36   C     C_R   0.013007 0.471657 0.343424 0.322794
C37   C     C_R   0.488508 0.029441 0.658479 0.374147
C38   C     C_R   0.987712 0.470912 0.656462 0.320088
C39   C     C_R   0.511260 0.970503 0.658600 0.373341
C40   C     C_R   0.012444 0.529002 0.656441 0.319961
C41   C     C_R   0.999961 0.500039 0.864674 -0.319285
C42   C     C_R   0.499938 0.999983 0.866082 -0.302205
C43   C     C_R   0.999478 0.499685 0.135159 -0.331429
C44   C     C_R   0.500066 0.999995 0.133917 -0.302230
C45   C     C_R   0.500023 0.000036 0.364608 -0.319832
C46   C     C_R   0.999630 0.500232 0.365854 -0.316926
C47   C     C_R   0.499916 0.999977 0.635391 -0.319829
C48   C     C_R   0.000079 0.499956 0.633989 -0.314209
C49   C     C_R   0.010285 0.529851 0.795326 -0.012744
C50   C     C_R   0.508649 0.969577 0.797509 0.003163
C51   C     C_R   0.989652 0.470199 0.795365 -0.012649
C52   C     C_R   0.491117 0.030389 0.797428 0.018616
C53   C     C_R   0.010298 0.470206 0.204603 -0.011929
C54   C     C_R   0.508858 0.030426 0.202499 0.018583
C55   C     C_R   0.985972 0.528472 0.204162 0.006177
C56   C     C_R   0.491344 0.969600 0.202560 0.003357
C57   C     C_R   0.508955 0.030310 0.295232 -0.012856
C58   C     C_R   0.010435 0.470411 0.297298 0.004686
C59   C     C_R   0.491234 0.969732 0.295263 -0.011695
C60   C     C_R   0.986206 0.528884 0.296988 0.003639
C61   C     C_R   0.508714 0.969682 0.704803 -0.011671
C62   C     C_R   0.010363 0.529893 0.702607 0.004584
C63   C     C_R   0.490983 0.030249 0.704700 -0.012861
C64   C     C_R   0.989731 0.470061 0.702647 0.004616
C65   C     C_R   0.999989 0.500013 0.772219 -0.008520
C66   C     C_R   0.499826 0.999967 0.774302 0.000196
C67   C     C_R   0.998114 0.499403 0.227529 -0.012591
C68   C     C_R   0.500147 0.000004 0.225697 0.000204
C69   C     C_R   0.500129 0.000012 0.272124 -0.010097
C70   C     C_R   0.998189 0.499551 0.273980 0.001899
C71   C     C_R   0.499825 0.999962 0.727874 -0.010075
C72   C     C_R   0.000027 0.499989 0.725791 0.003875
C73   C     C_R   0.018408 0.559977 0.771847 -0.194526
C74   C     C_R   0.515259 0.939125 0.774161 -0.197964
C75   C     C_R   0.981538 0.440058 0.771949 -0.194143
C76   C     C_R   0.484530 0.060841 0.773971 -0.198729
C77   C     C_R   0.019872 0.440575 0.228221 -0.194896
C78   C     C_R   0.515430 0.060889 0.225885 -0.198721
C79   C     C_R   0.974977 0.557721 0.227378 -0.175550
C80   C     C_R   0.484730 0.939149 0.225980 -0.197961
C81   C     C_R   0.515573 0.060808 0.271756 -0.194051
C82   C     C_R   0.019864 0.440651 0.274075 -0.197771
C83   C     C_R   0.484595 0.939234 0.271843 -0.192437
C84   C     C_R   0.975506 0.558083 0.273287 -0.205185
C85   C     C_R   0.515368 0.939195 0.728297 -0.192462
C86   C     C_R   0.018383 0.560016 0.725978 -0.198653
C87   C     C_R   0.484368 0.060748 0.728102 -0.194048
C88   C     C_R   0.981660 0.439965 0.726080 -0.198602
H1    H     H_    0.024956 0.583658 0.788791 0.177392
H2    H     H_    0.520609 0.915150 0.791199 0.186002
H3    H     H_    0.974942 0.416400 0.788941 0.177604
H4    H     H_    0.479262 0.084840 0.790915 0.181854
H5    H     H_    0.027669 0.417237 0.211412 0.177019
H6    H     H_    0.520701 0.084887 0.208883 0.181829
H7    H     H_    0.966112 0.580553 0.210162 0.191104
H8    H     H_    0.479396 0.915166 0.209002 0.185955
H9    H     H_    0.520947 0.084780 0.288698 0.177573
H10   H     H_    0.027624 0.417380 0.291182 0.186007
H11   H     H_    0.479170 0.915276 0.288820 0.177330
H12   H     H_    0.967395 0.581343 0.290050 0.186115
H13   H     H_    0.520790 0.915236 0.711378 0.177279
H14   H     H_    0.024872 0.583708 0.708965 0.185838
H15   H     H_    0.478984 0.084713 0.711104 0.177600
H16   H     H_    0.975199 0.416255 0.709116 0.185782
C89   C     C_R   0.988523 0.122799 0.462517 -0.226582
C90   C     C_R   0.122664 0.015282 0.465137 -0.227017
C91   C     C_R   0.011455 0.877240 0.462613 -0.226587
C92   C     C_R   0.877272 0.984817 0.464957 -0.227060
C93   C     C_R   0.988927 0.877042 0.537296 -0.226868
C94   C     C_R   0.122716 0.984807 0.535085 -0.227127
C95   C     C_R   0.011258 0.122912 0.537191 -0.226721
C96   C     C_R   0.877350 0.015319 0.534820 -0.227080
C97   C     C_R   0.487870 0.622831 0.963008 -0.227826
C98   C     C_R   0.622911 0.495122 0.960566 -0.230537
C99   C     C_R   0.496324 0.377122 0.960249 -0.229424
C100  C     C_R   0.377085 0.504847 0.960243 -0.228770
C101  C     C_R   0.503718 0.377124 0.039902 -0.229446
C102  C     C_R   0.622910 0.504960 0.039730 -0.228722
C103  C     C_R   0.512160 0.622814 0.036871 -0.227754
C104  C     C_R   0.377088 0.495259 0.039479 -0.230540
H17   H     H_    0.979121 0.108753 0.433976 0.205349
H18   H     H_    0.108578 0.027681 0.438550 0.202282
H19   H     H_    0.020770 0.891317 0.434058 0.205444
H20   H     H_    0.891309 0.972401 0.438426 0.202212
H21   H     H_    0.979560 0.890967 0.565911 0.205267
H22   H     H_    0.108667 0.972407 0.561650 0.202207
H23   H     H_    0.020697 0.108953 0.565808 0.205264
H24   H     H_    0.891448 0.027722 0.561372 0.202262
H25   H     H_    0.477848 0.608819 0.934787 0.205538
H26   H     H_    0.609011 0.491544 0.929806 0.209435
H27   H     H_    0.493731 0.391018 0.929321 0.210051
H28   H     H_    0.390986 0.508307 0.929511 0.209882
H29   H     H_    0.506304 0.391022 0.070802 0.210036
H30   H     H_    0.609007 0.508524 0.070433 0.209854
H31   H     H_    0.522185 0.608790 0.065107 0.205576
H32   H     H_    0.390989 0.491779 0.070263 0.209479
C105  C     C_R   0.987559 0.158735 0.462251 0.297495
C106  C     C_R   0.158585 0.016347 0.465263 0.298379
C107  C     C_R   0.012439 0.841307 0.462361 0.297408
C108  C     C_R   0.841347 0.983769 0.465041 0.298478
C109  C     C_R   0.988091 0.841095 0.537368 0.297848
C110  C     C_R   0.158639 0.983744 0.535003 0.298496
C111  C     C_R   0.012122 0.158856 0.537244 0.297724
C112  C     C_R   0.841430 0.016400 0.534690 0.298394
C113  C     C_R   0.486925 0.658771 0.962875 0.296249
C114  C     C_R   0.658811 0.495437 0.959980 0.296225
C115  C     C_R   0.496686 0.341220 0.959645 0.295772
C116  C     C_R   0.341184 0.504581 0.959522 0.296386
C117  C     C_R   0.503383 0.341221 0.040580 0.295775
C118  C     C_R   0.658810 0.504689 0.040462 0.296367
C119  C     C_R   0.513099 0.658754 0.036968 0.296186
C120  C     C_R   0.341190 0.495588 0.040071 0.296197
C121  C     C_R   0.999819 0.176960 0.499691 -0.175641
C122  C     C_R   0.176814 0.000037 0.500136 -0.174220
C123  C     C_R   0.000288 0.823038 0.499808 -0.175677
C124  C     C_R   0.823187 0.000084 0.499862 -0.174219
C125  C     C_R   0.500006 0.676932 0.999916 -0.176615
C126  C     C_R   0.676854 0.500071 0.000258 -0.182350
C127  C     C_R   0.500039 0.323194 0.000131 -0.181979
C128  C     C_R   0.323144 0.500095 0.999764 -0.182390
C129  C     C_R   0.999922 0.104876 0.499903 -0.156486
C130  C     C_R   0.104762 0.000036 0.500092 -0.153468
C131  C     C_R   0.000137 0.895122 0.499988 -0.156553
C132  C     C_R   0.895238 0.000050 0.499908 -0.153469
C133  C     C_R   0.500013 0.604854 0.999951 -0.157176
C134  C     C_R   0.604904 0.500027 0.000112 -0.159697
C135  C     C_R   0.500013 0.395121 0.000057 -0.160307
C136  C     C_R   0.395093 0.500034 0.999893 -0.159757
C137  C     C_R   0.979935 0.232624 0.530569 -0.071314
C138  C     C_R   0.232627 0.015020 0.535377 -0.072542
C139  C     C_R   0.020271 0.767312 0.530597 -0.071210
C140  C     C_R   0.767508 0.985058 0.535212 -0.072860
C141  C     C_R   0.980366 0.767466 0.468580 -0.071521
C142  C     C_R   0.232484 0.984978 0.464833 -0.072842
C143  C     C_R   0.019606 0.232599 0.468468 -0.071440
C144  C     C_R   0.767384 0.015066 0.464580 -0.072475
C145  C     C_R   0.480990 0.732560 0.031829 -0.072901
C146  C     C_R   0.732188 0.530893 0.007455 -0.072250
C147  C     C_R   0.530476 0.267913 0.009591 -0.072368
C148  C     C_R   0.267819 0.469300 0.007007 -0.072696
C149  C     C_R   0.469599 0.267907 0.990757 -0.072547
C150  C     C_R   0.732170 0.469259 0.993250 -0.072602
C151  C     C_R   0.518977 0.732630 0.968009 -0.072777
C152  C     C_R   0.267820 0.530894 0.992390 -0.072352
H33   H     H_    0.964433 0.218876 0.554565 0.147890
H34   H     H_    0.218968 0.026826 0.562665 0.148040
H35   H     H_    0.035865 0.781011 0.554576 0.147852
H36   H     H_    0.781271 0.973273 0.562512 0.147898
H37   H     H_    0.964769 0.781287 0.444697 0.148021
H38   H     H_    0.218713 0.973183 0.437568 0.147936
H39   H     H_    0.035113 0.218829 0.444535 0.147970
H40   H     H_    0.781051 0.026856 0.437257 0.148079
H41   H     H_    0.466135 0.718777 0.056462 0.146221
H42   H     H_    0.718378 0.554753 0.012964 0.144314
H43   H     H_    0.554036 0.281746 0.016902 0.143662
H44   H     H_    0.281633 0.445454 0.012700 0.143394
H45   H     H_    0.446040 0.281735 0.983434 0.143623
H46   H     H_    0.718348 0.445397 0.987705 0.143504
H47   H     H_    0.533839 0.718902 0.943369 0.146217
H48   H     H_    0.281637 0.554739 0.986711 0.144308
C153  C     C_R   0.980146 0.268428 0.530715 -0.169409
C154  C     C_R   0.268421 0.014676 0.535557 -0.168874
C155  C     C_R   0.020063 0.731508 0.530690 -0.169516
C156  C     C_R   0.731715 0.985391 0.535464 -0.168978
C157  C     C_R   0.980547 0.731661 0.468264 -0.168907
C158  C     C_R   0.268277 0.985307 0.464580 -0.168961
C159  C     C_R   0.019421 0.268405 0.468200 -0.169007
C160  C     C_R   0.731589 0.014725 0.464399 -0.168872
C161  C     C_R   0.481205 0.768365 0.032057 -0.169945
C162  C     C_R   0.767942 0.530924 0.007359 -0.170567
C163  C     C_R   0.530502 0.232156 0.009514 -0.169587
C164  C     C_R   0.232065 0.469276 0.006886 -0.170663
C165  C     C_R   0.469576 0.232151 0.990840 -0.169522
C166  C     C_R   0.767924 0.469237 0.993409 -0.170162
C167  C     C_R   0.518756 0.768436 0.967814 -0.169991
C168  C     C_R   0.232065 0.530924 0.992526 -0.170515
H49   H     H_    0.964728 0.282133 0.554804 0.144753
H50   H     H_    0.282261 0.026151 0.562996 0.141519
H51   H     H_    0.035573 0.717752 0.554730 0.144732
H52   H     H_    0.717981 0.973921 0.562962 0.141337
H53   H     H_    0.964991 0.718027 0.444182 0.145305
H54   H     H_    0.282004 0.973824 0.437114 0.141381
H55   H     H_    0.034877 0.282092 0.444097 0.145109
H56   H     H_    0.717758 0.026187 0.436925 0.141514
H57   H     H_    0.466445 0.782044 0.056843 0.143855
H58   H     H_    0.781581 0.554851 0.013158 0.144403
H59   H     H_    0.554109 0.218520 0.017155 0.144593
H60   H     H_    0.218434 0.445369 0.012840 0.144544
H61   H     H_    0.445971 0.218512 0.983192 0.144580
H62   H     H_    0.781547 0.445314 0.987626 0.144792
H63   H     H_    0.533514 0.782170 0.943041 0.143838
H64   H     H_    0.218432 0.554834 0.986586 0.144759
C169  C     C_R   0.999807 0.286399 0.499445 0.145635
C170  C     C_R   0.286229 0.999990 0.500048 0.147278
C171  C     C_R   0.000282 0.713601 0.499440 0.145588
C172  C     C_R   0.713772 0.000057 0.499950 0.147337
C173  C     C_R   0.499981 0.786373 0.999946 0.146188
C174  C     C_R   0.785925 0.500083 0.000395 0.151980
C175  C     C_R   0.500040 0.214174 0.000174 0.151306
C176  C     C_R   0.214075 0.500102 0.999716 0.151693
C177  C     C_R   0.999780 0.214660 0.499568 0.197859
C178  C     C_R   0.214562 0.000005 0.500121 0.196011
C179  C     C_R   0.000308 0.785339 0.499663 0.197926
C180  C     C_R   0.785439 0.000065 0.499879 0.195987
C181  C     C_R   0.499987 0.714638 0.999913 0.199114
C182  C     C_R   0.714356 0.500074 0.000332 0.207145
C183  C     C_R   0.500038 0.285716 0.000168 0.206310
C184  C     C_R   0.285641 0.500096 0.999703 0.207355
C185  C     C_R   0.992095 0.342035 0.460671 -0.274967
C186  C     C_R   0.341398 0.019438 0.468591 -0.291750
C187  C     C_R   0.007702 0.658004 0.460601 -0.274124
C188  C     C_R   0.658518 0.980605 0.468566 -0.292198
C189  C     C_R   0.992327 0.658155 0.538460 -0.275236
C190  C     C_R   0.341479 0.980510 0.531424 -0.292218
C191  C     C_R   0.007909 0.341800 0.538450 -0.274779
C192  C     C_R   0.658602 0.019450 0.531401 -0.291762
C193  C     C_R   0.490565 0.841901 0.961641 -0.275792
C194  C     C_R   0.841379 0.524156 0.974804 -0.293681
C195  C     C_R   0.525411 0.158750 0.976826 -0.284001
C196  C     C_R   0.158565 0.475991 0.974258 -0.291928
C197  C     C_R   0.474660 0.158689 0.023433 -0.284660
C198  C     C_R   0.841418 0.476010 0.026008 -0.287911
C199  C     C_R   0.509391 0.841837 0.038306 -0.275566
C200  C     C_R   0.158654 0.524201 0.025268 -0.292794
H65   H     H_    0.986441 0.328172 0.430415 0.166519
H66   H     H_    0.326891 0.034956 0.445352 0.158964
H67   H     H_    0.013170 0.671903 0.430310 0.166417
H68   H     H_    0.672974 0.965127 0.445324 0.158733
H69   H     H_    0.986803 0.672150 0.568633 0.167129
H70   H     H_    0.327021 0.964996 0.554666 0.158717
H71   H     H_    0.013590 0.327770 0.568600 0.167132
H72   H     H_    0.673111 0.034944 0.554641 0.158936
H73   H     H_    0.483769 0.827979 0.931816 0.167193
H74   H     H_    0.827249 0.542864 0.955352 0.155883
H75   H     H_    0.545123 0.172767 0.958995 0.161026
H76   H     H_    0.172652 0.457266 0.954879 0.155426
H77   H     H_    0.454952 0.172666 0.041279 0.160770
H78   H     H_    0.827361 0.457269 0.045450 0.157866
H79   H     H_    0.516183 0.827865 0.068121 0.167217
H80   H     H_    0.172813 0.542947 0.044595 0.154986
C201  C     C_R   0.991020 0.378019 0.460933 0.395170
C202  C     C_R   0.377534 0.019170 0.467645 0.416173
C203  C     C_R   0.008731 0.622015 0.460853 0.394293
C204  C     C_R   0.622377 0.980862 0.467632 0.416323
C205  C     C_R   0.991061 0.622194 0.538439 0.390898
C206  C     C_R   0.377621 0.980782 0.532359 0.416314
C207  C     C_R   0.009126 0.377765 0.538426 0.390366
C208  C     C_R   0.622467 0.019165 0.532347 0.416176
C209  C     C_R   0.489422 0.877869 0.961877 0.391284
C210  C     C_R   0.877399 0.523693 0.973474 0.421015
C211  C     C_R   0.525034 0.122796 0.975510 0.411616
C212  C     C_R   0.122545 0.476420 0.972960 0.422838
C213  C     C_R   0.475006 0.122728 0.024656 0.412405
C214  C     C_R   0.877408 0.476463 0.027332 0.419828
C215  C     C_R   0.510533 0.877807 0.038100 0.390887
C216  C     C_R   0.122635 0.523729 0.026664 0.422980
C217  C     C_R   0.000030 0.395674 0.499777 -0.254869
C218  C     C_R   0.395332 0.999982 0.499999 -0.213429
C219  C     C_R   0.999957 0.604324 0.499760 -0.254561
C220  C     C_R   0.604668 0.000009 0.499995 -0.213415
C221  C     C_R   0.499984 0.895635 0.999993 -0.259706
C222  C     C_R   0.895292 0.500078 0.000452 -0.233745
C223  C     C_R   0.500011 0.104768 0.000053 -0.257485
C224  C     C_R   0.104723 0.500046 0.999850 -0.229226
C225  C     C_R   0.999926 0.323985 0.499517 -0.008517
C226  C     C_R   0.323684 0.999977 0.500016 -0.000694
C227  C     C_R   0.000130 0.676013 0.499496 -0.008541
C228  C     C_R   0.676315 0.000037 0.499976 -0.000651
C229  C     C_R   0.499980 0.823945 0.999965 -0.008540
C230  C     C_R   0.823504 0.500087 0.000409 -0.000837
C231  C     C_R   0.500042 0.176614 0.000152 -0.002096
C232  C     C_R   0.176497 0.500101 0.999746 0.001769
Zn9   Zn    Zn3+2 0.000000 0.000000 0.549810 1.020793
Zn10  Zn    Zn3+2 0.000000 0.000000 0.450190 1.020902
Zn11  Zn    Zn3+2 0.500000 0.500000 0.049810 1.019865
Zn12  Zn    Zn3+2 0.500000 0.500000 0.950190 1.019835
O49   O     O_3   0.973171 0.443496 0.864498 -0.582349
C233  C     C_3   0.936863 0.442767 0.859066 0.078983
H81   H     H_    0.929187 0.416094 0.850150 0.165896
H82   H     H_    0.926713 0.460013 0.832444 0.121988
C234  C     C_3   0.919376 0.452139 0.902336 -0.786405
H83   H     H_    0.926289 0.478895 0.911526 0.232260
H84   H     H_    0.890991 0.450413 0.898528 0.199996
H85   H     H_    0.927683 0.434207 0.928926 0.282966
O50   O     O_3   0.480326 0.058887 0.867324 -0.633233
C235  C     C_3   0.444072 0.061174 0.869720 0.091822
H86   H     H_    0.432864 0.038142 0.886250 0.166832
H87   H     H_    0.432356 0.063718 0.836244 0.138160
C236  C     C_3   0.434429 0.092895 0.896484 -0.804839
H88   H     H_    0.444914 0.116402 0.880416 0.245886
H89   H     H_    0.405979 0.095134 0.898535 0.216135
H90   H     H_    0.445093 0.090855 0.930476 0.267218
O51   O     O_3   0.026678 0.556617 0.864482 -0.582496
C237  C     C_3   0.062975 0.557497 0.859099 0.079819
H91   H     H_    0.070551 0.584257 0.850448 0.166076
H92   H     H_    0.073125 0.540477 0.832320 0.122306
C238  C     C_3   0.080576 0.547870 0.902285 -0.788980
H93   H     H_    0.073720 0.521044 0.911227 0.231673
H94   H     H_    0.108951 0.549660 0.898501 0.200477
H95   H     H_    0.072306 0.565616 0.929025 0.283066
O52   O     O_3   0.520501 0.941378 0.867422 -0.566414
C239  C     C_3   0.556839 0.939868 0.869159 0.118967
H96   H     H_    0.567860 0.963484 0.884527 0.150719
H97   H     H_    0.568058 0.936794 0.835535 0.123050
C240  C     C_3   0.567593 0.908975 0.896912 -0.757814
H98   H     H_    0.556873 0.884948 0.882451 0.259652
H99   H     H_    0.596108 0.907049 0.897752 0.191085
H100  H     H_    0.557979 0.911869 0.931267 0.262727
O53   O     O_3   0.969980 0.554925 0.135080 -0.579743
C241  C     C_3   0.935265 0.546562 0.126004 0.091657
H101  H     H_    0.920426 0.543410 0.157272 0.132660
H102  H     H_    0.933287 0.522477 0.106173 0.126441
C242  C     C_3   0.918988 0.575464 0.099211 -0.753353
H103  H     H_    0.933264 0.579114 0.067736 0.274695
H104  H     H_    0.891818 0.568882 0.091412 0.199309
H105  H     H_    0.919605 0.599843 0.118411 0.249234
O54   O     O_3   0.479536 0.941369 0.132711 -0.566727
C243  C     C_3   0.443199 0.939824 0.130949 0.118883
H106  H     H_    0.432172 0.963436 0.115542 0.150687
H107  H     H_    0.431968 0.936725 0.164571 0.123089
C244  C     C_3   0.432471 0.908935 0.103233 -0.757433
H108  H     H_    0.443198 0.884911 0.117731 0.259752
H109  H     H_    0.403958 0.906980 0.102378 0.190975
H110  H     H_    0.442095 0.911855 0.068879 0.262784
O55   O     O_3   0.028416 0.444288 0.135661 -0.582436
C245  C     C_3   0.064670 0.444952 0.141626 0.078891
H111  H     H_    0.073173 0.418845 0.151998 0.165116
H112  H     H_    0.074021 0.463377 0.167388 0.121560
C246  C     C_3   0.082148 0.453613 0.098114 -0.786935
H113  H     H_    0.074592 0.479931 0.087771 0.233589
H114  H     H_    0.110548 0.452709 0.102204 0.199457
H115  H     H_    0.074405 0.434845 0.072234 0.282255
O56   O     O_3   0.519669 0.058913 0.132535 -0.633151
C247  C     C_3   0.555924 0.061222 0.130159 0.091751
H116  H     H_    0.567135 0.038210 0.113648 0.166899
H117  H     H_    0.567630 0.063742 0.163639 0.138139
C248  C     C_3   0.565575 0.092972 0.103380 -0.804474
H118  H     H_    0.555066 0.116457 0.119412 0.245902
H119  H     H_    0.594026 0.095239 0.101367 0.216092
H120  H     H_    0.554942 0.090947 0.069375 0.267305
O57   O     O_3   0.476037 0.942215 0.364315 -0.579572
C249  C     C_3   0.439800 0.939734 0.358942 0.072598
H121  H     H_    0.433521 0.913086 0.348279 0.164565
H122  H     H_    0.428603 0.957510 0.333610 0.120069
C250  C     C_3   0.422049 0.946356 0.402879 -0.775949
H123  H     H_    0.427140 0.973184 0.413479 0.242224
H124  H     H_    0.393823 0.942782 0.399232 0.196041
H125  H     H_    0.431820 0.928229 0.428419 0.278240
O58   O     O_3   0.973326 0.556527 0.366908 -0.566527
C251  C     C_3   0.937044 0.554869 0.369899 0.119991
H126  H     H_    0.928360 0.530243 0.385112 0.149145
H127  H     H_    0.924785 0.557316 0.336760 0.124156
C252  C     C_3   0.924437 0.584439 0.398607 -0.758452
H128  H     H_    0.932240 0.609449 0.383800 0.258061
H129  H     H_    0.895933 0.583603 0.401127 0.192285
H130  H     H_    0.935639 0.582358 0.432319 0.266385
O59   O     O_3   0.523961 0.057879 0.364342 -0.579593
C253  C     C_3   0.560191 0.060484 0.359126 0.072942
H131  H     H_    0.566397 0.087208 0.348676 0.165334
H132  H     H_    0.571426 0.042884 0.333706 0.120394
C254  C     C_3   0.577973 0.053660 0.403075 -0.776053
H133  H     H_    0.572899 0.026778 0.413498 0.242385
H134  H     H_    0.606195 0.057264 0.399537 0.196467
H135  H     H_    0.568209 0.071661 0.428687 0.278513
O60   O     O_3   0.025243 0.443669 0.367215 -0.565548
C255  C     C_3   0.061587 0.445072 0.368633 0.120213
H136  H     H_    0.070856 0.469853 0.382846 0.148026
H137  H     H_    0.072850 0.442022 0.335041 0.123408
C256  C     C_3   0.074766 0.415825 0.397576 -0.759597
H138  H     H_    0.066344 0.390669 0.383791 0.258039
H139  H     H_    0.103330 0.416448 0.398853 0.192191
H140  H     H_    0.064546 0.418509 0.431684 0.266311
O61   O     O_3   0.475942 0.057797 0.635544 -0.579560
C257  C     C_3   0.439712 0.060364 0.640772 0.072927
H141  H     H_    0.433493 0.087081 0.651172 0.165320
H142  H     H_    0.428493 0.042749 0.666233 0.120397
C258  C     C_3   0.421921 0.053524 0.596846 -0.776238
H143  H     H_    0.427024 0.026654 0.586468 0.242428
H144  H     H_    0.393697 0.057082 0.600394 0.196478
H145  H     H_    0.431657 0.071548 0.571199 0.278550
O62   O     O_3   0.976878 0.442337 0.632761 -0.566578
C259  C     C_3   0.940518 0.442191 0.630868 0.120080
H146  H     H_    0.930395 0.466331 0.615793 0.148640
H147  H     H_    0.929108 0.439219 0.664401 0.123591
C260  C     C_3   0.928744 0.411965 0.602645 -0.756043
H148  H     H_    0.938261 0.387416 0.617087 0.259017
H149  H     H_    0.900185 0.411264 0.601277 0.191394
H150  H     H_    0.938886 0.414642 0.568497 0.265058
O63   O     O_3   0.523879 0.942162 0.635796 -0.579593
C261  C     C_3   0.560116 0.939681 0.641162 0.072576
H151  H     H_    0.566382 0.913037 0.651900 0.164542
H152  H     H_    0.571329 0.957468 0.666438 0.120060
C262  C     C_3   0.577861 0.946281 0.597200 -0.775751
H153  H     H_    0.572798 0.973109 0.586533 0.242229
H154  H     H_    0.606084 0.942690 0.600843 0.196002
H155  H     H_    0.568063 0.928153 0.571710 0.278203
O64   O     O_3   0.023319 0.557555 0.632715 -0.566333
C263  C     C_3   0.059678 0.557653 0.630999 0.120352
H156  H     H_    0.069773 0.533495 0.616031 0.148502
H157  H     H_    0.071072 0.560620 0.664584 0.123726
C264  C     C_3   0.071503 0.587857 0.602756 -0.755762
H158  H     H_    0.062014 0.612421 0.617092 0.258963
H159  H     H_    0.100064 0.588519 0.601523 0.191522
H160  H     H_    0.061369 0.585185 0.568567 0.265131
N1    N     N_R   0.973300 0.176162 0.424325 0.208512
O65   O     O_R   0.953302 0.202765 0.429354 -0.376150
O66   O     O_R   0.976524 0.162813 0.385054 -0.366827
N2    N     N_R   0.175987 0.034872 0.430571 0.206983
O67   O     O_R   0.202275 0.054448 0.439617 -0.376022
O68   O     O_R   0.162808 0.035973 0.390970 -0.368902
N3    N     N_R   0.026597 0.823927 0.424432 0.208530
O69   O     O_R   0.046613 0.797321 0.429459 -0.376297
O70   O     O_R   0.023260 0.837319 0.385159 -0.366914
N4    N     N_R   0.823877 0.965243 0.430376 0.206973
O71   O     O_R   0.797609 0.945664 0.439442 -0.376137
O72   O     O_R   0.836979 0.964139 0.390790 -0.368716
N5    N     N_R   0.974010 0.823489 0.575214 0.208446
O73   O     O_R   0.954084 0.796826 0.570062 -0.376700
O74   O     O_R   0.977310 0.836724 0.614552 -0.367176
N6    N     N_R   0.176093 0.965224 0.569720 0.206967
O75   O     O_R   0.202346 0.945634 0.560709 -0.376179
O76   O     O_R   0.162989 0.964139 0.609308 -0.368842
N7    N     N_R   0.026332 0.176413 0.575068 0.208462
O77   O     O_R   0.046268 0.203062 0.569882 -0.376439
O78   O     O_R   0.023140 0.163144 0.614417 -0.366999
N8    N     N_R   0.824046 0.034947 0.569329 0.206979
O79   O     O_R   0.797774 0.054530 0.560228 -0.375982
O80   O     O_R   0.837225 0.036060 0.608927 -0.368983
N9    N     N_R   0.471837 0.676264 0.925536 0.208649
O81   O     O_R   0.451929 0.702834 0.931381 -0.376389
O82   O     O_R   0.474200 0.662991 0.886120 -0.365436
N10   N     N_R   0.676375 0.491451 0.918318 0.211919
O83   O     O_R   0.704026 0.509130 0.909632 -0.380183
O84   O     O_R   0.662500 0.473226 0.886853 -0.367246
N11   N     N_R   0.494092 0.323631 0.917784 0.212129
O85   O     O_R   0.512197 0.296088 0.910028 -0.377336
O86   O     O_R   0.476791 0.337414 0.885376 -0.365968
N12   N     N_R   0.323617 0.508462 0.917763 0.212552
O87   O     O_R   0.295926 0.490813 0.909110 -0.378937
O88   O     O_R   0.337521 0.526553 0.886210 -0.362866
N13   N     N_R   0.505991 0.323632 0.082478 0.212126
O89   O     O_R   0.487909 0.296065 0.090290 -0.377363
O90   O     O_R   0.523280 0.337437 0.114857 -0.365915
N14   N     N_R   0.676374 0.508702 0.082195 0.212569
O91   O     O_R   0.704043 0.491063 0.090994 -0.378634
O92   O     O_R   0.662485 0.526909 0.113602 -0.362710
N15   N     N_R   0.528188 0.676230 0.074289 0.208671
O93   O     O_R   0.548089 0.702819 0.068415 -0.376319
O94   O     O_R   0.525831 0.662927 0.113717 -0.365373
N16   N     N_R   0.323629 0.491741 0.081768 0.211915
O95   O     O_R   0.295991 0.509453 0.090326 -0.380290
O96   O     O_R   0.337498 0.473619 0.113368 -0.367320
O97   O     O_3   0.984278 0.396237 0.422487 -0.569669
C265  C     C_3   0.949112 0.392731 0.411507 0.130065
H161  H     H_    0.932306 0.399741 0.440012 0.133128
H162  H     H_    0.943278 0.365918 0.400854 0.138845
C266  C     C_3   0.940650 0.416821 0.373273 -0.759693
H163  H     H_    0.957091 0.410705 0.344278 0.267942
H164  H     H_    0.913208 0.413779 0.363698 0.193400
H165  H     H_    0.945136 0.443964 0.383294 0.253007
O98   O     O_3   0.396411 0.038626 0.437448 -0.592926
C267  C     C_3   0.382779 0.036287 0.394118 0.076509
H166  H     H_    0.361609 0.055270 0.389849 0.164853
H167  H     H_    0.373154 0.009877 0.386385 0.128903
C268  C     C_3   0.410913 0.044963 0.360966 -0.775048
H168  H     H_    0.432180 0.026042 0.363725 0.237497
H169  H     H_    0.400355 0.044006 0.326819 0.202668
H170  H     H_    0.421169 0.071202 0.367405 0.275583
O99   O     O_3   0.015130 0.603825 0.422351 -0.570615
C269  C     C_3   0.050178 0.607385 0.410931 0.130187
H171  H     H_    0.067278 0.600417 0.439248 0.133025
H172  H     H_    0.055860 0.634201 0.400125 0.139166
C270  C     C_3   0.058293 0.583289 0.372664 -0.761003
H173  H     H_    0.041522 0.589333 0.343875 0.269058
H174  H     H_    0.085622 0.586398 0.362706 0.193263
H175  H     H_    0.053989 0.556144 0.382837 0.251977
O100  O     O_3   0.603403 0.961459 0.437433 -0.593138
C271  C     C_3   0.617056 0.963620 0.394150 0.076270
H176  H     H_    0.638119 0.944507 0.390093 0.165024
H177  H     H_    0.626825 0.989959 0.386303 0.129167
C272  C     C_3   0.588884 0.955024 0.360920 -0.774382
H178  H     H_    0.567762 0.974117 0.363402 0.237160
H179  H     H_    0.599474 0.955772 0.326823 0.203087
H180  H     H_    0.578426 0.928888 0.367524 0.275779
O101  O     O_3   0.984082 0.604210 0.576956 -0.569138
C273  C     C_3   0.948823 0.607702 0.587286 0.132187
H181  H     H_    0.932259 0.600410 0.558592 0.133090
H182  H     H_    0.942846 0.634589 0.597465 0.138068
C274  C     C_3   0.940109 0.583900 0.625690 -0.756288
H183  H     H_    0.956244 0.590352 0.654918 0.267519
H184  H     H_    0.912566 0.586885 0.634679 0.192151
H185  H     H_    0.944815 0.556694 0.616146 0.254624
O102  O     O_3   0.396595 0.961350 0.562560 -0.593171
C275  C     C_3   0.382929 0.963429 0.605838 0.076208
H186  H     H_    0.361881 0.944282 0.609880 0.165028
H187  H     H_    0.373137 0.989744 0.613690 0.129185
C276  C     C_3   0.411100 0.954821 0.639077 -0.774297
H188  H     H_    0.432204 0.973949 0.636614 0.237187
H189  H     H_    0.400499 0.955499 0.673169 0.203079
H190  H     H_    0.421584 0.928711 0.632465 0.275796
O103  O     O_3   0.016185 0.395713 0.576938 -0.569487
C277  C     C_3   0.051475 0.392268 0.587264 0.132026
H191  H     H_    0.067953 0.399601 0.558559 0.133167
H192  H     H_    0.057518 0.365384 0.597476 0.138279
C278  C     C_3   0.060246 0.416065 0.625638 -0.756092
H193  H     H_    0.044199 0.409567 0.654876 0.267581
H194  H     H_    0.087819 0.413128 0.634624 0.192391
H195  H     H_    0.055459 0.443268 0.616062 0.254566
O104  O     O_3   0.603591 0.038578 0.562540 -0.592903
C279  C     C_3   0.617217 0.036182 0.605873 0.076565
H196  H     H_    0.638400 0.055153 0.610146 0.164821
H197  H     H_    0.626821 0.009760 0.613609 0.128879
C280  C     C_3   0.589085 0.044825 0.639019 -0.775205
H198  H     H_    0.567800 0.025918 0.636250 0.237478
H199  H     H_    0.599636 0.043815 0.673169 0.202670
H200  H     H_    0.578856 0.071077 0.632581 0.275554
O105  O     O_3   0.481300 0.895954 0.923794 -0.567761
C281  C     C_3   0.445708 0.892815 0.915254 0.132363
H201  H     H_    0.430187 0.900323 0.944735 0.133245
H202  H     H_    0.439103 0.865981 0.905448 0.137361
C282  C     C_3   0.436065 0.916682 0.877248 -0.754247
H203  H     H_    0.451084 0.909920 0.847230 0.266194
H204  H     H_    0.408192 0.914126 0.869729 0.192297
H205  H     H_    0.441575 0.943830 0.886407 0.257029
O106  O     O_3   0.895796 0.546953 0.947720 -0.587158
C283  C     C_3   0.884744 0.545936 0.903106 0.073077
H206  H     H_    0.862687 0.563804 0.898346 0.161501
H207  H     H_    0.877058 0.519527 0.892328 0.130698
C284  C     C_3   0.914105 0.557711 0.873460 -0.762630
H208  H     H_    0.936432 0.540125 0.877290 0.246069
H209  H     H_    0.905677 0.557435 0.838329 0.201413
H210  H     H_    0.922107 0.584272 0.882462 0.270467
O107  O     O_3   0.549725 0.104921 0.951714 -0.590408
C285  C     C_3   0.545536 0.111561 0.906018 0.114437
H211  H     H_    0.556723 0.137062 0.897378 0.140607
H212  H     H_    0.517919 0.111028 0.895869 0.178810
C286  C     C_3   0.564451 0.084055 0.879741 -0.744311
H213  H     H_    0.554338 0.058156 0.888326 0.266512
H214  H     H_    0.560678 0.088517 0.843749 0.205928
H215  H     H_    0.592411 0.084954 0.887389 0.245143
O108  O     O_3   0.104073 0.453112 0.947339 -0.587004
C287  C     C_3   0.115040 0.453988 0.902728 0.071892
H216  H     H_    0.137060 0.436072 0.898108 0.162121
H217  H     H_    0.122743 0.480356 0.891780 0.130586
C288  C     C_3   0.085604 0.442176 0.873134 -0.761404
H218  H     H_    0.063315 0.459812 0.876822 0.245714
H219  H     H_    0.093964 0.442336 0.838010 0.201590
H220  H     H_    0.077573 0.415655 0.882312 0.270823
O109  O     O_3   0.450288 0.104779 0.048375 -0.590339
C289  C     C_3   0.454292 0.111442 0.094080 0.114867
H221  H     H_    0.442954 0.136882 0.102604 0.140428
H222  H     H_    0.481877 0.111053 0.104387 0.178829
C290  C     C_3   0.435414 0.083840 0.120310 -0.744796
H223  H     H_    0.445660 0.057991 0.111821 0.266584
H224  H     H_    0.439057 0.088310 0.156313 0.205769
H225  H     H_    0.407474 0.084609 0.112520 0.245158
O110  O     O_3   0.895656 0.453110 0.053091 -0.584658
C291  C     C_3   0.886487 0.456516 0.098152 0.076046
H226  H     H_    0.862531 0.441789 0.105000 0.161635
H227  H     H_    0.882675 0.483967 0.107960 0.113852
C292  C     C_3   0.915152 0.441718 0.126770 -0.773909
H228  H     H_    0.939544 0.455718 0.120388 0.249409
H229  H     H_    0.908427 0.444461 0.162297 0.200962
H230  H     H_    0.918890 0.413989 0.119120 0.270881
O111  O     O_3   0.518639 0.895828 0.076203 -0.568063
C293  C     C_3   0.554230 0.892706 0.084752 0.132246
H231  H     H_    0.569755 0.900268 0.055278 0.133262
H232  H     H_    0.560841 0.865865 0.094555 0.137430
C294  C     C_3   0.563858 0.916531 0.122763 -0.753744
H233  H     H_    0.548839 0.909713 0.152777 0.266238
H234  H     H_    0.591732 0.913989 0.130288 0.192221
H235  H     H_    0.558338 0.943686 0.113607 0.257127
O112  O     O_3   0.104220 0.547060 0.052244 -0.587122
C295  C     C_3   0.115581 0.546645 0.096748 0.072397
H236  H     H_    0.137292 0.565019 0.100956 0.162063
H237  H     H_    0.123898 0.520510 0.107878 0.130748
C296  C     C_3   0.086170 0.558040 0.126531 -0.762814
H238  H     H_    0.064187 0.539937 0.123282 0.246249
H239  H     H_    0.094848 0.558280 0.161561 0.201384
H240  H     H_    0.077540 0.584336 0.117168 0.270884

loop_
_geom_bond_atom_site_label_1
_geom_bond_atom_site_label_2
_geom_bond_distance
_ccdc_geom_bond_type
O46   Zn12  2.014042 S    
C287  H216  1.111478 S    
C89   C129  1.397634 A    
C74   H2    1.083027 S    
C63   C87   1.403330 A    
C246  H113  1.107482 S    
N11   O85   1.301335 A    
C102  C134  1.398785 A    
C103  C119  1.395323 A    
C146  H42   1.083403 S    
C289  C290  1.521055 S    
C25   C51   1.400289 A    
C296  H238  1.109928 S    
C161  H57   1.083383 S    
C113  N9    1.440233 S    
O98   C267  1.414530 S    
C258  H145  1.110347 S    
C267  C268  1.521155 S    
O112  C295  1.414740 S    
C15   C42   1.432524 S    
C185  H65   1.083376 S    
C150  H46   1.083406 S    
C115  C127  1.414639 A    
C56   C80   1.400941 A    
C56   C68   1.413687 A    
O18   Zn2   2.031223 S    
O56   C247  1.412979 S    
C197  C213  1.396202 A    
N3    O70   1.301458 A    
O6    Zn4   2.013585 S    
C256  H140  1.110049 S    
O25   C13   1.276444 A    
C281  C282  1.521285 S    
C50   C74   1.400967 A    
C274  H183  1.110852 S    
C150  C166  1.388741 A    
C74   C85   1.385924 A    
C283  H206  1.111479 S    
C260  H149  1.110345 S    
C234  H85   1.110134 S    
C114  N10   1.441335 S    
C251  C252  1.520759 S    
C276  H189  1.110383 S    
C214  O110  1.388216 S    
C39   O63   1.388348 S    
C39   C47   1.411576 A    
N10   O83   1.301321 A    
C252  H129  1.110359 S    
C293  C294  1.521288 S    
C64   C88   1.401139 A    
O3    C3    1.279639 A    
C273  H181  1.115515 S    
C34   C60   1.399837 A    
C88   H16   1.082955 S    
C120  C128  1.415028 A    
C73   H1    1.082516 S    
C142  H38   1.083306 S    
C36   C46   1.400724 A    
C288  H220  1.110559 S    
C82   H10   1.082899 S    
C38   C48   1.400722 A    
C194  C230  1.397657 A    
C243  H107  1.112712 S    
C26   C42   1.400169 A    
O5    Zn1   2.012288 S    
C28   O52   1.385666 S    
C166  H62   1.083271 S    
C80   H8    1.083024 S    
O47   Zn12  2.015276 S    
C263  H157  1.112573 S    
C290  H225  1.110519 S    
O41   C21   1.291004 A    
O44   Zn11  2.014663 S    
C53   C77   1.402888 A    
C124  C180  1.466195 S    
O43   C23   1.291034 A    
C65   C72   1.402914 A    
O17   C9    1.276676 A    
C143  C177  1.400650 A    
C277  H191  1.115510 S    
C250  H125  1.110363 S    
C199  H79   1.083431 S    
C73   C86   1.386038 A    
C295  C296  1.521472 S    
C279  C280  1.521159 S    
C29   C55   1.397011 A    
O61   C257  1.419869 S    
O100  C271  1.414550 S    
O36   C20   1.290745 A    
C27   C49   1.400505 A    
C111  C121  1.416637 A    
O58   C251  1.413726 S    
C94   C110  1.395973 A    
C271  H176  1.111475 S    
C109  C123  1.416666 A    
C189  C227  1.399357 A    
C198  C230  1.397517 A    
C272  H180  1.110604 S    
C273  C274  1.521186 S    
C211  O107  1.386177 S    
C81   H9    1.082424 S    
C114  C126  1.415045 A    
C294  H235  1.110282 S    
C279  H197  1.115755 S    
C194  C210  1.399884 A    
C286  H213  1.109821 S    
O49   C233  1.419819 S    
C84   H12   1.082689 S    
C31   C53   1.400278 A    
C85   H13   1.082426 S    
C59   C83   1.403213 A    
O26   Zn6   2.031223 S    
C40   C48   1.400644 A    
C151  H47   1.083351 S    
O108  C287  1.414745 S    
C254  H135  1.110350 S    
C291  H227  1.116083 S    
C89   H17   1.083513 S    
O27   C13   1.276119 A    
C108  N4    1.439934 S    
C208  O104  1.393259 S    
C296  H240  1.110566 S    
N2    O67   1.301418 A    
C186  C202  1.403944 A    
C23   C134  1.462122 S    
O31   C15   1.276478 A    
C238  H93   1.107933 S    
O32   C16   1.283050 A    
O43   Zn11  2.016480 S    
C267  H166  1.111464 S    
C251  H127  1.112106 S    
C33   C45   1.411621 A    
C143  H39   1.083353 S    
N6    O75   1.301416 A    
C101  H29   1.083200 S    
C277  C278  1.521206 S    
C49   C73   1.403269 A    
C93   H21   1.083506 S    
C99   C135  1.398661 A    
C12   C45   1.460916 S    
C96   C132  1.396593 A    
C101  C117  1.393645 A    
C282  H203  1.110905 S    
C259  C260  1.520772 S    
C104  C120  1.394573 A    
C112  N8    1.439954 S    
C207  O103  1.383801 S    
C204  O100  1.393435 S    
O111  C293  1.411175 S    
C24   C135  1.460395 S    
O9    C5    1.280279 A    
O36   Zn9   2.014663 S    
C201  C217  1.403430 A    
C137  C153  1.389612 A    
C276  H188  1.108347 S    
O11   C7    1.282977 A    
O8    Zn2   2.013582 S    
C255  H137  1.112361 S    
O101  C273  1.411719 S    
C206  C218  1.409041 A    
O16   Zn6   2.013582 S    
C98   C114  1.394594 A    
C250  H124  1.110354 S    
C112  C124  1.417457 A    
C108  C124  1.417520 A    
C158  C170  1.399316 A    
C109  N5    1.440270 S    
C102  C118  1.394627 A    
N12   O87   1.301317 A    
C192  C208  1.403936 A    
N5    O74   1.301454 A    
C278  H193  1.110863 S    
O106  C283  1.414731 S    
C233  C234  1.518865 S    
C207  C217  1.403317 A    
C91   C131  1.397679 A    
C33   C59   1.400010 A    
O104  C279  1.414529 S    
C154  H50   1.083447 S    
O45   C21   1.291054 A    
C94   H22   1.083690 S    
O54   C243  1.413560 S    
C10   C47   1.460906 S    
C37   C47   1.411826 A    
O47   C23   1.291005 A    
C280  H198  1.108400 S    
C25   O49   1.388406 S    
C153  C169  1.401218 A    
O21   Zn1   2.030378 S    
O99   C269  1.411652 S    
C39   C61   1.400126 A    
C107  C123  1.416385 A    
O23   C11   1.276264 A    
C191  C225  1.399400 A    
C196  C232  1.397516 A    
N11   O86   1.301496 A    
C160  C172  1.399380 A    
C265  H161  1.115500 S    
C58   C70   1.414102 A    
C275  H187  1.115758 S    
C138  H34   1.083302 S    
C166  C174  1.402198 A    
C20   C131  1.460411 S    
O13   C7    1.283020 A    
C261  C262  1.519118 S    
C188  C204  1.404071 A    
O33   C17   1.289993 A    
C66   C71   1.402913 A    
C266  H163  1.110854 S    
C285  H211  1.111872 S    
C34   C46   1.402951 A    
C286  H215  1.110518 S    
O48   C22   1.290420 A    
O2    Zn2   2.013768 S    
C209  O105  1.383503 S    
C98   C134  1.398762 A    
C38   C64   1.398008 A    
C193  C229  1.399240 A    
C192  H72   1.082397 S    
O17   Zn1   2.031564 S    
C264  H159  1.110341 S    
C272  H178  1.108340 S    
C236  H90   1.109671 S    
C75   H3    1.082532 S    
C253  H131  1.110497 S    
O26   C14   1.280496 A    
C26   C52   1.398080 A    
O29   C15   1.276099 A    
O48   Zn12  2.014658 S    
C173  C229  1.458241 S    
C188  H68   1.082380 S    
C141  H37   1.083353 S    
C162  H58   1.083272 S    
C175  C231  1.457737 S    
C202  C218  1.408963 A    
C145  C181  1.400736 A    
N9    O81   1.301393 A    
C99   C115  1.393620 A    
C159  C169  1.401148 A    
C261  H151  1.110500 S    
C148  H44   1.083404 S    
C244  H109  1.110333 S    
O19   Zn3   2.030377 S    
C247  H117  1.112876 S    
C147  C163  1.387795 A    
C282  H205  1.110272 S    
C29   O53   1.385798 S    
C152  H48   1.083397 S    
C165  C175  1.401981 A    
C49   C65   1.410247 A    
C138  C178  1.401890 A    
C198  C214  1.398529 A    
C171  C227  1.458845 S    
C265  C266  1.521222 S    
C105  N1    1.440285 S    
C257  H141  1.110498 S    
C53   C67   1.410901 A    
C289  H222  1.115408 S    
C2    C218  1.456243 S    
C268  H169  1.110384 S    
C144  H40   1.083303 S    
C285  C286  1.521051 S    
O15   Zn7   2.012293 S    
C164  C176  1.402169 A    
C163  C175  1.401979 A    
O45   Zn12  2.016485 S    
O63   C261  1.419853 S    
C29   C43   1.410155 A    
C106  C122  1.417458 A    
C186  H66   1.082399 S    
C195  C231  1.397116 A    
N15   O93   1.301399 A    
C190  H70   1.082384 S    
C83   H11   1.082432 S    
C212  O108  1.389807 S    
C50   C66   1.413642 A    
C253  C254  1.519024 S    
C161  C173  1.400980 A    
C260  H148  1.110769 S    
C103  C133  1.397365 A    
C89   C105  1.395266 A    
C208  C220  1.408961 A    
C278  H195  1.110118 S    
C281  H202  1.112802 S    
C262  H154  1.110353 S    
C214  C222  1.408034 A    
C246  H114  1.110364 S    
C152  C184  1.398653 A    
O32   Zn6   2.030614 S    
C216  C224  1.408687 A    
C119  N15   1.440239 S    
C245  H111  1.110517 S    
C239  H97   1.112721 S    
C54   C78   1.401057 A    
C197  C231  1.397119 A    
C195  H75   1.083120 S    
C280  H200  1.110602 S    
C30   C44   1.400142 A    
O34   C18   1.290639 A    
C186  C226  1.395095 A    
N7    O78   1.301453 A    
C254  H133  1.107271 S    
C143  C159  1.389729 A    
C269  H171  1.115494 S    
C287  H217  1.116184 S    
C104  C136  1.398770 A    
C271  C272  1.521113 S    
C209  C221  1.403538 A    
C210  O106  1.389769 S    
O39   Zn10  2.015276 S    
C167  C173  1.401005 A    
C211  C223  1.409020 A    
C257  C258  1.518988 S    
C107  N3    1.440301 S    
C38   O62   1.385686 S    
C189  C205  1.396559 A    
C140  C156  1.390351 A    
C215  O111  1.383513 S    
C242  H105  1.110562 S    
C258  H144  1.110356 S    
C127  C183  1.454584 S    
O12   C8    1.281963 A    
O1    C1    1.279746 A    
C128  C184  1.456676 S    
C9    C48   1.433908 S    
C5    C221  1.447382 S    
O14   C6    1.281426 A    
N1    O66   1.301453 A    
C216  O112  1.390067 S    
C242  H103  1.110647 S    
C11   C46   1.437074 S    
O107  C285  1.413586 S    
C91   H19   1.083508 S    
C255  C256  1.520745 S    
C118  C126  1.415043 A    
O39   C19   1.289998 A    
C256  H139  1.110353 S    
C293  H232  1.112804 S    
C58   C82   1.401107 A    
C259  H146  1.113037 S    
C110  C122  1.417517 A    
C103  H31   1.083558 S    
C283  H207  1.116170 S    
C90   H18   1.083690 S    
N8    O79   1.301417 A    
C93   C131  1.397515 A    
C145  C161  1.389680 A    
C156  H52   1.083447 S    
O30   Zn8   2.031224 S    
C188  C228  1.395095 A    
C245  C246  1.518096 S    
N10   O84   1.301561 A    
C268  H168  1.108403 S    
C95   C111  1.395418 A    
C273  H182  1.112801 S    
C37   C63   1.400213 A    
C115  N11   1.441274 S    
C95   C129  1.397508 A    
C191  H71   1.083430 S    
C32   O56   1.385604 S    
C264  H158  1.110771 S    
C236  H89   1.110332 S    
C288  H219  1.110423 S    
C269  C270  1.521229 S    
C63   C71   1.410015 A    
C295  H237  1.116064 S    
C14   C43   1.456844 S    
C90   C130  1.396594 A    
C235  H86   1.112589 S    
C140  C180  1.401927 A    
C254  H134  1.110360 S    
O35   Zn9   2.016480 S    
C189  H69   1.083435 S    
C138  C154  1.390386 A    
C78   C81   1.386121 A    
C156  C172  1.399326 A    
C292  H228  1.109139 S    
C145  H41   1.083349 S    
C176  C232  1.459632 S    
O10   C6    1.282906 A    
C149  C183  1.398292 A    
C16   C41   1.459675 S    
C290  H224  1.110621 S    
O18   C10   1.283552 A    
O55   C245  1.419637 S    
C149  H45   1.083414 S    
N14   O91   1.301316 A    
C146  C162  1.388786 A    
C86   H14   1.082965 S    
C269  H172  1.112686 S    
C234  H84   1.110365 S    
C277  H192  1.112789 S    
C270  H174  1.110308 S    
C172  C228  1.454877 S    
C137  H33   1.083356 S    
C260  H150  1.109867 S    
C192  C228  1.395106 A    
N16   O95   1.301320 A    
C193  H73   1.083434 S    
C100  C116  1.394655 A    
C249  H121  1.110499 S    
C210  C222  1.408863 A    
O22   Zn4   2.031224 S    
C292  H229  1.110462 S    
C151  C181  1.400722 A    
O31   Zn7   2.031568 S    
C36   C58   1.398088 A    
C272  H179  1.110381 S    
C4    C220  1.456224 S    
O109  C289  1.413615 S    
C28   C50   1.397650 A    
C155  H51   1.083370 S    
C147  H43   1.083413 S    
C294  H234  1.110314 S    
C144  C160  1.390386 A    
C6    C222  1.457028 S    
C202  O98   1.393260 S    
C144  C180  1.401890 A    
C32   C54   1.398115 A    
C154  C170  1.399364 A    
C76   C87   1.386058 A    
C243  H106  1.113045 S    
C77   C82   1.385590 A    
O64   C263  1.413290 S    
O21   C11   1.278695 A    
C266  H164  1.110309 S    
C291  C292  1.521095 S    
O22   C12   1.283419 A    
C147  C183  1.398310 A    
O59   C253  1.419869 S    
C80   C83   1.385871 A    
C148  C184  1.398630 A    
C205  O101  1.383782 S    
C296  H239  1.110414 S    
N2    O68   1.301436 A    
C240  H98   1.110774 S    
O13   Zn5   2.012288 S    
C150  C182  1.398644 A    
C79   C84   1.387435 A    
O42   C22   1.290361 A    
C267  H167  1.115759 S    
C27   O51   1.388485 S    
C274  H184  1.110308 S    
C55   C67   1.411262 A    
C35   O59   1.388377 S    
N7    O77   1.301391 A    
C200  C216  1.399890 A    
N6    O76   1.301435 A    
O23   Zn3   2.031568 S    
C190  C206  1.404087 A    
O3    Zn3   2.012107 S    
C255  H136  1.113149 S    
C235  C236  1.520831 S    
O37   C17   1.290122 A    
O103  C277  1.411649 S    
C271  H177  1.115758 S    
C196  H76   1.082751 S    
C67   C70   1.403629 A    
C17   C132  1.458538 S    
C34   O58   1.385925 S    
C170  C226  1.454835 S    
C242  H104  1.110707 S    
C199  C229  1.399273 A    
C61   C85   1.403217 A    
C122  C178  1.466196 S    
O97   C265  1.411698 S    
C100  C136  1.398797 A    
C93   C109  1.395507 A    
O34   Zn9   2.014038 S    
C282  H204  1.110308 S    
C40   O64   1.385621 S    
C21   C136  1.462173 S    
C125  C181  1.463461 S    
C91   C107  1.395166 A    
C268  H170  1.110601 S    
C98   H26   1.083194 S    
C92   C108  1.395974 A    
C146  C182  1.398652 A    
C169  C225  1.458778 S    
C195  C211  1.396089 A    
C261  H152  1.117710 S    
C61   C71   1.410210 A    
C247  C248  1.520827 S    
C113  C125  1.416691 A    
C32   C44   1.400199 A    
C102  H30   1.083198 S    
C8    C224  1.457526 S    
O4    Zn4   2.013763 S    
O38   Zn10  2.014042 S    
C141  C157  1.389706 A    
C295  H236  1.111472 S    
N12   O88   1.301584 A    
C139  C179  1.400489 A    
C51   C65   1.410188 A    
C101  C135  1.398678 A    
C187  C203  1.397371 A    
C292  H230  1.110538 S    
O11   Zn7   2.012107 S    
C284  H208  1.109609 S    
C159  H55   1.083359 S    
C165  H61   1.083280 S    
C116  C128  1.415035 A    
C36   O60   1.385844 S    
C96   C112  1.395847 A    
C149  C165  1.387752 A    
C198  H78   1.082802 S    
C7    C223  1.457431 S    
C270  H175  1.109936 S    
C13   C44   1.432501 S    
O53   C241  1.413319 S    
C237  H92   1.117416 S    
C64   C72   1.413677 A    
C167  H63   1.083385 S    
C237  H91   1.110503 S    
O5    C3    1.280360 A    
C151  C167  1.389694 A    
C287  C288  1.521268 S    
C284  H209  1.110419 S    
C162  C174  1.402211 A    
C57   C81   1.403331 A    
C97   H25   1.083554 S    
O7    Zn3   2.012293 S    
C106  N2    1.439952 S    
N13   O90   1.301496 A    
C265  H162  1.112719 S    
O28   C14   1.283763 A    
C275  C276  1.521116 S    
C55   C79   1.402019 A    
C79   H7    1.083209 S    
C157  C171  1.401145 A    
C191  C207  1.396648 A    
C279  H196  1.111463 S    
C285  H212  1.115406 S    
C286  H214  1.110621 S    
C200  C232  1.397566 A    
O42   Zn11  2.014038 S    
C212  C224  1.408438 A    
C97   C113  1.395383 A    
C117  C127  1.414627 A    
C187  C227  1.399630 A    
C27   C41   1.410957 A    
C148  C164  1.388719 A    
O40   C18   1.290439 A    
C291  H226  1.111545 S    
C253  H132  1.117672 S    
O52   C239  1.413546 S    
C249  C250  1.519110 S    
C238  H95   1.110104 S    
C75   C88   1.386048 A    
C126  C182  1.456680 S    
C33   O57   1.388358 S    
O44   C24   1.290584 A    
O14   Zn8   2.013585 S    
C26   O50   1.385603 S    
C251  H126  1.112757 S    
O2    C2    1.281688 A    
O57   C249  1.419846 S    
O20   Zn4   2.030609 S    
C116  N12   1.441333 S    
C248  H120  1.109648 S    
C118  N14   1.441336 S    
C213  C223  1.409064 A    
C237  C238  1.518703 S    
C244  H108  1.110774 S    
C250  H123  1.107301 S    
N3    O69   1.301394 A    
C243  C244  1.520764 S    
C263  C264  1.520769 S    
C120  N16   1.441335 S    
O8    C4    1.281686 A    
C193  C209  1.396701 A    
C164  H60   1.083265 S    
O28   Zn8   2.030609 S    
C206  O102  1.393442 S    
C40   C62   1.397922 A    
C274  H185  1.110098 S    
O50   C235  1.412980 S    
N5    O73   1.301389 A    
C139  H35   1.083352 S    
C257  H142  1.117676 S    
C104  H32   1.083180 S    
C57   C69   1.410069 A    
C158  H54   1.083449 S    
C199  C215  1.396726 A    
C119  C125  1.416667 A    
C137  C177  1.400540 A    
C92   H20   1.083690 S    
C185  C201  1.397233 A    
C201  O97   1.384149 S    
C247  H116  1.112581 S    
C160  H56   1.083449 S    
C233  H81   1.110505 S    
C95   H23   1.083512 S    
C197  H77   1.083098 S    
C96   H24   1.083693 S    
C241  C242  1.520087 S    
C140  H36   1.083306 S    
N4    O72   1.301432 A    
N15   O94   1.301451 A    
C163  H59   1.083282 S    
C174  C230  1.459676 S    
C262  H153  1.107301 S    
C35   C45   1.411779 A    
N16   O96   1.301581 A    
C121  C177  1.463215 S    
C139  C155  1.389621 A    
C284  H210  1.110560 S    
C117  N13   1.441275 S    
C252  H130  1.109971 S    
O105  C281  1.411184 S    
O16   C8    1.282342 A    
C60   C70   1.413731 A    
C245  H112  1.117667 S    
C200  H80   1.082753 S    
C239  C240  1.520771 S    
C31   O55   1.388415 S    
C62   C72   1.413636 A    
C240  H99   1.110333 S    
C31   C43   1.409767 A    
C196  C212  1.399665 A    
O25   Zn5   2.031564 S    
O6    C2    1.281754 A    
C30   O54   1.385700 S    
C97   C133  1.397361 A    
C276  H190  1.110604 S    
C52   C76   1.401023 A    
C190  C226  1.395076 A    
O27   Zn7   2.030377 S    
C76   H4    1.082979 S    
C203  O99   1.384241 S    
C77   H5    1.082386 S    
C258  H143  1.107266 S    
O62   C259  1.413350 S    
C51   C75   1.403216 A    
O37   Zn10  2.016485 S    
C275  H186  1.111475 S    
C185  C225  1.399552 A    
C19   C130  1.458556 S    
O7    C1    1.280278 A    
N13   O89   1.301333 A    
C1    C217  1.446383 S    
O102  C275  1.414553 S    
C35   C57   1.400334 A    
C238  H94   1.110370 S    
C142  C178  1.401933 A    
C30   C56   1.397627 A    
O60   C255  1.413310 S    
N4    O71   1.301417 A    
C205  C219  1.403289 A    
O19   C9    1.276634 A    
C105  C121  1.416455 A    
C155  C171  1.401280 A    
C90   C106  1.395854 A    
C110  N6    1.439937 S    
C256  H138  1.110766 S    
O24   C12   1.283425 A    
C204  C220  1.409029 A    
C157  H53   1.083356 S    
O46   C24   1.290566 A    
C187  H67   1.083352 S    
C259  H147  1.112534 S    
C240  H100  1.109608 S    
C283  C284  1.521294 S    
O24   Zn2   2.030614 S    
C234  H83   1.107984 S    
O12   Zn8   2.013763 S    
N8    O80   1.301437 A    
C168  C176  1.402181 A    
C252  H128  1.110750 S    
C213  O109  1.386300 S    
N9    O82   1.301453 A    
C278  H194  1.110311 S    
O35   C19   1.290127 A    
C244  H110  1.109608 S    
C194  H74   1.082754 S    
C288  H218  1.109579 S    
C241  H101  1.114213 S    
C94   C130  1.396584 A    
C263  H156  1.113085 S    
C235  H87   1.112863 S    
O38   C20   1.290357 A    
C78   H6    1.082980 S    
C293  H231  1.115436 S    
O30   C16   1.283035 A    
C52   C66   1.413940 A    
C266  H165  1.109992 S    
C62   C86   1.401111 A    
C123  C179  1.463161 S    
O33   Zn9   2.015280 S    
C289  H221  1.111843 S    
O4    C4    1.281748 A    
C168  H64   1.083262 S    
C248  H119  1.110332 S    
C290  H223  1.109799 S    
C153  H49   1.083370 S    
C59   C69   1.410154 A    
C3    C219  1.446326 S    
C99   H27   1.083200 S    
C264  H160  1.109887 S    
C28   C42   1.400185 A    
C152  C168  1.388804 A    
N14   O92   1.301565 A    
C280  H199  1.110382 S    
O29   Zn5   2.030378 S    
O110  C291  1.414290 S    
C111  N7    1.440268 S    
O41   Zn11  2.015280 S    
C92   C132  1.396574 A    
C270  H173  1.110875 S    
O51   C237  1.419860 S    
C25   C41   1.410888 A    
C100  H28   1.083184 S    
C18   C129  1.460343 S    
O20   C10   1.283284 A    
C142  C158  1.390359 A    
C246  H115  1.110254 S    
C233  H82   1.117487 S    
C141  C179  1.400657 A    
C241  H102  1.113360 S    
C87   H15   1.082425 S    
C281  H201  1.115427 S    
O10   Zn6   2.013768 S    
C262  H155  1.110365 S    
C249  H122  1.117714 S    
O40   Zn10  2.014658 S    
C22   C133  1.459781 S    
C37   O61   1.388389 S    
O15   C5    1.280244 A    
O9    Zn5   2.012110 S    
C236  H88   1.110720 S    
C248  H118  1.110721 S    
C239  H96   1.113043 S    
C203  C219  1.403409 A    
C54   C68   1.413912 A    
C294  H233  1.110910 S    
N1    O65   1.301392 A    
O1    Zn1   2.012110 S    
C215  C221  1.403530 A    
C68   C69   1.402924 A    
C60   C84   1.402788 A    
