data_mof_unit_8651.cif
_audit_creation_date              2013-03-05T15:45:15-0500
_audit_creation_method            fapswitch 2.2
_symmetry_space_group_name_H-M    P1
_symmetry_Int_Tables_number       1
_space_group_crystal_system       triclinic
_cell_length_a                    16.838593
_cell_length_b                    7.090387
_cell_length_c                    17.052635
_cell_angle_alpha                 89.998959
_cell_angle_beta                  100.305215
_cell_angle_gamma                 89.999049
_cell_volume                      2003.10819115

loop_
_atom_site_label
_atom_site_type_symbol
_atom_site_description
_atom_site_fract_x
_atom_site_fract_y
_atom_site_fract_z
_atom_type_partial_charge
O1    O     O_R   0.579510 0.506290 0.439030 -0.563563
O2    O     O_R   0.420490 0.006290 0.560970 -0.563533
O3    O     O_R   0.412540 0.170090 0.405290 -0.588165
O4    O     O_R   0.587460 0.670090 0.594710 -0.588374
C1    C     C_R   0.386153 0.346376 0.381426 0.948709
C2    C     C_R   0.613846 0.846371 0.618575 0.947993
O5    O     O_R   0.578390 0.176230 0.429330 -0.577644
O6    O     O_R   0.421610 0.676230 0.570670 -0.577900
O7    O     O_R   0.587530 0.011250 0.585190 -0.580215
O8    O     O_R   0.412470 0.511250 0.414810 -0.580282
C3    C     C_R   0.603556 0.344708 0.412173 1.053055
C4    C     C_R   0.396443 0.844709 0.587826 1.052461
O9    O     O_3   0.502800 0.340940 0.551110 -0.282480
O10   O     O_3   0.497200 0.840940 0.448890 -0.282265
V1    V     V_3+5 0.499480 0.064020 0.490520 1.279019
V2    V     V_3+5 0.500520 0.564020 0.509480 1.278784
C5    C     C_R   0.173782 0.913889 0.867840 -0.292983
C6    C     C_R   0.826217 0.413892 0.132159 -0.292965
C7    C     C_R   0.334823 0.844179 0.641515 -0.250210
C8    C     C_R   0.665176 0.344178 0.358483 -0.250146
C9    C     C_R   0.240675 0.648389 0.698245 -0.207078
C10   C     C_R   0.759320 0.148381 0.301751 -0.206966
C11   C     C_R   0.273869 0.705304 0.631998 0.377335
C12   C     C_R   0.726129 0.205296 0.367999 0.377252
C13   C     C_R   0.343056 0.960335 0.709270 -0.175610
C14   C     C_R   0.656943 0.460340 0.290727 -0.175220
C15   C     C_R   0.291401 0.938697 0.766622 0.123971
C16   C     C_R   0.708597 0.438702 0.233376 0.123797
C17   C     C_R   0.238134 0.780271 0.760739 -0.039200
C18   C     C_R   0.761863 0.280269 0.239258 -0.039223
C19   C     C_R   0.181203 0.765642 0.813908 0.351087
C20   C     C_R   0.818795 0.265641 0.186090 0.351080
C21   C     C_R   0.230643 0.060176 0.876346 -0.058974
C22   C     C_R   0.769357 0.560185 0.123653 -0.058927
C23   C     C_R   0.291511 0.070200 0.829572 -0.136800
C24   C     C_R   0.708488 0.570210 0.170426 -0.136780
H1    H     H_    0.228178 0.166627 0.921413 0.220492
H2    H     H_    0.771823 0.666642 0.078586 0.220460
H3    H     H_    0.387941 0.070428 0.714426 0.115969
H4    H     H_    0.612057 0.570438 0.285572 0.115984
C25   C     C_3   0.736740 0.806580 0.839527 0.161773
C26   C     C_3   0.263265 0.306558 0.160476 0.161378
H5    H     H_    0.753329 0.656610 0.849181 0.113700
H6    H     H_    0.246675 0.156593 0.150831 0.113622
C27   C     C_3   0.660667 0.813024 0.771157 -0.362641
C28   C     C_3   0.339336 0.313010 0.228849 -0.362250
H7    H     H_    0.621555 0.929903 0.785437 0.233957
H8    H     H_    0.378463 0.429856 0.214570 0.234007
H9    H     H_    0.847060 0.637792 0.775667 0.102316
H10   H     H_    0.152955 0.137767 0.224344 0.102348
C29   C     C_3   0.835482 0.777173 0.745766 -0.006777
C30   C     C_3   0.164523 0.277158 0.254237 -0.006738
C31   C     C_3   0.782641 0.110631 0.774821 0.159633
C32   C     C_3   0.217355 0.610617 0.225169 0.159697
C33   C     C_3   0.811750 0.911808 0.812732 -0.331528
C34   C     C_3   0.188251 0.411791 0.187266 -0.331332
C35   C     C_3   0.685704 0.865349 0.689393 -0.237238
C36   C     C_3   0.314296 0.365355 0.310606 -0.237109
C37   C     C_3   0.762272 0.753033 0.672481 -0.374560
C38   C     C_3   0.237732 0.253039 0.327523 -0.374904
C39   C     C_3   0.712419 0.077220 0.701215 -0.401133
C40   C     C_3   0.287585 0.577229 0.298769 -0.401324
H11   H     H_    0.659246 0.166148 0.706256 0.192182
H12   H     H_    0.340757 0.666136 0.293699 0.192138
H13   H     H_    0.728733 0.128867 0.645655 0.239052
H14   H     H_    0.271284 0.628908 0.354329 0.239062
O11   O     O_R   0.087500 0.266000 0.085220 -0.609974
O12   O     O_R   0.912500 0.766000 0.914780 -0.610010
O13   O     O_R   0.921600 0.589950 0.070670 -0.581996
O14   O     O_R   0.078400 0.089950 0.929330 -0.581978
C41   C     C_R   0.893317 0.421580 0.084521 1.064502
C42   C     C_R   0.106683 0.921579 0.915479 1.064527
O15   O     O_R   0.087460 0.596020 0.094710 -0.573604
O16   O     O_R   0.912540 0.096020 0.905290 -0.573580
O17   O     O_R   0.079520 0.760970 0.939020 -0.534502
O18   O     O_R   0.920480 0.260970 0.060980 -0.534497
C43   C     C_R   0.116600 0.426647 0.116842 1.065119
C44   C     C_R   0.883400 0.926652 0.883158 1.065102
O19   O     O_3   0.997180 0.425140 0.948910 -0.257119
O20   O     O_3   0.002820 0.925140 0.051090 -0.257113
V3    V     V_3+5 0.000520 0.702080 0.009480 1.351847
V4    V     V_3+5 0.999480 0.202080 0.990520 1.351870
N1    N     N_R   0.125821 0.610771 0.808742 0.209430
O21   O     O_R   0.135446 0.482507 0.864218 -0.373851
O22   O     O_R   0.074001 0.581982 0.743758 -0.301927
N2    N     N_R   0.874178 0.110767 0.191259 0.209426
O23   O     O_R   0.864557 0.982506 0.135783 -0.373874
O24   O     O_R   0.925997 0.081972 0.256244 -0.301934
C45   C     C_2   0.606872 0.641126 0.769583 0.606845
H15   H     H_    0.628055 0.501593 0.759932 0.054876
O25   O     O_2   0.537100 0.658434 0.779319 -0.561594
C46   C     C_2   0.393116 0.141091 0.230454 0.606278
H16   H     H_    0.371696 0.001416 0.239460 0.055749
O26   O     O_2   0.463117 0.158536 0.221435 -0.562574
C47   C     C_2   0.742981 0.544672 0.664297 0.718769
H17   H     H_    0.737171 0.466054 0.716561 -0.132052
O27   O     O_2   0.734746 0.462133 0.600676 -0.488658
C48   C     C_2   0.257034 0.044676 0.335724 0.719461
H18   H     H_    0.262909 0.966054 0.283481 -0.132717
O28   O     O_2   0.265194 0.962129 0.399341 -0.488642
C49   C     C_2   0.852893 0.216250 0.747611 0.527072
H19   H     H_    0.894500 0.299918 0.789481 0.103722
O29   O     O_2   0.865016 0.209926 0.679185 -0.503072
C50   C     C_2   0.147107 0.716248 0.252383 0.527143
H20   H     H_    0.105494 0.799913 0.210515 0.103746
O30   O     O_2   0.134990 0.709926 0.320811 -0.503084
N3    N     N_R   0.752142 0.230179 0.834907 0.223450
O31   O     O_R   0.677188 0.222730 0.844371 -0.381964
O32   O     O_R   0.800217 0.341780 0.881995 -0.445425
N4    N     N_R   0.247844 0.730142 0.165070 0.223365
O33   O     O_R   0.322763 0.722437 0.155508 -0.382031
O34   O     O_R   0.199776 0.841846 0.118023 -0.445569
N5    N     N_R   0.913163 0.816957 0.720151 0.249660
O35   O     O_R   0.967388 0.926754 0.760651 -0.406556
O36   O     O_R   0.935702 0.706367 0.667270 -0.278217
N6    N     N_R   0.086840 0.316933 0.279849 0.249644
O37   O     O_R   0.032616 0.426751 0.239353 -0.406580
O38   O     O_R   0.064302 0.206338 0.332729 -0.278186
C51   C     C_2   0.783940 0.824186 0.593781 0.800718
H21   H     H_    0.831097 0.927451 0.593863 0.139739
O39   O     O_2   0.745569 0.775949 0.529120 -0.499528
C52   C     C_2   0.216060 0.324214 0.406217 0.800639
H22   H     H_    0.168899 0.427476 0.406128 0.139795
O40   O     O_2   0.254431 0.275990 0.470881 -0.499583
C53   C     C_2   0.221255 0.444028 0.704862 0.676256
H23   H     H_    0.211432 0.385055 0.760410 0.056171
O41   O     O_2   0.221724 0.334439 0.649697 -0.508450
C54   C     C_2   0.778739 0.944018 0.295134 0.676310
H24   H     H_    0.788568 0.885051 0.239587 0.056161
O42   O     O_2   0.778260 0.834422 0.350296 -0.508490
C55   C     C_2   0.353590 0.221287 0.847581 0.590311
H25   H     H_    0.411200 0.210073 0.828196 0.039294
O43   O     O_2   0.341524 0.360580 0.885927 -0.502066
C56   C     C_2   0.646409 0.721305 0.152418 0.590327
H26   H     H_    0.588799 0.710092 0.171801 0.039255
O44   O     O_2   0.658478 0.860605 0.114076 -0.502133
N7    N     N_R   0.236579 0.641060 0.554064 0.271400
O45   O     O_R   0.271744 0.665961 0.493276 -0.396170
O46   O     O_R   0.160069 0.598849 0.540623 -0.255835
N8    N     N_R   0.763422 0.141046 0.445933 0.271361
O47   O     O_R   0.728268 0.165990 0.506725 -0.396232
O48   O     O_R   0.839929 0.098800 0.459368 -0.255858
N9    N     N_R   0.715228 0.869438 0.915587 0.267802
O49   O     O_R   0.654800 0.788888 0.940326 -0.303968
O50   O     O_R   0.760616 0.983223 0.964052 -0.324358
N10   N     N_R   0.284776 0.369371 0.084410 0.267865
O51   O     O_R   0.345230 0.288864 0.059700 -0.304436
O52   O     O_R   0.239361 0.483045 0.035910 -0.324299

loop_
_geom_bond_atom_site_label_1
_geom_bond_atom_site_label_2
_geom_bond_distance
_ccdc_geom_bond_type
C36   C40   1.570772 S    
C49   H19   1.083334 S    
C15   C17   1.429762 A    
N3    O32   1.301425 A    
C31   C33   1.591259 S    
C47   H17   1.070413 S    
O1    C3    1.323866 A    
O2    C4    1.323861 A    
C54   H24   1.074955 S    
C2    O7    1.340470 A    
C50   O30   1.220834 D    
C55   O43   1.221415 D    
C12   N8    1.438556 S    
O5    C3    1.317785 A    
N7    O46   1.302402 A    
C27   C35   1.571534 S    
C29   N5    1.478433 S    
C37   C47   1.513733 S    
C1    C36   1.554917 S    
O12   V3    2.038033 S    
C32   C50   1.540100 S    
N8    O48   1.302403 A    
C25   N9    1.476564 S    
C38   C48   1.513782 S    
C41   O18   1.316388 A    
N2    O24   1.298110 A    
C35   C37   1.585144 S    
C28   C46   1.515853 S    
C36   C38   1.585131 S    
N9    O49   1.301195 A    
C19   N1    1.433133 S    
N6    O37   1.300458 A    
C32   N4    1.490075 S    
C39   H11   1.110912 S    
C26   C28   1.570978 S    
C27   H7    1.112287 S    
O13   C41   1.322132 A    
O15   C43   1.326320 A    
N4    O33   1.301770 A    
C25   C33   1.602272 S    
C40   H12   1.110937 S    
C30   C38   1.599837 S    
C26   C34   1.602301 S    
C31   C39   1.580738 S    
C8    C12   1.410607 A    
C31   C49   1.540095 S    
H9    C29   1.113142 S    
O11   C43   1.316743 A    
H10   C30   1.113145 S    
N3    O31   1.301773 A    
C45   O25   1.221765 D    
C27   C45   1.515958 S    
C22   C24   1.408627 A    
C30   N6    1.478430 S    
O6    V2    1.995838 S    
C28   C36   1.571493 S    
C25   H5    1.104246 S    
C2    C35   1.554913 S    
C26   H6    1.104216 S    
O16   V4    2.014905 S    
C42   O17   1.316384 A    
C7    C13   1.405419 A    
O15   V3    2.014865 S    
C50   H20   1.083333 S    
N10   O52   1.300803 A    
C52   H22   1.079928 S    
C51   O39   1.222853 D    
O12   C44   1.316751 A    
C28   H8    1.112278 S    
C3    C8    1.501578 S    
C40   H14   1.095604 S    
N8    O47   1.294568 A    
O20   V4    2.214703 S    
O18   V4    1.989834 S    
O19   V3    2.214738 S    
C33   C44   1.546143 S    
N2    O23   1.301317 A    
O17   V3    1.989837 S    
C56   O44   1.221413 D    
C32   C40   1.580720 S    
C15   C23   1.421630 A    
C9    C17   1.424180 A    
C21   H1    1.083267 S    
C34   C43   1.546135 S    
C54   O42   1.221246 D    
O4    V2    2.014930 S    
C7    C11   1.410605 A    
C31   N3    1.490107 S    
C10   C54   1.494141 S    
N1    O21   1.301313 A    
O6    C4    1.317783 A    
C20   N2    1.433134 S    
C46   O26   1.221960 D    
C5    C21   1.401414 A    
O1    V2    1.987872 S    
C38   C52   1.537485 S    
O2    V1    1.987869 S    
C6    C22   1.401415 A    
N10   O51   1.301193 A    
O11   V4    2.038058 S    
O4    C2    1.364051 A    
N1    O22   1.298106 A    
C48   O28   1.218589 D    
C9    C11   1.406184 A    
C53   H23   1.074954 S    
C5    C19   1.416845 A    
C10   C12   1.406182 A    
C6    C20   1.416843 A    
C52   O40   1.222854 D    
C55   H25   1.082298 S    
C26   N10   1.476546 S    
C23   C55   1.489901 S    
O3    V1    2.014892 S    
N5    O35   1.300457 A    
C6    C41   1.505949 S    
N9    O50   1.300806 A    
C37   C51   1.537491 S    
C10   C18   1.424176 A    
C22   H2    1.083269 S    
C11   N7    1.438557 S    
O20   V3    1.731065 S    
O3    C1    1.364050 A    
C24   C56   1.489900 S    
O19   V4    1.731041 S    
C51   H21   1.079931 S    
C47   O27   1.218581 D    
C32   C34   1.591244 S    
C35   C39   1.570777 S    
C56   H26   1.082297 S    
C13   C15   1.428600 A    
N7    O45   1.294571 A    
C14   C16   1.428602 A    
C16   C18   1.429761 A    
O7    V1    2.021883 S    
C1    O8    1.340471 A    
C17   C19   1.436229 A    
O8    V2    2.021903 S    
C13   H3    1.079152 S    
C18   C20   1.436228 A    
C14   H4    1.079154 S    
C8    C14   1.405419 A    
C4    C7    1.501572 S    
O5    V1    1.995841 S    
C46   H16   1.074388 S    
C21   C23   1.408626 A    
N6    O38   1.301736 A    
C29   C33   1.593217 S    
O14   V4    1.995740 S    
N4    O34   1.301425 A    
O13   V3    1.995741 S    
C39   H13   1.095587 S    
C29   C37   1.599859 S    
C16   C24   1.421629 A    
C5    C42   1.505948 S    
C49   O29   1.220839 D    
C48   H18   1.070408 S    
O16   C44   1.326312 A    
O9    V2    1.731327 S    
C53   O41   1.221246 D    
C25   C27   1.570946 S    
O10   V1    1.731351 S    
O14   C42   1.322130 A    
C45   H15   1.074289 S    
C9    C53   1.494142 S    
C30   C34   1.593220 S    
N5    O36   1.301736 A    
