data_mof_unit_43040.cif
_audit_creation_date              2013-03-05T16:19:19-0500
_audit_creation_method            fapswitch 2.2
_symmetry_space_group_name_H-M    P1
_symmetry_Int_Tables_number       1
_space_group_crystal_system       triclinic
_cell_length_a                    10.698998
_cell_length_b                    9.685484
_cell_length_c                    23.365552
_cell_angle_alpha                 89.9483
_cell_angle_beta                  90.227823
_cell_angle_gamma                 90.524033
_cell_volume                      2421.13339964

loop_
_atom_site_label
_atom_site_type_symbol
_atom_site_description
_atom_site_fract_x
_atom_site_fract_y
_atom_site_fract_z
_atom_type_partial_charge
O1    O     O_R   0.314910 0.616040 0.499990 -0.603685
O2    O     O_R   0.314910 0.383960 0.499990 -0.631483
C1    C     C_R   0.257386 0.499665 0.496498 0.866112
O3    O     O_R   0.500080 0.616070 0.416130 -0.624578
O4    O     O_R   0.500080 0.383930 0.416130 -0.630897
C2    C     C_R   0.501164 0.499769 0.389385 0.877469
Zn1   Zn    Zn3+2 0.500150 0.654960 0.499970 0.910167
Zn2   Zn    Zn3+2 0.500150 0.345040 0.499970 0.899173
O5    O     O_R   0.685320 0.616040 0.499970 -0.635016
O6    O     O_R   0.685320 0.383960 0.499970 -0.636859
O7    O     O_R   0.500150 0.616010 0.583820 -0.613555
O8    O     O_R   0.500150 0.383990 0.583820 -0.628000
C3    C     C_R   0.742124 0.500891 0.498278 0.896301
C4    C     C_R   0.501218 0.499947 0.610731 0.895316
C5    C     C_R   0.568718 0.393321 0.879679 0.538058
N1    N     N_R   0.475535 0.462182 0.851986 -0.341355
C6    C     C_R   0.379262 0.521963 0.880639 0.521384
C7    C     C_R   0.376268 0.517554 0.940364 -0.008101
C8    C     C_R   0.473770 0.450716 0.970053 -0.020989
C9    C     C_R   0.569793 0.386424 0.939449 -0.066618
C10   C     C_R   0.279926 0.580706 0.970834 -0.163050
C11   C     C_R   0.281597 0.580711 0.030237 -0.158692
C12   C     C_R   0.379649 0.517589 0.060226 -0.003927
C13   C     C_R   0.476044 0.450417 0.030282 -0.057832
C14   C     C_R   0.575014 0.385311 0.060308 -0.036317
C15   C     C_R   0.670175 0.317088 0.028680 0.172048
C16   C     C_R   0.665705 0.319077 0.968791 -0.154268
C17   C     C_R   0.384691 0.522506 0.119707 0.504860
N2    N     N_R   0.481430 0.462612 0.148207 -0.353175
C18   C     C_R   0.574281 0.393391 0.120678 0.512191
O9    O     O_2   0.660560 0.333376 0.849307 -0.564728
O10   O     O_2   0.288128 0.587021 0.851316 -0.561985
H1    H     H_    0.203871 0.631886 0.948928 0.191506
H2    H     H_    0.206570 0.631935 0.052557 0.191141
O11   O     O_2   0.294702 0.588445 0.149100 -0.562024
O12   O     O_2   0.664635 0.333667 0.152231 -0.567652
H3    H     H_    0.738851 0.268716 0.944829 0.192217
C19   C     C_R   0.576541 0.560859 0.234296 -0.098661
H4    H     H_    0.641356 0.617502 0.207348 0.141619
C20   C     C_R   0.583590 0.572276 0.293829 0.164303
C21   C     C_R   0.497307 0.496725 0.327364 -0.045686
C22   C     C_R   0.409071 0.408898 0.301402 -0.290751
H5    H     H_    0.344755 0.347937 0.326956 0.152698
C23   C     C_R   0.403309 0.398463 0.242372 -0.090649
H6    H     H_    0.334810 0.330624 0.222527 0.149794
C24   C     C_R   0.486702 0.474536 0.208898 0.274549
C25   C     C_R   0.415620 0.383846 0.757250 -0.150157
H7    H     H_    0.358957 0.303144 0.776472 0.154080
C26   C     C_R   0.422917 0.394181 0.698420 -0.286816
H8    H     H_    0.370353 0.321082 0.672489 0.162421
C27   C     C_R   0.496290 0.497852 0.673040 -0.072900
C28   C     C_R   0.564333 0.593515 0.707275 0.134077
C29   C     C_R   0.555830 0.581805 0.767432 0.143446
C30   C     C_R   0.481781 0.476599 0.791483 0.293592
C31   C     C_3   0.069915 0.657848 0.483961 0.322128
C32   C     C_3   0.069271 0.451233 0.557641 0.284195
C33   C     C_3   0.926333 0.645903 0.475733 -0.465797
C34   C     C_3   0.925649 0.475117 0.558223 -0.434939
H9    H     H_    0.880796 0.732017 0.498936 0.171528
H10   H     H_    0.900334 0.563131 0.586265 0.150958
H11   H     H_    0.896214 0.659017 0.430562 0.171459
H12   H     H_    0.874259 0.385446 0.577113 0.179154
H13   H     H_    0.868137 0.390625 0.414941 0.161939
H14   H     H_    0.899667 0.284789 0.474988 0.177084
C35   C     C_3   0.064743 0.400084 0.444704 0.371508
C36   C     C_3   0.119788 0.500435 0.495088 0.079271
C37   C     C_3   0.877611 0.502711 0.496896 0.001311
C38   C     C_3   0.922458 0.387101 0.455743 -0.395416
C39   C     C_3   0.401719 0.079898 0.536740 -0.250484
C40   C     C_3   0.403032 0.917661 0.537455 -0.227118
H15   H     H_    0.308798 0.114009 0.521856 0.146140
H16   H     H_    0.309887 0.878011 0.524447 0.175837
H17   H     H_    0.414082 0.120161 0.580973 0.153718
H18   H     H_    0.419134 0.880367 0.581879 0.156785
H19   H     H_    0.387254 0.119130 0.423392 0.141382
H20   H     H_    0.384811 0.879627 0.424202 0.150486
C41   C     C_3   0.477301 0.081112 0.440605 -0.224878
C42   C     C_3   0.475872 0.918682 0.440751 -0.226525
C43   C     C_3   0.621146 0.082407 0.518982 -0.228036
C44   C     C_3   0.621671 0.919793 0.518278 -0.241629
N3    N     N_3   0.499750 0.138610 0.498760 -0.033726
N4    N     N_3   0.499750 0.861390 0.498760 -0.037653
H21   H     H_    0.698146 0.121535 0.491381 0.145229
H22   H     H_    0.697379 0.884210 0.489532 0.144232
H23   H     H_    0.641509 0.120395 0.562997 0.151826
H24   H     H_    0.644556 0.879937 0.561671 0.148775
H25   H     H_    0.551048 0.118982 0.410885 0.157185
H26   H     H_    0.548154 0.881562 0.410708 0.148298
C45   C     C_3   0.646344 0.703131 0.679776 -0.919998
H27   H     H_    0.706838 0.759420 0.710549 0.233416
H28   H     H_    0.709329 0.654949 0.647999 0.233799
H29   H     H_    0.586815 0.780751 0.658197 0.250082
N5    N     N_3   0.620611 0.674816 0.805247 -0.452121
H30   H     H_    0.593860 0.775841 0.795745 0.201300
H31   H     H_    0.716772 0.664693 0.799022 0.205136
C46   C     C_3   0.129866 0.734843 0.430819 -0.866188
H32   H     H_    0.168518 0.837923 0.442113 0.215614
H33   H     H_    0.210197 0.680659 0.412125 0.241767
H34   H     H_    0.062419 0.757760 0.396035 0.220600
C47   C     C_3   0.090364 0.298008 0.574979 -0.958385
H35   H     H_    0.068881 0.283753 0.621131 0.238339
H36   H     H_    0.025282 0.225525 0.553179 0.235076
H37   H     H_    0.188700 0.267129 0.570201 0.252815
N6    N     N_3   0.095435 0.748536 0.534090 -0.424111
H38   H     H_    0.030446 0.733785 0.566665 0.187819
H39   H     H_    0.080022 0.852081 0.523581 0.158636
N7    N     N_3   0.129088 0.534356 0.603323 -0.456005
H40   H     H_    0.084576 0.516920 0.642529 0.198259
H41   H     H_    0.222456 0.505798 0.608665 0.193814
C48   C     C_3   0.082829 0.455707 0.382547 -0.890445
H42   H     H_    0.022633 0.543736 0.371905 0.243392
H43   H     H_    0.182428 0.479654 0.373919 0.224575
H44   H     H_    0.054235 0.376791 0.350343 0.246914
C49   C     C_3   0.122160 0.252601 0.440204 -0.888150
H45   H     H_    0.063973 0.186474 0.411502 0.225621
H46   H     H_    0.216355 0.257503 0.420655 0.247715
H47   H     H_    0.131093 0.194124 0.479783 0.231798
C50   C     C_3   0.778211 0.242401 0.056299 -0.770551
H48   H     H_    0.836143 0.315971 0.081642 0.267457
H49   H     H_    0.742639 0.157408 0.083857 0.265598
H50   H     H_    0.840851 0.194899 0.024181 0.207379
C51   C     C_3   0.686632 0.657957 0.320461 -0.915989
H51   H     H_    0.741335 0.593841 0.350802 0.225395
H52   H     H_    0.751986 0.699318 0.287704 0.242794
H53   H     H_    0.646380 0.746725 0.343510 0.244490

loop_
_geom_bond_atom_site_label_1
_geom_bond_atom_site_label_2
_geom_bond_distance
_ccdc_geom_bond_type
C34   H12   1.115315 S    
C43   H21   1.111897 S    
N5    H30   1.045396 S    
C7    C10   1.400568 A    
C21   C22   1.401604 A    
C8    C9    1.404587 A    
C44   H22   1.111687 S    
N6    H39   1.046683 S    
C49   H45   1.112519 S    
C25   C26   1.380624 A    
C41   C42   1.573147 S    
C28   C29   1.413312 A    
Zn1   O7    1.994854 S    
C15   C16   1.400088 A    
H14   C38   1.113221 S    
C17   N2    1.362370 A    
H20   C42   1.110111 S    
C19   H4    1.083608 S    
O7    C4    1.287664 A    
C33   H9    1.112340 S    
C10   H1    1.083256 S    
C34   H10   1.111743 S    
C5    N1    1.365176 A    
C46   H34   1.108378 S    
C7    C8    1.412194 A    
C35   C49   1.563879 S    
C39   H15   1.105215 S    
O5    C3    1.275712 A    
C50   H48   1.110100 S    
C44   H24   1.111762 S    
C48   H42   1.100884 S    
C4    C27   1.457171 S    
C17   O11   1.350502 S    
N1    C6    1.364381 A    
C26   C27   1.401550 A    
C2    C21   1.449887 S    
C46   H33   1.102960 S    
C40   H18   1.112028 S    
C12   C13   1.412539 A    
C39   H17   1.111976 S    
C45   H28   1.110652 S    
N5    H31   1.045137 S    
C10   C11   1.388042 A    
N7    H41   1.045935 S    
C28   C45   1.515295 S    
C22   C23   1.384127 A    
C33   C37   1.557974 S    
O3    Zn1   1.995182 S    
N6    H38   1.041814 S    
C23   C24   1.393980 A    
C48   H43   1.107727 S    
C5    C9    1.398112 A    
C11   H2    1.083301 S    
C29   N5    1.434485 S    
C37   C38   1.556951 S    
C13   C14   1.420072 A    
C44   N4    1.487193 S    
C43   N3    1.487977 S    
C14   C15   1.427766 A    
C29   C30   1.403382 A    
C31   N6    1.487577 S    
C47   H37   1.102524 S    
Zn2   N3    1.999566 S    
O1    C1    1.281793 A    
C50   H50   1.110966 S    
C32   N7    1.477750 S    
N2    C18   1.366802 A    
C42   N4    1.486193 S    
C25   H7    1.083078 S    
C41   N3    1.486787 S    
Zn2   O8    1.995523 S    
C35   C38   1.548978 S    
C46   H32   1.108814 S    
C47   H36   1.107259 S    
C6    C7    1.396620 A    
N1    C30   1.422216 S    
C12   C17   1.391477 A    
C45   H29   1.109308 S    
C33   H11   1.109826 S    
H19   C41   1.108444 S    
C48   H44   1.113074 S    
C25   C30   1.390337 A    
O3    C2    1.288826 A    
C20   C21   1.412088 A    
O8    C4    1.287573 A    
C26   H8    1.084177 S    
C31   C33   1.550691 S    
C1    C36   1.472481 S    
C22   H5    1.083443 S    
C32   C47   1.556209 S    
N7    H40   1.047022 S    
C51   H52   1.110745 S    
C43   H23   1.112640 S    
C31   C36   1.640073 S    
C23   H6    1.082993 S    
C3    C37   1.450001 S    
C42   H26   1.109031 S    
C14   C18   1.412870 A    
Zn1   O5    2.020062 S    
H13   C38   1.115224 S    
O1    Zn1   2.014024 S    
O2    Zn2   2.020798 S    
C15   C50   1.511392 S    
C31   C46   1.582808 S    
O6    C3    1.281042 A    
O4    Zn2   1.994517 S    
C49   H46   1.108734 S    
C5    O9    1.350163 S    
C9    C16   1.397982 A    
C20   C51   1.506663 S    
C18   O12   1.347753 S    
N2    C24   1.423723 S    
C51   H53   1.106413 S    
O2    C1    1.285831 A    
C51   H51   1.110553 S    
C27   C28   1.418690 A    
C19   C20   1.397183 A    
O4    C2    1.283739 A    
C16   H3    1.083885 S    
C32   C36   1.629658 S    
C47   H35   1.111712 S    
C32   C34   1.556128 S    
C8    C13   1.407391 A    
C39   C40   1.571604 S    
C40   N4    1.484569 S    
C50   H49   1.110139 S    
C35   C48   1.560713 S    
C19   C24   1.398833 A    
C49   H47   1.088331 S    
C39   N3    1.485431 S    
C43   C44   1.575155 S    
C34   C37   1.544302 S    
Zn1   N4    1.999593 S    
C41   H25   1.112618 S    
Zn2   O6    2.013289 S    
C35   C36   1.632030 S    
C6    O10   1.349936 S    
C11   C12   1.403707 A    
C40   H16   1.106248 S    
C45   H27   1.106209 S    
