data_mof_unit_67129.cif
_audit_creation_date              2012-12-11T17:44:49-0500
_audit_creation_method            fapswitch 2.2
_symmetry_space_group_name_H-M    P1
_symmetry_Int_Tables_number       1
_space_group_crystal_system       triclinic
_cell_length_a                    8.199486
_cell_length_b                    12.783857
_cell_length_c                    14.8777
_cell_angle_alpha                 96.242906
_cell_angle_beta                  97.413558
_cell_angle_gamma                 98.425547
_cell_volume                      1516.76128591

loop_
_atom_site_label
_atom_site_type_symbol
_atom_type_description
_atom_site_fract_x
_atom_site_fract_y
_atom_site_fract_z
_atom_type_partial_charge
Ba1   Ba    Ba6+2 0.843760 0.550230 0.455610 1.648881
Ba2   Ba    Ba6+2 0.346080 0.449860 0.544400 1.635434
C1    C     C_3   0.595894 0.876628 0.087245 -0.065751
C2    C     C_R   0.108906 0.470570 0.207244 0.054243
C3    C     C_R   0.921076 0.480323 0.767070 -0.296600
C4    C     C_3   0.087673 0.771557 0.202976 0.450819
C5    C     C_R   0.821352 0.443598 0.829223 0.044871
C6    C     C_R   0.883245 0.455002 0.922170 -0.110567
C7    C     C_R   0.049559 0.503773 0.955261 0.030432
C8    C     C_R   0.147515 0.548043 0.891272 -0.021863
C9    C     C_R   0.121907 0.509233 0.049398 0.016591
C10   C     C_R   0.291170 0.558561 0.077322 -0.031961
C11   C     C_R   0.382995 0.600115 0.012427 -0.112486
C12   C     C_3   0.556997 0.811510 0.165537 0.521641
C13   C     C_R   0.310342 0.600286 0.923135 -0.048946
C14   C     C_R   0.034811 0.462776 0.115882 -0.131812
C15   C     C_R   0.270392 0.525005 0.233880 -0.289316
C16   C     C_3   0.059771 0.798928 0.105189 -0.067104
C17   C     C_R   0.080958 0.536180 0.796532 0.035286
C18   C     C_R   0.768554 0.177788 0.529838 -0.300014
C19   C     C_R   0.421734 0.807337 0.458815 -0.264629
C20   C     C_R   0.388179 0.981593 0.418502 0.092850
C21   C     C_R   0.323089 0.874993 0.419194 -0.026700
C22   C     C_R   0.580023 0.846702 0.508486 0.079428
C23   C     C_3   0.419239 0.289501 0.262079 0.356917
C24   C     C_R   0.645357 0.957766 0.514616 -0.079969
C25   C     C_R   0.547754 0.026481 0.469345 -0.025935
C26   C     C_R   0.612608 0.137719 0.479259 0.068010
C27   C     C_R   0.870078 0.110753 0.566076 0.002126
C28   C     C_3   0.253838 0.773805 0.642677 0.289770
C29   C     C_R   0.806576 0.002107 0.562573 -0.089319
C30   C     C_3   0.279692 0.894860 0.655783 -0.382736
C31   C     C_3   0.928810 0.221699 0.347515 0.292264
C32   C     C_3   0.867044 0.103240 0.322565 -0.419941
C33   C     C_3   0.776108 0.701254 0.732472 0.322829
C34   C     C_3   0.456066 0.279788 0.163675 -0.101729
C35   C     C_3   0.807778 0.734814 0.835447 -0.399677
C36   C     C_3   0.141019 0.227352 0.793527 0.338828
C37   C     C_3   0.127847 0.191620 0.887253 -0.130541
C38   C     C_3   0.577851 0.171621 0.779510 0.457007
C39   C     C_3   0.535558 0.076952 0.832218 -0.348790
C40   C     C_R   0.364130 0.566535 0.170153 -0.028459
H1    H     H_    0.413189 0.926521 0.678464 0.084308
H2    H     H_    0.847179 0.669332 0.871551 0.052871
H3    H     H_    0.692020 0.754978 0.859453 0.116308
H4    H     H_    0.429402 0.767883 0.142881 -0.081262
H5    H     H_    0.603208 0.820291 0.025960 0.060988
H6    H     H_    0.483679 0.369081 0.296246 0.009055
H7    H     H_    0.405304 0.343214 0.128917 0.045588
H8    H     H_    0.261193 0.279669 0.795399 0.106886
H9    H     H_    0.041814 0.275400 0.777128 0.018206
H10   H     H_    0.004181 0.141807 0.885514 0.127824
H11   H     H_    0.224879 0.142334 0.905062 0.097064
H12   H     H_    0.834171 0.259112 0.379968 0.010151
H13   H     H_    0.493681 0.158533 0.712843 0.062891
H14   H     H_    0.591619 0.097643 0.905276 0.123189
H15   H     H_    0.584534 0.005617 0.804595 0.083363
H16   H     H_    0.017298 0.690547 0.203886 0.033580
H17   H     H_    0.398750 0.055562 0.828022 0.107083
H18   H     H_    0.326657 0.530421 0.304463 0.073087
H19   H     H_    0.512989 0.634292 0.029845 0.078260
H20   H     H_    0.910463 0.418376 0.098867 0.089128
H21   H     H_    0.798496 0.424706 0.966354 0.080949
H22   H     H_    0.885504 0.953978 0.597143 0.112259
H23   H     H_    0.046171 0.233677 0.395790 0.076247
H24   H     H_    0.222351 0.770432 0.222962 -0.118284
H25   H     H_    0.370224 0.723891 0.455626 0.064064
H26   H     H_    0.125571 0.748879 0.060875 0.008055
H27   H     H_    0.924705 0.780395 0.078048 0.131660
H28   H     H_    0.361858 0.745934 0.616473 0.003166
H29   H     H_    0.140945 0.745738 0.591824 0.089532
H30   H     H_    0.504724 0.946350 0.238177 0.124650
H31   H     H_    0.680947 0.904462 0.282613 0.223101
H32   H     H_    0.241872 0.924080 0.590160 0.102672
H33   H     H_    0.203088 0.924728 0.706234 0.153894
H34   H     H_    0.735308 0.091451 0.289942 0.115053
H35   H     H_    0.907608 0.805636 0.852891 0.118351
H36   H     H_    0.283091 0.284260 0.261979 0.012709
H37   H     H_    0.407370 0.174791 0.047024 0.170860
H38   H     H_    0.442076 0.117427 0.141263 0.200622
H39   H     H_    0.593268 0.291803 0.163717 0.114965
H40   H     H_    0.725637 0.023780 0.138842 0.174112
H41   H     H_    0.799417 0.964884 0.051261 0.183338
H42   H     H_    0.106010 0.924692 0.033674 0.170254
H43   H     H_    0.246872 0.927759 0.126622 0.166452
H44   H     H_    0.271130 0.321189 0.966567 0.197116
H45   H     H_    0.875145 0.061914 0.384080 0.089280
H46   H     H_    0.122866 0.256389 0.017954 0.201566
H47   H     H_    0.768415 0.227786 0.713107 0.112218
H48   H     H_    0.773252 0.104946 0.737648 0.140740
H49   H     H_    0.870077 0.470120 0.695285 0.070200
H50   H     H_    0.386968 0.639713 0.879167 0.106127
H51   H     H_    0.177973 0.045115 0.387532 0.195374
H52   H     H_    0.269487 0.005831 0.295536 0.186199
H53   H     H_    0.815885 0.262372 0.537115 0.059861
H54   H     H_    0.943677 0.067839 0.274813 0.176574
H55   H     H_    0.893075 0.683220 0.709533 0.003106
H56   H     H_    0.678495 0.629153 0.717113 0.061915
H57   H     H_    0.492652 0.921043 0.067822 0.013995
N1    N     N_3   0.557829 0.879133 0.251421 -0.511181
N2    N     N_3   0.380633 0.175505 0.113852 -0.493899
N3    N     N_3   0.752817 0.950573 0.111762 -0.447461
N4    N     N_3   0.119445 0.911667 0.102234 -0.454291
N5    N     N_3   0.146656 0.283824 0.956500 -0.520590
N6    N     N_3   0.751441 0.179733 0.764564 -0.503177
N7    N     N_3   0.291245 0.041747 0.363383 -0.449021
O1    O     O_2   0.827930 0.435360 0.277760 -0.457540
O2    O     O_2   0.213646 0.119520 0.567306 -0.487614
O3    O     O_3   0.129910 0.136529 0.729319 -0.639608
O4    O     O_3   0.100310 0.439010 0.391180 -0.502152
O5    O     O_3   0.587770 0.631830 0.546230 -0.490645
O6    O     O_2   0.332600 0.233710 0.456170 -0.456265
O7    O     O_3   0.474585 0.205270 0.303839 -0.637697
O8    O     O_2   0.490667 0.454066 0.824955 -0.494851
O9    O     O_3   0.551684 0.263265 0.833805 -0.607398
O10   O     O_3   0.625610 0.634200 0.333270 -0.453379
O11   O     O_2   0.692054 0.543401 0.176357 -0.494444
O12   O     O_3   0.724549 0.785721 0.690162 -0.640907
O13   O     O_3   0.954932 0.264995 0.267587 -0.634656
O14   O     O_3   0.674796 0.742486 0.178200 -0.575423
O15   O     O_2   0.857120 0.766320 0.543890 -0.480379
O16   O     O_3   0.056570 0.691100 0.379020 -0.483476
O17   O     O_2   0.985061 0.878590 0.433393 -0.488732
O18   O     O_3   0.031435 0.846534 0.262937 -0.565206
O19   O     O_2   0.361790 0.564680 0.722290 -0.461054
O20   O     O_3   0.089410 0.561080 0.608830 -0.503792
O21   O     O_3   0.564100 0.365890 0.666740 -0.485432
O22   O     O_3   0.236917 0.736042 0.726355 -0.639546
O23   O     O_3   0.601940 0.368260 0.453780 -0.482209
O24   O     O_3   0.133140 0.308990 0.620990 -0.488922
P1    P     P_3+3 0.998770 0.403620 0.291990 0.972693
P2    P     P_3+3 0.687370 0.751000 0.571300 0.973722
P3    P     P_3+3 0.100508 0.825578 0.374879 0.955747
P4    P     P_3+3 0.190950 0.596470 0.708020 0.964866
P5    P     P_3+3 0.085902 0.169638 0.618657 0.925265
P6    P     P_3+3 0.585319 0.623215 0.213575 0.969402
P7    P     P_3+3 0.507522 0.235716 0.423033 0.969616
P8    P     P_3+3 0.606522 0.381431 0.786747 0.944738

loop_
_geom_bond_atom_site_label_1
_geom_bond_atom_site_label_2
_ccdc_geom_bond_type
O19   P4    D    
H31   N1    S    
H41   N3    S    
O3    P5    S    
C4    H16   S    
O24   P5    S    
C4    O18   S    
Ba1   P2    S    
H44   N5    S    
C30   H33   S    
C28   H29   S    
C31   H23   S    
C37   N5    S    
C12   H4    S    
C17   P4    S    
Ba2   O6    S    
C24   C25   A    
Ba2   P4    S    
O18   P3    S    
O17   P3    D    
C33   C35   S    
C32   H54   S    
O10   P6    S    
C39   H14   S    
O22   P4    S    
C8    C13   A    
C30   H32   S    
C36   C37   S    
H51   N7    S    
C38   O9    S    
C16   H26   S    
Ba2   O23   S    
C40   P6    S    
Ba1   Ba2   S    
C15   C40   A    
C10   C40   A    
C28   H28   S    
C13   H50   S    
Ba1   O16   S    
Ba2   O4    S    
C6    C7    A    
O13   P1    S    
Ba1   O10   S    
C33   H56   S    
C7    C8    A    
C8    C17   A    
H43   N4    S    
C16   N4    S    
Ba2   O21   S    
C16   H27   S    
C37   H10   S    
C24   C29   A    
C19   H25   S    
C14   H20   S    
C29   H22   S    
H46   N5    S    
C2    P1    S    
C18   C27   A    
C4    C16   S    
C28   O22   S    
Ba2   O5    S    
C21   P3    S    
C23   H36   S    
C5    C6    A    
Ba1   O20   S    
C39   H17   S    
O2    P5    D    
O1    P1    D    
C3    C5    A    
C36   H9    S    
C18   C26   A    
C20   N7    S    
C35   H35   S    
C34   N2    S    
O14   P6    S    
C2    C14   A    
O16   P3    S    
C23   O7    S    
Ba1   O4    S    
C9    C14   A    
C22   P2    S    
O9    P8    S    
C34   H39   S    
C38   H13   S    
C31   C32   S    
H40   N3    S    
O23   P7    S    
O4    P1    S    
C36   O3    S    
C7    C9    A    
C23   H6    S    
C3    H49   S    
C1    C12   S    
Ba1   O1    S    
C36   H8    S    
C2    C15   A    
Ba2   O20   S    
C1    N3    S    
C38   C39   S    
C27   P5    S    
C18   H53   S    
C31   O13   S    
C12   O14   S    
C20   C25   A    
C11   C13   A    
O7    P7    S    
O15   P2    D    
C35   H3    S    
H30   N1    S    
C31   H12   S    
H52   N7    S    
C23   C34   S    
O6    P7    D    
C26   P7    S    
H48   N6    S    
C22   C24   A    
Ba1   P1    S    
C5    P8    S    
C9    C10   A    
C12   N1    S    
C3    C17   A    
Ba1   O23   S    
O21   P8    S    
H38   N2    S    
C35   H2    S    
C19   C21   A    
C39   H15   S    
C27   C29   A    
Ba1   O5    S    
C28   C30   S    
C37   H11   S    
C1    H5    S    
Ba2   O24   S    
C30   H1    S    
C15   H18   S    
C32   H45   S    
O8    P8    D    
Ba1   O15   S    
O12   P2    S    
C6    H21   S    
Ba2   O19   S    
C1    H57   S    
O5    P2    S    
C4    H24   S    
C11   H19   S    
C10   C11   A    
O20   P4    S    
C19   C22   A    
H47   N6    S    
C25   C26   A    
H42   N4    S    
C20   C21   A    
H37   N2    S    
C33   O12   S    
C33   H55   S    
O11   P6    D    
C34   H7    S    
C32   H34   S    
C38   N6    S    
