data_mof_unit_42831.cif
_audit_creation_date              2012-12-10T20:34:08-0500
_audit_creation_method            fapswitch 2.2
_symmetry_space_group_name_H-M    P1
_symmetry_Int_Tables_number       1
_space_group_crystal_system       triclinic
_cell_length_a                    9.89037
_cell_length_b                    10.644135
_cell_length_c                    13.631401
_cell_angle_alpha                 90.11606
_cell_angle_beta                  82.992065
_cell_angle_gamma                 89.641459
_cell_volume                      1424.28371675

loop_
_atom_site_label
_atom_site_type_symbol
_atom_type_description
_atom_site_fract_x
_atom_site_fract_y
_atom_site_fract_z
_atom_type_partial_charge
C1    C     C_R   0.500047 0.739580 0.496510 0.856843
C2    C     C_1   0.456511 0.492506 0.788952 -0.053722
C3    C     C_R   0.394746 0.937572 0.537846 0.043605
C4    C     C_R   0.498478 0.871191 0.482900 -0.157898
C5    C     C_R   0.592198 0.932599 0.412120 -0.070219
C6    C     C_R   0.590141 0.065576 0.409860 -0.039570
C7    C     C_R   0.501607 0.128897 0.483600 -0.176241
C8    C     C_R   0.397862 0.064795 0.539289 0.050548
C9    C     C_3   0.343100 0.071448 0.647131 0.353124
C10   C     C_3   0.339411 0.927884 0.644970 -0.489189
C11   C     C_R   0.916092 0.559607 0.573399 0.108155
C12   C     C_R   0.475625 0.499060 0.685546 0.914544
C13   C     C_R   0.941335 0.450124 0.423407 -0.078963
C14   C     C_R   0.085007 0.449767 0.423531 -0.036629
C15   C     C_R   0.058816 0.561004 0.573027 -0.016957
C16   C     C_3   0.049500 0.535005 0.681498 -0.351769
C17   C     C_3   0.894825 0.529271 0.681744 0.709010
C18   C     C_R   0.501194 0.260647 0.495169 0.852406
C19   C     C_R   0.524371 0.499866 0.314411 0.847387
C20   C     C_1   0.542184 0.497644 0.210822 -0.100844
C21   C     C_2   0.547544 0.491727 0.019884 -0.158654
C22   C     C_2   0.430455 0.480095 0.980636 -0.007193
C23   C     C_1   0.441038 0.486184 0.876498 -0.045306
C24   C     C_1   0.550086 0.494960 0.123256 0.106477
H1    H     H_    0.149247 0.406169 0.362864 0.173619
H2    H     H_    0.096894 0.443480 0.697993 0.215652
H3    H     H_    0.643940 0.503038 0.973032 0.173493
H4    H     H_    0.411594 0.880257 0.689546 0.210228
H5    H     H_    0.234940 0.888686 0.654607 0.196266
H6    H     H_    0.897828 0.407170 0.362582 0.142789
N1    N     N_R   0.857130 0.500860 0.500650 -0.088084
N2    N     N_R   0.142770 0.500820 0.500650 -0.089308
O1    O     O_R   0.385310 0.683210 0.499990 -0.600894
O2    O     O_R   0.614650 0.683240 0.500000 -0.626372
O3    O     O_R   0.368820 0.499950 0.640340 -0.609693
O4    O     O_R   0.598170 0.499990 0.640350 -0.540904
O5    O     O_R   0.385350 0.316760 0.500000 -0.600110
O6    O     O_R   0.614690 0.316790 0.500010 -0.604705
O7    O     O_R   0.401830 0.500010 0.359650 -0.588866
O8    O     O_R   0.631180 0.500050 0.359660 -0.646675
Zn1   Zn    Zn3+2 0.346870 0.499980 0.499990 0.992162
Zn2   Zn    Zn3+2 0.653130 0.500020 0.500010 1.005289
C25   C     C_2   0.292329 0.464028 0.036079 0.477503
H7    H     H_    0.204576 0.460651 0.995434 0.098339
O9    O     O_2   0.274031 0.453496 0.125860 -0.572195
C26   C     C_2   0.097957 0.644212 0.737791 0.502430
H8    H     H_    0.070267 0.739607 0.720243 0.053944
O10   O     O_2   0.167281 0.626205 0.804592 -0.577206
O11   O     O_3   0.843434 0.407818 0.699614 -0.698650
H9    H     H_    0.845461 0.391999 0.771141 0.352952
O12   O     O_3   0.818718 0.620254 0.740962 -0.757273
H10   H     H_    0.828473 0.702869 0.707213 0.312864
C27   C     C_2   0.692643 0.857704 0.345433 0.548307
H11   H     H_    0.664016 0.767232 0.317821 0.035217
O13   O     O_2   0.809482 0.893727 0.324151 -0.521311
C28   C     C_2   0.671357 0.137523 0.329570 0.468851
H12   H     H_    0.709472 0.230254 0.342932 0.068376
O14   O     O_2   0.691305 0.095953 0.245472 -0.523916
C29   C     C_2   0.439973 0.125951 0.713152 0.454015
H13   H     H_    0.404736 0.199040 0.765939 0.082420
O15   O     O_2   0.557970 0.089387 0.708004 -0.567571
O16   O     O_3   0.213080 0.127928 0.664307 -0.766067
H14   H     H_    0.155959 0.095100 0.614991 0.356140

loop_
_geom_bond_atom_site_label_1
_geom_bond_atom_site_label_2
_ccdc_geom_bond_type
C11   N1    A    
N2    Zn1   S    
O16   H14   S    
N1    Zn2   S    
C13   C14   A    
C12   O4    A    
C9    C10   S    
O4    Zn2   S    
C19   C20   S    
O2    Zn2   S    
C25   H7    S    
C1    C4    S    
C2    C12   S    
C17   O12   S    
O8    Zn2   S    
C21   H3    S    
O1    Zn1   S    
C29   H13   S    
O7    Zn1   S    
C3    C10   S    
C27   H11   S    
C12   O3    A    
O5    Zn1   S    
C25   O9    D    
C10   H5    S    
C6    C7    A    
C19   O7    A    
C9    O16   S    
C4    C5    A    
C5    C27   S    
C18   O5    A    
C28   O14   D    
C1    O2    A    
O6    Zn2   S    
C27   O13   D    
C14   H1    S    
C18   O6    A    
C5    C6    A    
O3    Zn1   S    
C26   O10   D    
C29   O15   D    
C16   C17   S    
C19   O8    A    
C1    O1    A    
C17   O11   S    
C15   C16   S    
C20   C24   T    
C13   H6    S    
C7    C8    A    
C7    C18   S    
C14   N2    A    
C28   H12   S    
C3    C8    A    
C26   H8    S    
C21   C24   S    
C10   H4    S    
C2    C23   T    
O11   H9    S    
C22   C23   S    
C16   C26   S    
C21   C22   D    
C11   C15   A    
C13   N1    A    
C22   C25   S    
C11   C17   S    
C3    C4    A    
O12   H10   S    
C6    C28   S    
C8    C9    S    
C9    C29   S    
C16   H2    S    
C15   N2    A    
