data_mof_unit_66801.cif
_audit_creation_date              2013-03-05T15:41:07-0500
_audit_creation_method            fapswitch 2.2
_symmetry_space_group_name_H-M    P1
_symmetry_Int_Tables_number       1
_space_group_crystal_system       triclinic
_cell_length_a                    8.498819
_cell_length_b                    14.551671
_cell_length_c                    15.133297
_cell_angle_alpha                 94.767068
_cell_angle_beta                  99.359129
_cell_angle_gamma                 91.645302
_cell_volume                      1838.56616906

loop_
_atom_site_label
_atom_site_type_symbol
_atom_site_description
_atom_site_fract_x
_atom_site_fract_y
_atom_site_fract_z
_atom_type_partial_charge
P1    P     P_3+3 0.947560 0.714050 0.560480 0.450260
O1    O     O_2   0.113690 0.728200 0.532750 -0.364281
O2    O     O_3   0.871900 0.612110 0.540440 -0.427725
O3    O     O_3   0.325660 0.668890 0.372600 -0.435737
O4    O     O_2   0.208891 0.831042 0.416350 -0.361183
O5    O     O_3   0.985370 0.746253 0.677140 -0.574452
O6    O     O_3   0.309999 0.817960 0.261407 -0.572947
H1    H     H_    0.178124 0.697581 0.214328 0.181080
C1    C     C_3   0.258868 0.761406 0.105954 -0.956541
H2    H     H_    0.236552 0.697364 0.059611 0.225833
H3    H     H_    0.154379 0.805364 0.093346 0.279296
P2    P     P_3+3 0.325150 0.423860 0.297970 0.504727
P3    P     P_3+3 0.856136 0.620372 0.212913 0.483491
O7    O     O_2   0.147570 0.451710 0.282630 -0.289477
O8    O     O_3   0.905540 0.621350 0.329600 -0.383795
O9    O     O_2   0.983673 0.563422 0.173481 -0.329703
O10   O     O_3   0.304725 0.301946 0.282137 -0.547272
O11   O     O_3   0.886969 0.730523 0.178233 -0.559250
C2    C     C_3   0.840768 0.799146 0.238645 0.415053
H4    H     H_    0.895041 0.789706 0.309314 0.102723
C3    C     C_3   0.906091 0.893413 0.217928 -0.585620
H5    H     H_    0.038123 0.893518 0.225972 0.247227
C4    C     C_3   0.753736 0.302904 0.259144 0.852208
H6    H     H_    0.677165 0.353106 0.288171 -0.119026
C5    C     C_3   0.654633 0.246356 0.175478 -0.361376
H7    H     H_    0.616790 0.296647 0.125202 0.168663
Ba1   Ba    Ba6+2 0.142880 0.544780 0.454020 1.556624
C6    C     C_3   0.982086 0.670622 0.728688 0.428939
H8    H     H_    0.900955 0.613576 0.695276 0.170356
C7    C     C_3   0.928965 0.700979 0.818025 -0.914584
H9    H     H_    0.000656 0.762960 0.851666 0.260502
H10   H     H_    0.943886 0.644472 0.863217 0.226053
H11   H     H_    0.801773 0.717257 0.807112 0.265150
C8    C     C_3   0.269996 0.264438 0.359948 0.501559
H12   H     H_    0.169665 0.300212 0.383994 0.048539
H13   H     H_    0.376027 0.276096 0.413801 0.092245
C9    C     C_3   0.227961 0.158141 0.344669 -0.350035
H14   H     H_    0.269260 0.129576 0.409803 0.178609
P4    P     P_3+3 0.862730 0.285940 0.439440 0.502351
O12   O     O_2   0.696600 0.271740 0.467230 -0.323259
O13   O     O_3   0.938380 0.387880 0.459490 -0.421169
O14   O     O_3   0.484630 0.331100 0.627330 -0.410604
O15   O     O_3   0.819788 0.244031 0.323332 -0.589771
P5    P     P_3+3 0.950238 0.391128 0.788176 0.464298
O16   O     O_3   0.389110 0.548970 0.605210 -0.413740
O17   O     O_3   0.904740 0.378630 0.670330 -0.385834
O18   O     O_2   0.820344 0.449989 0.822241 -0.381118
O19   O     O_3   0.926778 0.283940 0.832677 -0.492592
Ba2   Ba    Ba6+2 0.667290 0.455210 0.545900 1.571986
P6    P     P_3+3 0.345903 0.788494 0.372794 0.434247
C10   C     C_3   0.284709 0.736837 0.202832 0.465205
H15   H     H_    0.388329 0.692129 0.212649 0.040282
H16   H     H_    0.366474 0.799221 0.092281 0.259033
O20   O     O_3   0.421180 0.451020 0.394720 -0.447756
C11   C     C_3   0.503978 0.746911 0.696903 0.121195
H17   H     H_    0.622931 0.740798 0.677527 0.075991
H18   H     H_    0.404529 0.730433 0.640207 0.118991
C12   C     C_3   0.495334 0.848682 0.732045 0.121151
P7    P     P_3+3 0.483966 0.571993 0.719461 0.411299
O21   O     O_2   0.662730 0.548230 0.717350 -0.370073
O22   O     O_3   0.491767 0.688223 0.763708 -0.610793
H19   H     H_    0.876174 0.947256 0.267682 0.193875
C13   C     C_3   0.010927 0.211298 0.795594 0.134092
H20   H     H_    0.942464 0.185371 0.728530 0.131415
C14   C     C_3   0.023257 0.130061 0.859215 0.638333
P8    P     P_3+3 0.451107 0.212232 0.631174 0.499364
C15   C     C_3   0.544881 0.266909 0.799569 0.355058
H21   H     H_    0.449439 0.317088 0.790960 0.024978
O23   O     O_2   0.577512 0.163817 0.583131 -0.290077
O24   O     O_3   0.503586 0.185391 0.742717 -0.511624
H22   H     H_    0.651824 0.299594 0.781579 0.179189
C16   C     C_3   0.576028 0.243775 0.898197 -0.072661
H23   H     H_    0.616574 0.172439 0.900260 0.218126
C17   C     C_R   0.008533 0.941314 0.548302 0.014972
C18   C     C_R   0.813053 0.802619 0.508293 0.236131
C19   C     C_R   0.650305 0.773813 0.478695 -0.297072
C20   C     C_R   0.546076 0.831930 0.431061 0.283462
C21   C     C_R   0.595464 0.921335 0.421931 -0.184588
C22   C     C_R   0.749101 0.957835 0.460917 -0.041300
C23   C     C_R   0.859481 0.899489 0.506308 -0.070618
C24   C     C_R   0.935773 0.096527 0.499934 -0.192570
C25   C     C_R   0.046486 0.037648 0.546422 0.030391
C26   C     C_R   0.980129 0.195239 0.502339 0.310468
C27   C     C_R   0.132953 0.226815 0.545852 -0.537871
C28   C     C_R   0.244565 0.167092 0.583860 0.178585
C29   C     C_R   0.198212 0.074769 0.588394 -0.146086
C30   C     C_R   0.790674 0.051972 0.452494 0.385866
H24   H     H_    0.508853 0.961767 0.383961 0.191738
H25   H     H_    0.281711 0.032317 0.625691 0.217894
H26   H     H_    0.169172 0.298810 0.546450 0.162326
H27   H     H_    0.095351 0.899683 0.584651 0.185213
C31   C     C_R   0.250408 0.459608 0.770777 -0.517106
C32   C     C_R   0.148592 0.445772 0.832412 0.261247
C33   C     C_R   0.199570 0.471988 0.925183 -0.134871
C34   C     C_R   0.361492 0.501791 0.956820 0.056395
C35   C     C_R   0.455779 0.522088 0.890895 -0.192847
C36   C     C_R   0.397838 0.505074 0.799080 0.311458
C37   C     C_R   0.578211 0.564000 0.086861 -0.223971
C38   C     C_R   0.651151 0.568556 0.176504 0.329096
C39   C     C_R   0.426154 0.479760 0.213416 0.219385
C40   C     C_R   0.363633 0.466334 0.121152 -0.281803
C41   C     C_R   0.432550 0.512605 0.056267 0.107869
C42   C     C_R   0.571214 0.531466 0.240233 -0.326295
H28   H     H_    0.639404 0.600679 0.042707 0.135258
H29   H     H_    0.263353 0.417851 0.101587 0.202866
H30   H     H_    0.574062 0.553616 0.908342 0.170335
H31   H     H_    0.207219 0.444877 0.699485 0.168836
N1    N     N_3   0.511522 0.201971 0.196277 -0.147875
H32   H     H_    0.413100 0.228686 0.157256 0.168091
H33   H     H_    0.505450 0.131957 0.173228 0.172799
N2    N     N_3   0.751641 0.178604 0.133664 -0.109124
H34   H     H_    0.684982 0.149494 0.073119 0.166345
H35   H     H_    0.775352 0.124296 0.173747 0.195563
N3    N     N_3   0.140313 0.636569 0.746687 -0.230021
H36   H     H_    0.215289 0.687913 0.785399 0.137045
H37   H     H_    0.178008 0.625253 0.684664 0.143514
N4    N     N_3   0.057083 0.137424 0.322507 -0.181620
H38   H     H_    0.019255 0.142228 0.254155 0.206529
H39   H     H_    0.036759 0.068540 0.333500 0.115033
N5    N     N_3   0.307534 0.109988 0.276914 -0.129179
H40   H     H_    0.247455 0.119847 0.212625 0.179443
H41   H     H_    0.298073 0.039058 0.283204 0.160465
N6    N     N_3   0.625474 0.872481 0.807849 -0.188778
H42   H     H_    0.735631 0.872186 0.785491 0.189611
H43   H     H_    0.610685 0.939229 0.835554 0.224456
N7    N     N_R   0.508781 0.905336 0.657403 0.227569
O25   O     O_R   0.634990 0.957740 0.656747 -0.321607
O26   O     O_R   0.402593 0.893280 0.584854 -0.469151
N8    N     N_3   0.342830 0.865553 0.762655 -0.140504
H44   H     H_    0.248860 0.838682 0.713262 0.172326
H45   H     H_    0.337896 0.832090 0.820725 0.148024
N9    N     N_3   0.170731 0.242242 0.784019 -0.212227
H46   H     H_    0.160729 0.277130 0.726080 0.091193
H47   H     H_    0.232863 0.184558 0.767801 0.137771
N10   N     N_R   0.862893 0.094185 0.865117 0.213061
O27   O     O_R   0.757835 0.079784 0.792303 -0.360415
O28   O     O_R   0.835909 0.056825 0.936791 -0.409535
N11   N     N_R   0.109326 0.054017 0.821104 0.183883
O29   O     O_R   0.256320 0.039454 0.855252 -0.399763
O30   O     O_R   0.040635 0.001997 0.750538 -0.415980
N12   N     N_R   0.106630 0.161367 0.950886 0.248888
O31   O     O_R   0.129521 0.248528 0.978240 -0.398357
O32   O     O_R   0.145617 0.101307 0.008993 -0.358884
N13   N     N_3   0.429056 0.246547 0.935844 -0.186022
H48   H     H_    0.447922 0.216768 0.996926 0.144334
H49   H     H_    0.401525 0.315158 0.949608 0.166886
N14   N     N_R   0.698591 0.306342 0.953025 0.249729
O33   O     O_R   0.826235 0.273472 0.996090 -0.295147
O34   O     O_R   0.677289 0.394162 0.964451 -0.412621
N15   N     N_3   0.586976 0.686124 0.497803 -0.166114
H50   H     H_    0.640501 0.667276 0.559267 0.138522
H51   H     H_    0.473219 0.695144 0.512761 0.169472
N16   N     N_R   0.688734 0.096598 0.387241 0.246020
O35   O     O_R   0.690375 0.069696 0.303522 -0.501708
O36   O     O_R   0.555784 0.124811 0.408564 -0.404623
N17   N     N_3   0.085335 0.477047 0.985269 -0.172173
H52   H     H_    0.001952 0.525518 0.964693 0.154358
H53   H     H_    0.025975 0.412891 0.982295 0.263261
N18   N     N_3   0.666714 0.797508 0.229518 -0.206431
H54   H     H_    0.630160 0.861247 0.253912 0.126058
H55   H     H_    0.634310 0.749944 0.272018 0.038656
N19   N     N_3   0.639854 0.548587 0.332564 -0.160475
H56   H     H_    0.675385 0.487897 0.360304 0.178108
H57   H     H_    0.559061 0.582676 0.366076 0.174155
N20   N     N_3   0.842346 0.917012 0.127205 -0.151935
H58   H     H_    0.866416 0.864830 0.080083 0.199764
H59   H     H_    0.718501 0.921661 0.120524 0.164484
N21   N     N_R   0.880703 0.348670 0.223698 0.217393
O37   O     O_R   0.838605 0.411058 0.169444 -0.389149
O38   O     O_R   0.000679 0.300214 0.207847 -0.351709

loop_
_geom_bond_atom_site_label_1
_geom_bond_atom_site_label_2
_geom_bond_distance
_ccdc_geom_bond_type
C38   C42   1.400552 A    
C11   H17   1.101452 S    
C13   C14   1.580780 S    
C32   C33   1.417010 A    
C8    C9    1.567048 S    
C2    H4    1.114883 S    
C1    C10   1.520646 S    
P8    C28   1.863404 S    
C22   C30   1.425993 A    
N3    H36   1.042082 S    
O2    Ba2   2.844935 S    
Ba1   O20   2.988855 S    
C3    N20   1.464078 S    
N6    H42   1.045938 S    
P4    O13   1.585203 S    
C20   C21   1.380300 A    
O17   Ba2   2.846422 S    
C12   N6    1.469197 S    
N20   H58   1.045625 S    
Ba2   O21   2.831547 S    
P3    O11   1.753209 S    
C26   C27   1.403197 A    
N17   H52   1.044077 S    
C2    C3    1.540307 S    
P1    O1    1.549955 D    
N4    H39   1.043749 S    
C28   C29   1.399459 A    
C7    H9    1.111356 S    
N6    H43   1.044731 S    
P8    O23   1.546430 D    
C12   N8    1.466076 S    
O12   Ba2   2.865936 S    
C4    O15   1.407570 S    
N1    H32   1.046753 S    
N10   O28   1.302456 A    
C8    H12   1.106993 S    
C39   C40   1.406220 A    
P5    C32   1.841131 S    
N17   H53   1.042445 S    
O5    C6    1.403052 S    
N14   O33   1.296921 A    
N5    H41   1.046387 S    
N9    H46   1.042104 S    
P2    O10   1.770006 S    
C4    H6    1.103204 S    
C30   N16   1.417052 S    
O1    Ba1   2.865417 S    
C19   N15   1.440143 S    
O7    Ba1   2.831240 S    
N16   O36   1.293287 A    
C18   C23   1.456897 A    
C15   H22   1.097089 S    
C7    H11   1.102290 S    
P5    O18   1.544056 D    
Ba1   O16   2.833749 S    
N21   O38   1.298904 A    
P7    O21   1.572554 D    
N20   H59   1.045584 S    
Ba2   O20   2.833027 S    
C17   C23   1.417252 A    
C3    H5    1.108791 S    
C13   H20   1.114720 S    
C27   H26   1.082316 S    
C17   C25   1.433042 A    
O13   Ba2   2.979039 S    
C24   C26   1.470543 A    
P5    O17   1.755248 S    
C31   C36   1.386329 A    
C24   C25   1.430224 A    
N19   H57   1.032356 S    
C40   H29   1.077235 S    
P7    O22   1.761895 S    
P2    Ba1   3.424677 S    
C15   H21   1.106139 S    
P1    C18   1.884606 S    
C40   C41   1.426491 A    
N10   O27   1.298537 A    
C19   C20   1.398642 A    
N13   H49   1.043866 S    
P4    O12   1.550441 D    
C21   C22   1.411626 A    
O11   C2    1.405233 S    
O19   C13   1.420959 S    
P4    O15   1.786907 S    
C5    H7    1.115499 S    
C37   C41   1.417416 A    
C39   C42   1.408532 A    
C22   C23   1.416277 A    
O3    P6    1.743719 S    
P1    O2    1.585227 S    
N12   O32   1.302489 A    
C17   H27   1.078455 S    
P3    C38   1.857537 S    
C18   C19   1.422495 A    
C9    H14   1.109739 S    
C14   N12   1.480160 S    
Ba1   O13   2.844410 S    
C31   H31   1.083002 S    
O8    Ba1   2.845692 S    
N18   H54   1.044032 S    
O16   Ba2   2.988043 S    
C35   C36   1.395597 A    
N18   H55   1.043647 S    
N2    H35   1.040275 S    
C11   H18   1.107404 S    
C24   C30   1.430119 A    
C13   N9    1.460612 S    
C27   C28   1.392434 A    
C1    H3    1.109946 S    
H1    C10   1.102357 S    
C3    H19   1.105031 S    
C14   N10   1.464413 S    
C6    N3    1.438621 S    
C14   N11   1.473028 S    
C33   N17   1.433499 S    
N21   O37   1.293568 A    
P4    Ba2   3.444917 S    
P2    O7    1.559707 D    
C12   N7    1.469703 S    
P3    O8    1.746171 S    
P7    C36   1.837603 S    
N15   H51   1.037637 S    
O4    P6    1.548203 D    
P3    O9    1.548387 D    
C1    H16   1.110648 S    
O10   C8    1.407920 S    
P6    C20   1.851736 S    
O3    Ba1   2.832712 S    
N5    H40   1.045787 S    
O14   P8    1.752229 S    
N19   H56   1.040712 S    
C1    H2    1.110959 S    
C21   H24   1.077804 S    
C16   N13   1.454974 S    
C35   H30   1.076023 S    
C6    H8    1.097347 S    
C42   N19   1.422466 S    
N7    O26   1.298937 A    
N2    H34   1.045355 S    
N14   O34   1.297127 A    
O6    P6    1.754621 S    
C16   H23   1.104409 S    
C29   H25   1.075468 S    
N3    H37   1.042068 S    
C34   C41   1.521177 S    
N11   O30   1.300658 A    
C16   N14   1.463305 S    
N13   H48   1.044173 S    
C15   O24   1.406695 S    
C2    N18   1.462468 S    
O2    Ba1   2.978321 S    
N8    H44   1.043440 S    
O6    C10   1.405351 S    
C10   H15   1.107832 S    
C25   C29   1.412302 A    
N12   O31   1.300103 A    
C7    H10   1.109593 S    
P8    O24   1.753741 S    
C9    N5    1.460481 S    
N7    O25   1.299965 A    
C37   H28   1.076205 S    
C11   O22   1.390942 S    
C6    C7    1.528882 S    
C31   C32   1.393925 A    
O16   P7    1.785055 S    
N1    H33   1.046130 S    
C8    H13   1.111028 S    
C4    C5    1.558776 S    
C33   C34   1.424077 A    
P2    O20   1.569286 S    
P2    C39   1.877771 S    
N11   O29   1.302345 A    
C5    N2    1.471331 S    
O14   Ba2   2.832185 S    
P4    C26   1.902404 S    
C4    N21   1.449828 S    
Ba1   Ba2   4.668637 S    
C9    N4    1.453294 S    
N9    H47   1.037795 S    
C37   C38   1.392191 A    
C11   C12   1.539298 S    
P1    O5    1.763240 S    
P1    Ba1   3.444327 S    
N15   H50   1.029211 S    
C15   C16   1.539894 S    
N16   O35   1.297009 A    
N4    H38   1.040847 S    
C34   C35   1.421295 A    
P5    O19   1.768201 S    
C5    N1    1.452148 S    
N8    H45   1.045515 S    
