data_mof_unit_21754.cif
_audit_creation_date              2013-03-05T16:46:52-0500
_audit_creation_method            fapswitch 2.2
_symmetry_space_group_name_H-M    P1
_symmetry_Int_Tables_number       1
_space_group_crystal_system       triclinic
_cell_length_a                    18.21795
_cell_length_b                    18.257923
_cell_length_c                    18.379367
_cell_angle_alpha                 120.125867
_cell_angle_beta                  89.958423
_cell_angle_gamma                 119.92554
_cell_volume                      4321.00804754

loop_
_atom_site_label
_atom_site_type_symbol
_atom_site_description
_atom_site_fract_x
_atom_site_fract_y
_atom_site_fract_z
_atom_type_partial_charge
Zn1   Zn    Zn3+2 0.456040 0.586770 0.543190 0.968333
Zn2   Zn    Zn3+2 0.456820 0.413240 0.543960 0.975230
Zn3   Zn    Zn3+2 0.631110 0.586750 0.543190 0.970816
Zn4   Zn    Zn3+2 0.456040 0.413240 0.369660 0.944099
O1    O     O_3   0.500000 0.500000 0.500000 -0.478109
O2    O     O_R   0.383400 0.268380 0.323710 -0.653199
O3    O     O_R   0.555060 0.731630 0.615290 -0.639634
O4    O     O_R   0.383950 0.439280 0.616600 -0.644485
O5    O     O_R   0.677590 0.560710 0.444390 -0.639942
O6    O     O_R   0.556370 0.439260 0.616600 -0.643373
O7    O     O_R   0.382640 0.439290 0.322940 -0.653876
O8    O     O_R   0.678360 0.560700 0.616060 -0.637136
O9    O     O_R   0.382640 0.560750 0.444390 -0.643210
O10   O     O_R   0.383400 0.560740 0.616060 -0.634916
O11   O     O_R   0.555060 0.439270 0.322940 -0.651185
O12   O     O_R   0.383950 0.268380 0.445700 -0.630985
O13   O     O_R   0.677590 0.731610 0.615290 -0.642973
C1    C     C_R   0.360839 0.220078 0.360963 0.790786
C2    C     C_R   0.640986 0.780979 0.640071 0.760747
C3    C     C_R   0.359359 0.500685 0.640806 0.802552
C4    C     C_R   0.640539 0.499607 0.359345 0.771834
C5    C     C_R   0.641911 0.500490 0.640368 0.795033
C6    C     C_R   0.356023 0.497803 0.359146 0.770520
C7    C     C_3   0.262973 0.403774 0.199336 0.037119
H1    H     H_    0.323223 0.413023 0.179546 0.171333
C8    C     C_3   0.210500 0.412298 0.141262 -0.459065
H2    H     H_    0.249557 0.432162 0.099771 0.180585
H3    H     H_    0.144882 0.336676 0.093822 0.206989
H4    H     H_    0.176418 0.412710 0.331387 0.144590
H5    H     H_    0.088679 0.389646 0.222360 0.105899
C9    C     C_3   0.212514 0.481854 0.329784 -0.444520
C10   C     C_3   0.348618 0.598972 0.310921 -0.456165
C11   C     C_3   0.295603 0.494345 0.300685 0.137399
H6    H     H_    0.374198 0.664895 0.382164 0.200681
H7    H     H_    0.408053 0.609672 0.289051 0.156475
C12   C     C_3   0.194815 0.497188 0.200593 0.044419
C13   C     C_3   0.148161 0.472042 0.264732 0.192334
C14   C     C_3   0.288577 0.602159 0.254938 -0.391335
H8    H     H_    0.321298 0.618690 0.208871 0.151084
H9    H     H_    0.282890 0.667093 0.299062 0.230605
H10   H     H_    0.235181 0.549669 0.399253 0.210740
C15   C     C_3   0.678812 0.940819 0.653954 -0.391147
H11   H     H_    0.606839 0.912045 0.639545 0.181876
H12   H     H_    0.691311 0.912828 0.589087 0.178004
C16   C     C_3   0.738490 0.060991 0.714571 -0.474878
H13   H     H_    0.780555 0.090636 0.679270 0.191133
H14   H     H_    0.694890 0.089257 0.727586 0.175359
H15   H     H_    0.607816 0.905254 0.776631 0.156123
H16   H     H_    0.688389 0.079468 0.855864 0.100628
C17   C     C_3   0.680306 0.937129 0.789419 -0.460083
C18   C     C_3   0.800027 0.941247 0.720291 -0.342275
C19   C     C_3   0.698801 0.897441 0.699508 0.121328
H17   H     H_    0.817056 0.913426 0.754868 0.184291
H18   H     H_    0.815458 0.913101 0.657048 0.225435
C20   C     C_3   0.799394 0.102454 0.803825 0.052645
C21   C     C_3   0.736513 0.057597 0.849575 0.196784
C22   C     C_3   0.858574 0.060526 0.779537 -0.333254
H19   H     H_    0.899326 0.088813 0.742962 0.193615
H20   H     H_    0.907151 0.090391 0.840174 0.216577
H21   H     H_    0.695402 0.907710 0.823379 0.195632
C23   C     C_3   0.639415 0.412799 0.201553 -0.386740
H22   H     H_    0.594030 0.428644 0.181958 0.175080
H23   H     H_    0.595733 0.335405 0.189109 0.185809
C24   C     C_3   0.698957 0.409923 0.142727 -0.382393
H24   H     H_    0.689936 0.334005 0.107934 0.191275
H25   H     H_    0.676577 0.414795 0.090152 0.192349
H26   H     H_    0.702629 0.619212 0.299182 0.181703
C25   C     C_3   0.750833 0.604308 0.314571 -0.455881
C26   C     C_3   0.767459 0.481620 0.327501 0.007334
C27   C     C_3   0.697963 0.498355 0.301749 0.151786
H27   H     H_    0.812446 0.548579 0.397230 0.175659
C28   C     C_3   0.799339 0.499673 0.200028 0.120563
C29   C     C_3   0.811285 0.606127 0.254934 0.030425
C30   C     C_3   0.826476 0.481644 0.266519 -0.421150
H28   H     H_    0.820608 0.407417 0.228626 0.219644
H29   H     H_    0.898249 0.543925 0.309057 0.200828
H30   H     H_    0.793759 0.667998 0.385668 0.179961
H31   H     H_    0.882526 0.667457 0.299689 0.177385
H32   H     H_    0.472223 0.229547 0.678742 0.175305
C31   C     C_R   0.482181 0.192036 0.550148 -0.188437
H33   H     H_    0.553668 0.227813 0.571638 0.147399
C32   C     C_R   0.436726 0.145567 0.462032 -0.112467
H34   H     H_    0.473494 0.145842 0.415726 0.115423
C33   C     C_R   0.344177 0.099449 0.434041 0.090196
C34   C     C_R   0.297444 0.099473 0.494806 -0.212617
H35   H     H_    0.225972 0.063746 0.472672 0.179231
C35   C     C_R   0.342871 0.146775 0.583857 0.368257
C36   C     C_R   0.435705 0.192887 0.610787 -0.200880
C37   C     C_R   0.238132 0.943895 0.285749 -0.244234
H36   H     H_    0.231435 0.900674 0.312638 0.181777
C38   C     C_R   0.191811 0.892330 0.196369 -0.052977
C39   C     C_R   0.201926 0.949108 0.161276 -0.008446
C40   C     C_R   0.259392 0.056160 0.216549 -0.259100
H37   H     H_    0.266031 0.099438 0.189732 0.172264
C41   C     C_R   0.305750 0.107694 0.305883 -0.049391
C42   C     C_R   0.295622 0.050939 0.340985 0.012845
C43   C     C_R   0.200432 0.903378 0.008135 -0.140194
H38   H     H_    0.272119 0.939821 0.029159 0.125474
C44   C     C_R   0.154919 0.857922 0.920283 -0.131227
H39   H     H_    0.191338 0.859408 0.873914 0.136939
C45   C     C_R   0.062449 0.810608 0.892276 -0.114307
H40   H     H_    0.027558 0.775587 0.824268 0.136863
C46   C     C_R   0.015224 0.808515 0.952027 -0.117194
H41   H     H_    0.943608 0.771924 0.930196 0.129499
C47   C     C_R   0.060430 0.853516 0.039909 -0.112321
H42   H     H_    0.023302 0.851416 0.085701 0.108093
C48   C     C_R   0.153332 0.900821 0.068311 0.151452
H43   H     H_    0.974111 0.760956 0.575344 0.168461
C49   C     C_R   0.912291 0.617887 0.563659 -0.163562
H44   H     H_    0.930032 0.581977 0.505967 0.155377
C50   C     C_R   0.864112 0.563035 0.598644 -0.154970
H45   H     H_    0.844716 0.484688 0.567546 0.129320
C51   C     C_R   0.841153 0.609402 0.673530 0.145900
C52   C     C_R   0.867846 0.711568 0.713679 -0.132546
H46   H     H_    0.851458 0.748688 0.772138 0.122035
C53   C     C_R   0.915210 0.765755 0.677929 -0.105572
H47   H     H_    0.934977 0.844123 0.708560 0.160815
C54   C     C_R   0.937328 0.718900 0.602898 -0.083538
C55   C     C_R   0.840585 0.547831 0.764684 -0.273702
H48   H     H_    0.911727 0.584226 0.774222 0.177958
C56   C     C_R   0.799354 0.497839 0.805289 -0.044415
C57   C     C_R   0.706314 0.449029 0.791491 -0.019251
C58   C     C_R   0.657378 0.453250 0.738362 -0.269084
H49   H     H_    0.586286 0.417095 0.728982 0.183044
C59   C     C_R   0.698546 0.502977 0.697565 -0.046738
C60   C     C_R   0.791696 0.552294 0.711750 -0.015132
C61   C     C_R   0.628030 0.290090 0.790088 -0.116321
H50   H     H_    0.642946 0.251621 0.730910 0.111436
C62   C     C_R   0.579873 0.236634 0.826136 -0.106189
H51   H     H_    0.558144 0.157511 0.795128 0.116110
C63   C     C_R   0.559471 0.285185 0.901976 -0.082393
H52   H     H_    0.522105 0.243722 0.929788 0.121071
C64   C     C_R   0.587270 0.387290 0.941931 -0.134481
H53   H     H_    0.571201 0.424652 0.000507 0.118672
C65   C     C_R   0.636025 0.441287 0.906494 -0.143251
H54   H     H_    0.657278 0.520352 0.937927 0.123793
C66   C     C_R   0.657027 0.393089 0.830620 0.144667
H55   H     H_    0.377672 0.851108 0.655689 0.143436
C67   C     C_R   0.412675 0.824518 0.747621 -0.152088
H56   H     H_    0.473351 0.902473 0.790019 0.129398
C68   C     C_R   0.388948 0.753543 0.769054 0.248965
C69   C     C_R   0.308751 0.652302 0.712826 0.145976
C70   C     C_R   0.254493 0.624924 0.637108 -0.177880
H57   H     H_    0.192988 0.547834 0.593640 0.136030
C71   C     C_R   0.279520 0.696248 0.616523 -0.119439
H58   H     H_    0.237518 0.674328 0.557830 0.170617
C72   C     C_R   0.358489 0.795848 0.671661 -0.150210
C73   C     C_R   0.226021 0.570480 0.784838 -0.255072
H59   H     H_    0.209748 0.626608 0.811693 0.178301
C74   C     C_R   0.193501 0.496754 0.803791 -0.060774
C75   C     C_R   0.214757 0.423387 0.767419 0.021947
C76   C     C_R   0.269520 0.427605 0.715132 -0.230744
H60   H     H_    0.285441 0.371136 0.687720 0.195136
C77   C     C_R   0.302454 0.501623 0.696681 -0.072234
C78   C     C_R   0.279526 0.573452 0.731280 -0.003521
C79   C     C_R   0.227758 0.353274 0.849809 -0.085874
H61   H     H_    0.287399 0.429501 0.900245 0.122853
C80   C     C_R   0.200244 0.269551 0.854689 0.234884
C81   C     C_R   0.124563 0.170642 0.787535 -0.150480
H62   H     H_    0.104250 0.106196 0.791300 0.171408
C82   C     C_R   0.076403 0.154294 0.715013 0.353353
C83   C     C_R   0.104243 0.239084 0.711457 -0.230126
H63   H     H_    0.069133 0.227744 0.655249 0.176894
C84   C     C_R   0.179722 0.338306 0.778427 0.048241
Zn5   Zn    Zn3+2 0.041710 0.413240 0.959030 0.976410
Zn6   Zn    Zn3+2 0.866640 0.413270 0.959030 0.984394
Zn7   Zn    Zn3+2 0.040930 0.586780 0.958260 0.963212
Zn8   Zn    Zn3+2 0.041710 0.586770 0.132560 1.022831
O14   O     O_3   0.997750 0.500010 0.002220 -0.488537
O15   O     O_R   0.942690 0.560750 0.179280 -0.627950
O16   O     O_R   0.114340 0.439270 0.886160 -0.647279
O17   O     O_R   0.820160 0.268410 0.886930 -0.641460
O18   O     O_R   0.113800 0.731630 0.056520 -0.635713
O19   O     O_R   0.819390 0.439310 0.886160 -0.643804
O20   O     O_R   0.115110 0.560720 0.179280 -0.587837
O21   O     O_R   0.941380 0.560750 0.885620 -0.645179
O22   O     O_R   0.115110 0.439270 0.057830 -0.652650
O23   O     O_R   0.942690 0.268390 0.886930 -0.642477
O24   O     O_R   0.114340 0.731630 0.178520 -0.645185
O25   O     O_R   0.820160 0.439310 0.057830 -0.636449
O26   O     O_R   0.113800 0.560730 0.885620 -0.645888
C85   C     C_R   0.857052 0.499346 0.142711 0.798636
C86   C     C_R   0.137834 0.498785 0.860869 0.792986
C87   C     C_R   0.856897 0.219042 0.862238 0.801347
C88   C     C_R   0.136842 0.779936 0.141265 0.777771
C89   C     C_R   0.855863 0.499711 0.862015 0.789532
C90   C     C_R   0.138592 0.498825 0.142921 0.789424
C91   C     C_3   0.204907 0.293781 0.178139 -0.901654
H64   H     H_    0.237510 0.284766 0.220861 0.263163
H65   H     H_    0.138454 0.273766 0.185987 0.245823
H66   H     H_    0.193074 0.235962 0.107836 0.242729
N1    N     N_R   0.115901 0.536059 0.314450 0.222010
O27   O     O_R   0.030238 0.492524 0.300842 -0.415373
O28   O     O_R   0.171755 0.635149 0.375396 -0.416969
N2    N     N_R   0.786150 0.100890 0.939620 0.202056
O29   O     O_R   0.774495 0.161112 0.008547 -0.413887
O30   O     O_R   0.838667 0.076375 0.951779 -0.420826
C92   C     C_3   0.793381 0.637548 0.196828 -0.916765
H67   H     H_    0.722338 0.582674 0.152486 0.245665
H68   H     H_    0.807766 0.715939 0.240402 0.255120
H69   H     H_    0.837798 0.640965 0.155501 0.228251
C93   C     C_3   0.724648 0.383624 0.326192 -0.905193
H70   H     H_    0.778331 0.380300 0.349786 0.253994
H71   H     H_    0.684379 0.384976 0.371601 0.230545
H72   H     H_    0.681114 0.312308 0.257869 0.255166
N3    N     N_R   0.295126 0.148221 0.646467 0.197244
O31   O     O_R   0.337734 0.196297 0.729883 -0.419278
O32   O     O_R   0.208541 0.101468 0.620633 -0.393448
C94   C     C_3   0.450730 0.788550 0.851173 -0.948377
H73   H     H_    0.426005 0.727752 0.863105 0.248800
H74   H     H_    0.517823 0.810820 0.844164 0.243892
H75   H     H_    0.458066 0.856879 0.910589 0.245622
C95   C     C_3   0.252595 0.283705 0.929161 -0.908125
H76   H     H_    0.310245 0.365823 0.977538 0.224672
H77   H     H_    0.208092 0.258722 0.965030 0.230812
H78   H     H_    0.279022 0.235673 0.901376 0.275536
N4    N     N_R   0.001745 0.051607 0.643823 0.204231
O33   O     O_R   0.952831 0.037089 0.579994 -0.422735
O34   O     O_R   0.982790 0.971445 0.641432 -0.440100

loop_
_geom_bond_atom_site_label_1
_geom_bond_atom_site_label_2
_geom_bond_distance
_ccdc_geom_bond_type
C23   C27   1.556250 S    
Zn5   O16   1.944046 S    
Zn8   O20   1.948802 S    
C20   C21   1.563288 S    
Zn6   O17   1.928000 S    
C40   H37   1.085082 S    
C1    C41   1.450531 S    
C82   N4    1.439744 S    
Zn5   O22   1.953090 S    
C41   C42   1.415697 A    
C31   C36   1.397719 A    
C35   C36   1.405834 A    
C43   H38   1.083182 S    
C58   H49   1.084419 S    
Zn7   O14   1.954977 S    
Zn7   O26   1.939335 S    
C34   H35   1.083213 S    
O6    C5    1.281285 A    
C80   C95   1.500251 S    
C47   C48   1.404686 A    
O18   C88   1.277764 A    
C8    H2    1.112974 S    
C45   H40   1.081031 S    
C93   H71   1.109887 S    
C91   H66   1.111119 S    
Zn1   O1    1.945235 S    
O16   C86   1.273852 A    
C12   C13   1.573301 S    
C7    C8    1.547253 S    
C83   H63   1.083199 S    
C49   C50   1.398333 A    
C71   H58   1.082417 S    
C14   H8    1.113371 S    
N3    O32   1.301182 A    
C58   C59   1.397186 A    
C70   H57   1.083431 S    
O8    C5    1.270147 A    
C94   H75   1.110440 S    
C53   H47   1.082363 S    
O9    C6    1.283839 A    
C91   H65   1.109615 S    
C10   C11   1.554355 S    
C33   C42   1.480548 S    
C23   H23   1.111839 S    
Zn3   O8    1.952050 S    
C71   C72   1.394837 A    
C56   C89   1.441738 S    
C2    C19   1.503171 S    
C69   C70   1.405103 A    
C50   C51   1.403152 A    
C50   H45   1.083073 S    
C6    C11   1.494768 S    
C93   H72   1.109547 S    
C17   C19   1.552485 S    
C20   C87   1.504629 S    
C9    C11   1.551176 S    
C92   H67   1.109590 S    
C18   C22   1.539408 S    
C73   C78   1.386190 A    
C10   C14   1.543954 S    
C69   C78   1.481948 S    
C37   C38   1.397838 A    
Zn2   O12   1.929936 S    
Zn7   O18   1.929834 S    
Zn8   O15   1.941493 S    
C38   C88   1.450702 S    
C26   C93   1.540995 S    
C40   C41   1.397430 A    
C65   C66   1.403134 A    
O15   C85   1.281669 A    
Zn5   O23   1.931309 S    
C43   C48   1.404345 A    
C23   H22   1.113880 S    
C15   H12   1.112891 S    
H32   C36   1.080879 S    
C43   C44   1.397714 A    
O25   C85   1.279432 A    
C49   C54   1.398421 A    
C82   C83   1.405774 A    
C83   C84   1.402288 A    
C16   H14   1.113231 S    
Zn5   O14   1.945235 S    
O2    C1    1.288219 A    
Zn6   O19   1.951904 S    
C26   H27   1.112577 S    
C93   H70   1.111043 S    
C34   C35   1.406968 A    
H26   C25   1.114134 S    
C10   H7    1.113229 S    
H43   C54   1.082383 S    
C65   H54   1.083073 S    
C33   C34   1.403787 A    
C28   C30   1.553462 S    
C30   H28   1.114111 S    
O26   C86   1.286522 A    
C37   H36   1.084964 S    
C38   C39   1.415964 A    
N3    O31   1.301748 A    
C28   C29   1.566164 S    
C5    C59   1.441754 S    
C51   C60   1.479652 S    
C63   C64   1.398359 A    
C25   C29   1.553605 S    
C16   H13   1.113162 S    
C29   H31   1.114400 S    
C17   C21   1.556326 S    
C9    C13   1.553568 S    
H5    C13   1.114718 S    
C91   H64   1.106493 S    
C18   H17   1.113403 S    
C15   C16   1.550872 S    
C10   H6    1.113389 S    
C80   C81   1.402271 A    
C23   C24   1.531832 S    
C61   C62   1.398267 A    
C35   N3    1.439586 S    
Zn3   O5    1.942503 S    
O10   C3    1.273614 A    
C21   N2    1.468783 S    
O17   C87   1.287317 A    
C39   C48   1.480475 S    
C81   H62   1.083299 S    
C95   H76   1.110689 S    
H55   C72   1.082422 S    
C75   C76   1.386025 A    
C67   C72   1.396573 A    
C29   C92   1.542135 S    
C92   H69   1.109930 S    
C81   C82   1.405905 A    
C94   H73   1.108388 S    
C77   C78   1.416984 A    
C26   C30   1.552555 S    
C46   C47   1.398892 A    
O4    C3    1.286749 A    
C7    H1    1.114319 S    
C55   H48   1.084519 S    
H15   C17   1.110985 S    
C16   C20   1.553441 S    
C56   C57   1.413567 A    
C55   C56   1.397581 A    
C3    C77   1.458824 S    
Zn4   O7    1.948806 S    
C31   C32   1.396450 A    
Zn8   O14   1.953776 S    
C44   C45   1.397147 A    
C76   C77   1.397137 A    
C32   H34   1.083115 S    
O3    C2    1.285128 A    
C20   C22   1.558029 S    
C59   C60   1.413850 A    
Zn4   O2    1.930540 S    
Zn1   O9    1.953192 S    
C15   H11   1.113074 S    
C30   H29   1.113366 S    
O13   C2    1.285224 A    
C61   H50   1.083199 S    
Zn2   O6    1.950500 S    
C68   C94   1.506552 S    
C51   C52   1.405082 A    
C45   C46   1.398430 A    
C95   H78   1.110403 S    
C8    C12   1.554955 S    
C25   H30   1.113616 S    
C70   C71   1.395989 A    
Zn8   O24   1.930494 S    
C79   H61   1.083727 S    
C9    H10   1.112438 S    
Zn1   O3    1.931410 S    
C8    H3    1.114397 S    
Zn2   O4    1.939290 S    
C57   C66   1.479185 S    
C73   C74   1.399631 A    
C31   H33   1.082491 S    
Zn3   O1    1.951925 S    
C52   H46   1.083205 S    
C52   C53   1.398218 A    
C67   H56   1.083083 S    
O21   C89   1.280904 A    
C74   C86   1.458529 S    
O24   C88   1.288333 A    
N4    O34   1.301707 A    
H16   C21   1.115478 S    
C47   H42   1.083074 S    
C32   C33   1.402270 A    
C7    C11   1.576868 S    
O22   C90   1.281035 A    
C44   H39   1.082454 S    
C4    C27   1.487784 S    
C7    C91   1.549028 S    
C12   C90   1.495822 S    
C17   H21   1.112585 S    
N1    O27   1.301227 A    
C18   H18   1.112778 S    
Zn4   O11   1.941496 S    
C79   C80   1.403213 A    
C62   H51   1.082465 S    
C95   H77   1.109988 S    
C28   C85   1.487817 S    
C18   C19   1.552142 S    
H4    C9    1.111767 S    
C24   H25   1.109468 S    
C49   H44   1.082470 S    
O19   C89   1.270557 A    
C12   C14   1.550207 S    
C14   H9    1.109647 S    
C67   C68   1.405191 A    
O5    C4    1.281866 A    
C22   H19   1.111312 S    
C64   H53   1.082445 S    
O11   C4    1.279162 A    
C37   C42   1.383767 A    
N4    O33   1.301651 A    
O7    C6    1.273602 A    
C39   C40   1.383868 A    
C94   H74   1.110144 S    
C53   C54   1.398152 A    
Zn3   O13   1.928001 S    
C73   H59   1.084827 S    
C24   C28   1.555371 S    
C26   C27   1.565996 S    
C22   H20   1.110192 S    
C24   H24   1.113702 S    
O20   C90   1.276924 A    
N2    O29   1.301243 A    
Zn2   O1    1.954829 S    
C55   C60   1.378290 A    
Zn4   O1    1.953776 S    
C13   N1    1.469373 S    
Zn6   O25   1.942503 S    
C76   H60   1.085201 S    
C79   C84   1.401744 A    
Zn6   O14   1.951926 S    
O12   C1    1.277624 A    
C75   C84   1.478989 S    
C46   H41   1.082391 S    
C64   C65   1.398254 A    
C25   C27   1.552141 S    
C74   C75   1.417564 A    
C92   H68   1.110871 S    
Zn1   O10   1.944147 S    
C61   C66   1.404838 A    
N2    O30   1.301397 A    
C57   C58   1.378248 A    
C68   C69   1.417551 A    
O23   C87   1.283018 A    
C63   H52   1.082368 S    
C15   C19   1.553927 S    
Zn7   O21   1.950398 S    
C62   C63   1.398050 A    
N1    O28   1.301485 A    
