data_mof_unit_11812.cif
_audit_creation_date              2012-12-10T17:24:42-0500
_audit_creation_method            fapswitch 2.2
_symmetry_space_group_name_H-M    P1
_symmetry_Int_Tables_number       1
_space_group_crystal_system       triclinic
_cell_length_a                    23.524691
_cell_length_b                    10.808783
_cell_length_c                    9.608529
_cell_angle_alpha                 90.137518
_cell_angle_beta                  89.742265
_cell_angle_gamma                 92.435287
_cell_volume                      2440.95495549

loop_
_atom_site_label
_atom_site_type_symbol
_atom_type_description
_atom_site_fract_x
_atom_site_fract_y
_atom_site_fract_z
_atom_type_partial_charge
C1    C     C_R   0.498297 0.262683 0.499804 0.909211
C2    C     C_R   0.965210 0.291490 0.581916 -0.133084
C3    C     C_R   0.024494 0.290447 0.581550 -0.138774
C4    C     C_R   0.057231 0.395288 0.538445 -0.030317
C5    C     C_R   0.029818 0.501886 0.495134 -0.008508
C6    C     C_R   0.062236 0.607449 0.451545 -0.029637
C7    C     C_R   0.034454 0.713338 0.408763 -0.133326
C8    C     C_R   0.975160 0.714444 0.409314 -0.135788
C9    C     C_R   0.116884 0.396468 0.537433 0.564235
C10   C     C_R   0.121800 0.604386 0.452597 0.571066
C11   C     C_R   0.237593 0.497348 0.623779 -0.134266
C12   C     C_R   0.390932 0.499188 0.500266 1.020478
C13   C     C_R   0.296848 0.497084 0.626297 0.737644
C14   C     C_R   0.328133 0.498934 0.500562 -0.159384
C15   C     C_R   0.298663 0.500888 0.373509 -0.251154
C16   C     C_R   0.239433 0.501296 0.371825 -0.071435
C17   C     C_R   0.208727 0.499532 0.496872 0.234358
C18   C     C_R   0.761012 0.504203 0.371138 0.704021
C19   C     C_R   0.701710 0.503023 0.372048 -0.239866
C20   C     C_R   0.671606 0.503183 0.498802 -0.112683
C21   C     C_R   0.701916 0.505598 0.624595 -0.158295
C22   C     C_R   0.761194 0.506842 0.623505 -0.150430
C23   C     C_R   0.497768 0.737146 0.500395 0.916128
C24   C     C_R   0.790943 0.505886 0.496983 0.209561
C25   C     C_R   0.396611 0.121510 0.603518 0.491644
C26   C     C_R   0.350554 0.053463 0.659741 0.487907
C27   C     C_R   0.351402 0.925552 0.666596 0.462890
C28   C     C_R   0.398031 0.864014 0.615824 0.435917
C29   C     C_R   0.446036 0.930453 0.558647 -0.254249
C30   C     C_R   0.445623 0.061868 0.554950 -0.191669
C31   C     C_R   0.493603 0.128771 0.499058 -0.073475
C32   C     C_R   0.539137 0.067645 0.441865 -0.228944
C33   C     C_R   0.539318 0.940065 0.442873 0.613875
C34   C     C_R   0.608975 0.500981 0.499672 0.808569
C35   C     C_R   0.493785 0.870876 0.501603 -0.116383
C36   C     C_R   0.576274 0.662795 0.143288 -0.259209
C37   C     C_R   0.613927 0.741718 0.070998 0.588364
C38   C     C_R   0.613650 0.742345 0.927517 0.520980
C39   C     C_R   0.575898 0.663721 0.855689 -0.282191
C40   C     C_R   0.537316 0.580402 0.925010 0.003704
C41   C     C_R   0.537401 0.580154 0.074469 -0.016300
C42   C     C_R   0.464403 0.423599 0.074087 0.606756
C43   C     C_R   0.464441 0.423582 0.926291 0.670561
C44   C     C_R   0.882754 0.608664 0.454319 0.625373
C45   C     C_R   0.877889 0.400589 0.538659 0.576555
C46   C     C_R   0.937436 0.397405 0.539221 -0.025043
C47   C     C_R   0.969843 0.502972 0.495594 -0.010850
C48   C     C_R   0.942417 0.609659 0.452575 -0.039020
Cu1   Cu    Cu3+1 0.500000 0.499990 0.640660 1.101293
Cu2   Cu    Cu3+1 0.500000 0.500010 0.359340 1.042512
H1    H     H_    0.679470 0.501440 0.273562 0.188619
H2    H     H_    0.321306 0.502210 0.275086 0.228460
H3    H     H_    0.217315 0.502637 0.273263 0.182321
N1    N     N_R   0.851888 0.505090 0.496624 -0.454691
N2    N     N_R   0.147786 0.500030 0.495204 -0.459200
N3    N     N_R   0.500540 0.501210 0.147910 -0.260076
N4    N     N_R   0.500560 0.501290 0.852040 -0.260123
O1    O     O_R   0.500000 0.319640 0.618810 -0.523371
O2    O     O_2   0.846158 0.299895 0.578850 -0.494127
O3    O     O_2   0.143849 0.294810 0.577504 -0.476349
O4    O     O_2   0.153544 0.705141 0.412654 -0.486951
O5    O     O_R   0.500000 0.319660 0.381240 -0.545054
O6    O     O_R   0.417880 0.499950 0.618810 -0.419378
O7    O     O_R   0.417880 0.499980 0.381240 -0.570232
O8    O     O_R   0.500000 0.680340 0.618760 -0.565451
O9    O     O_R   0.500000 0.680360 0.381190 -0.596036
O10   O     O_R   0.582120 0.500020 0.618760 -0.618005
O11   O     O_R   0.582120 0.500050 0.381190 -0.612401
O12   O     O_2   0.855754 0.710469 0.414932 -0.470530
H4    H     H_    0.941263 0.209116 0.615817 0.201023
H5    H     H_    0.679915 0.506304 0.723830 0.186535
H6    H     H_    0.784117 0.508397 0.721019 0.192452
H7    H     H_    0.575472 0.119566 0.398523 0.177894
F1    F     F_    0.391274 0.245082 0.592335 -0.602130
F2    F     F_    0.304233 0.112291 0.705868 -0.517124
F3    F     F_    0.306033 0.859906 0.720329 -0.540069
F4    F     F_    0.394627 0.739403 0.622196 -0.633904
F5    F     F_    0.585282 0.883677 0.390494 -0.626613
F6    F     F_    0.427825 0.344915 0.142956 -0.592647
H8    H     H_    0.044539 0.207311 0.615221 0.200342
H9    H     H_    0.579539 0.670677 0.252878 0.264709
F7    F     F_    0.650883 0.818405 0.141310 -0.540842
F8    F     F_    0.650170 0.819925 0.856646 -0.581968
H10   H     H_    0.578972 0.672449 0.746034 0.238143
F9    F     F_    0.427895 0.344843 0.857944 -0.539258
H11   H     H_    0.058400 0.795713 0.374869 0.200540
H12   H     H_    0.955109 0.797619 0.375786 0.199090
H13   H     H_    0.213925 0.496288 0.720754 0.181530
F10   F     F_    0.323094 0.495169 0.751761 -0.554371
F11   F     F_    0.789389 0.502220 0.247944 -0.620083

loop_
_geom_bond_atom_site_label_1
_geom_bond_atom_site_label_2
_ccdc_geom_bond_type
C44   C48   A    
Cu1   O6    S    
C38   F8    S    
Cu2   O7    S    
C19   C20   A    
C1    O5    A    
C7    C8    A    
C45   C46   A    
C2    C46   A    
C5    C47   A    
C26   C27   A    
C29   C30   A    
Cu1   O8    S    
C21   H5    S    
C18   C24   A    
C23   O9    A    
C28   C29   A    
C39   H10   S    
C18   C19   A    
C5    C6    A    
C12   O7    A    
C33   F5    S    
C7    H11   S    
C24   N1    S    
C15   C16   A    
C1    C31   S    
Cu1   N4    S    
C25   F1    S    
C16   H3    S    
C42   N3    A    
C45   O2    S    
C31   C32   A    
C16   C17   A    
C9    N2    A    
C13   C14   A    
C11   H13   S    
C20   C34   S    
C42   F6    S    
C21   C22   A    
C36   C41   A    
C3    H8    S    
C22   H6    S    
C38   C39   A    
C18   F11   S    
C34   O11   A    
C39   C40   A    
C12   O6    A    
C25   C26   A    
Cu2   N3    S    
Cu1   O1    S    
C43   F9    S    
C8    C48   A    
C41   N3    A    
C37   C38   A    
C28   F4    S    
C19   H1    S    
C47   C48   A    
C36   H9    S    
C26   F2    S    
C44   O12   S    
C15   H2    S    
C10   N2    A    
Cu2   O9    S    
C40   C41   A    
C12   C14   S    
C45   N1    A    
C23   C35   S    
Cu2   O5    S    
C22   C24   A    
C37   F7    S    
C10   O4    S    
C42   C43   A    
C27   F3    S    
C32   H7    S    
C25   C30   A    
C17   N2    S    
C46   C47   A    
C11   C17   A    
C40   N4    A    
Cu1   O10   S    
C13   F10   S    
C4    C5    A    
C34   O10   A    
C6    C10   A    
C6    C7    A    
C29   C35   A    
C9    O3    S    
C32   C33   A    
C8    H12   S    
C2    C3    A    
C1    O1    A    
C11   C13   A    
C23   O8    A    
C30   C31   A    
C33   C35   A    
C43   N4    A    
C44   N1    A    
C20   C21   A    
C36   C37   A    
Cu1   Cu2   S    
C27   C28   A    
C14   C15   A    
C4    C9    A    
C2    H4    S    
Cu2   O11   S    
C3    C4    A    
