data_mof_unit_22964.cif
_audit_creation_date              2012-12-11T14:36:03-0500
_audit_creation_method            fapswitch 2.2
_symmetry_space_group_name_H-M    P1
_symmetry_Int_Tables_number       1
_space_group_crystal_system       triclinic
_cell_length_a                    13.481702
_cell_length_b                    13.487094
_cell_length_c                    27.484517
_cell_angle_alpha                 90.665672
_cell_angle_beta                  90.037348
_cell_angle_gamma                 59.963042
_cell_volume                      4325.96451698

loop_
_atom_site_label
_atom_site_type_symbol
_atom_type_description
_atom_site_fract_x
_atom_site_fract_y
_atom_site_fract_z
_atom_type_partial_charge
C1    C     C_R   0.619604 0.100737 0.570704 0.549866
C2    C     C_1   0.627880 0.738416 0.617609 0.001002
C3    C     C_3   0.637907 0.604642 0.771908 -0.101160
C4    C     C_3   0.671809 0.671047 0.807750 0.057579
C5    C     C_3   0.556421 0.718250 0.746268 -0.120767
C6    C     C_3   0.656072 0.698829 0.712797 0.026273
C7    C     C_3   0.590261 0.784581 0.782791 -0.134086
C8    C     C_3   0.689550 0.766050 0.748355 -0.089498
C9    C     C_1   0.682566 0.645906 0.859836 -0.005272
C10   C     C_1   0.643930 0.716103 0.660185 -0.040200
C11   C     C_3   0.086001 0.171264 0.738696 -0.068674
C12   C     C_R   0.599157 0.780493 0.569063 0.547319
C13   C     C_3   0.154789 0.074184 0.775285 -0.071716
C14   C     C_1   0.102667 0.198285 0.902882 0.020036
C15   C     C_1   0.238192 0.134508 0.619077 0.000699
C16   C     C_3   0.094298 0.258168 0.773216 -0.073053
C17   C     C_3   0.163410 0.161033 0.809150 0.050950
C18   C     C_3   0.207397 0.233352 0.748378 -0.100685
C19   C     C_3   0.198469 0.146699 0.714551 0.037119
C20   C     C_3   0.276421 0.136313 0.785012 -0.118270
C21   C     C_3   0.268215 0.049203 0.750237 -0.111676
C22   C     C_1   0.135553 0.176631 0.861256 -0.017815
C23   C     C_R   0.279065 0.121323 0.570060 0.545122
C24   C     C_1   0.216632 0.140875 0.661879 -0.041122
C25   C     C_3   0.600464 0.272614 0.743961 -0.104330
C26   C     C_3   0.539960 0.235112 0.781479 -0.130338
C27   C     C_1   0.685283 0.203583 0.905115 0.024975
C28   C     C_1   0.632136 0.129907 0.619935 0.011637
C29   C     C_3   0.711002 0.214136 0.774618 0.124657
C30   C     C_3   0.650761 0.176712 0.811441 0.037117
C31   C     C_3   0.752751 0.100908 0.746134 0.142193
C32   C     C_3   0.642571 0.158890 0.715919 0.034934
C33   C     C_3   0.692837 0.063038 0.783459 -0.105867
C34   C     C_R   0.623078 0.101276 0.431854 0.566219
C35   C     C_3   0.581820 0.121100 0.752618 -0.145830
C36   C     C_1   0.664319 0.189426 0.863777 -0.007198
C37   C     C_1   0.637974 0.146227 0.662877 -0.017267
C38   C     C_R   0.733005 0.713598 0.359089 -0.129845
C39   C     C_R   0.744316 0.696764 0.308728 -0.009029
C40   C     C_R   0.757189 0.679589 0.205716 0.031430
C41   C     C_R   0.843959 0.685548 0.233280 0.101223
C42   C     C_R   0.834412 0.696890 0.283962 -0.117191
C43   C     C_R   0.757605 0.670237 0.153981 0.098573
C44   C     C_R   0.680132 0.642794 0.131685 -0.002195
C45   C     C_R   0.602491 0.775374 0.430521 0.548695
C46   C     C_R   0.564823 0.691894 0.358133 -0.118065
C47   C     C_R   0.572509 0.679514 0.307965 0.022915
C48   C     C_R   0.661743 0.683824 0.282787 0.059829
C49   C     C_R   0.487694 0.670436 0.282572 -0.126174
C50   C     C_R   0.489977 0.667215 0.232277 -0.115677
C51   C     C_R   0.578802 0.669944 0.207039 0.008021
C52   C     C_R   0.666488 0.677501 0.231792 0.018918
C53   C     C_R   0.584728 0.656382 0.157407 -0.131512
C54   C     C_R   0.639332 0.717813 0.383304 0.000076
C55   C     C_R   0.222531 0.053038 0.356112 -0.130860
C56   C     C_R   0.279856 0.120008 0.430342 0.546005
C57   C     C_R   0.204013 0.061484 0.305829 0.015287
C58   C     C_R   0.169518 0.079228 0.204143 0.023546
C59   C     C_R   0.181441 0.983408 0.229461 -0.109663
C60   C     C_R   0.198801 0.974664 0.279669 -0.132826
C61   C     C_R   0.143682 0.094559 0.153961 0.068522
C62   C     C_R   0.119733 0.199504 0.132214 0.000667
C63   C     C_R   0.214512 0.237159 0.356826 -0.121422
C64   C     C_R   0.201346 0.244115 0.306783 0.010501
C65   C     C_R   0.194831 0.156652 0.281000 0.065212
C66   C     C_R   0.199889 0.334832 0.281985 -0.117517
C67   C     C_3   0.737480 0.585530 0.737733 -0.074236
C68   C     C_R   0.188086 0.340969 0.231786 -0.102188
C69   C     C_R   0.173284 0.259106 0.206178 0.005360
C70   C     C_R   0.179387 0.164705 0.230369 0.042056
C71   C     C_R   0.145113 0.274859 0.157372 -0.134468
C72   C     C_R   0.230452 0.139676 0.381529 -0.005023
C73   C     C_R   0.568539 0.247056 0.365136 0.067797
C74   C     C_R   0.570199 0.262151 0.314410 0.028228
C75   C     C_R   0.573184 0.286909 0.212114 0.026094
C76   C     C_R   0.489968 0.375443 0.241564 -0.121455
C77   C     C_R   0.488938 0.363548 0.291788 -0.123624
C78   C     C_3   0.770644 0.652289 0.774092 0.124956
C79   C     C_R   0.580118 0.299822 0.161438 0.066528
C80   C     C_R   0.674848 0.212740 0.135032 0.003833
C81   C     C_R   0.732077 0.053629 0.355906 -0.148604
C82   C     C_R   0.736236 0.068740 0.306475 0.003869
C83   C     C_R   0.653428 0.171802 0.285147 0.046704
C84   C     C_R   0.819329 0.979337 0.277815 -0.117527
C85   C     C_R   0.820496 0.991429 0.227875 -0.102758
C86   C     C_R   0.739126 0.093151 0.206149 0.005274
C87   C     C_R   0.654939 0.184142 0.234433 0.044559
C88   C     C_R   0.746246 0.107115 0.156844 -0.129857
C89   C     C_1   0.694067 0.614660 0.901393 0.023985
C90   C     C_R   0.644683 0.138328 0.384931 0.009479
C91   C     C_R   0.050008 0.235800 0.949950 0.551825
C92   C     C_R   0.711098 0.563967 0.948445 0.553221
C93   C     C_R   0.721059 0.224698 0.951445 0.553448
C94   C     C_R   0.051512 0.242602 0.087512 0.555749
C95   C     C_R   0.706443 0.577400 0.085787 0.560718
C96   C     C_R   0.717018 0.233883 0.089105 0.557649
Cr1   Cr    Cr6+3 0.417550 0.169090 0.500530 1.072519
Cr2   Cr    Cr6+3 0.669180 0.913420 0.499920 1.040285
Cr3   Cr    Cr6+3 0.413260 0.917540 0.499520 1.042373
Cr4   Cr    Cr6+3 0.909170 0.177380 0.020380 1.092274
Cr5   Cr    Cr6+3 0.912710 0.429210 0.018220 1.095101
Cr6   Cr    Cr6+3 0.657170 0.432570 0.019030 1.085123
H1    H     H_    0.354630 0.121697 0.804548 0.108300
H2    H     H_    0.228874 0.298977 0.736751 0.133088
H3    H     H_    0.022172 0.344139 0.783169 0.172193
H4    H     H_    0.452273 0.289603 0.796515 0.128944
H5    H     H_    0.563558 0.358532 0.727397 0.128876
H6    H     H_    0.528441 0.082416 0.742938 0.113483
H7    H     H_    0.730245 0.977149 0.800101 0.141833
H8    H     H_    0.791939 0.731965 0.378685 0.126695
H9    H     H_    0.519339 0.645006 0.139488 0.176729
H10   H     H_    0.418475 0.668037 0.301557 0.111285
H11   H     H_    0.236228 0.976959 0.374885 0.127644
H12   H     H_    0.175165 0.915331 0.211358 0.158711
H13   H     H_    0.711285 0.832229 0.737914 0.135705
H14   H     H_    0.207208 0.900242 0.298099 0.112679
H15   H     H_    0.208621 0.400518 0.301346 0.129092
H16   H     H_    0.221062 0.304478 0.375915 0.153135
H17   H     H_    0.425952 0.456042 0.226663 0.150466
H18   H     H_    0.422484 0.434622 0.312225 0.146710
H19   H     H_    0.814935 0.037569 0.136213 0.173018
H20   H     H_    0.530050 0.866249 0.801637 0.110311
H21   H     H_    0.886403 0.922177 0.206253 0.168935
H22   H     H_    0.883243 0.899950 0.294022 0.121412
H23   H     H_    0.792879 0.971270 0.371012 0.136229
H24   H     H_    0.468156 0.744618 0.734142 0.122271
H25   H     H_    0.133211 0.008673 0.786949 0.158091
H26   H     H_    0.008721 0.185665 0.718486 0.169766
H27   H     H_    0.340035 0.963260 0.739911 0.111234
O1    O     O_R   0.301710 0.195650 0.554160 -0.501411
O2    O     O_R   0.658900 0.818120 0.449760 -0.504198
O3    O     O_R   0.503220 0.801620 0.445520 -0.514899
O4    O     O_R   0.319370 0.022040 0.450020 -0.501515
O5    O     O_3   0.499990 0.000010 0.499990 -0.260329
O6    O     O_R   0.818720 0.150820 0.967160 -0.490957
O7    O     O_R   0.006410 0.181720 0.970200 -0.485383
O8    O     O_R   0.027890 0.334070 0.964920 -0.494499
O9    O     O_R   0.809600 0.521790 0.967960 -0.481134
O10   O     O_R   0.635520 0.542770 0.964420 -0.500148
O11   O     O_R   0.665950 0.325030 0.970100 -0.489552
O12   O     O_R   0.522390 0.158990 0.550460 -0.490096
O13   O     O_R   0.816620 0.158530 0.074540 -0.504218
O14   O     O_R   0.004460 0.188870 0.069750 -0.467870
O15   O     O_R   0.025800 0.341780 0.072300 -0.506524
O16   O     O_R   0.807650 0.528950 0.067500 -0.467855
O17   O     O_R   0.633420 0.550490 0.071810 -0.504766
O18   O     O_R   0.664000 0.332180 0.069640 -0.466680
O19   O     O_3   0.826350 0.346390 0.019210 -0.272604
O20   O     O_R   0.694390 0.003530 0.554040 -0.494937
O21   O     O_R   0.657700 0.819660 0.549320 -0.492726
O22   O     O_R   0.501930 0.803280 0.552920 -0.500410
O23   O     O_R   0.318170 0.023580 0.549580 -0.492974
O24   O     O_R   0.303010 0.193990 0.446760 -0.504057
O25   O     O_R   0.523600 0.157450 0.450900 -0.460972
O26   O     O_R   0.695690 0.001860 0.446640 -0.526728
I1    I     I_    0.940295 0.604801 0.796346 -0.383825
I2    I     I_    0.921711 0.991876 0.718150 -0.372411
I3    I     I_    0.809657 0.291364 0.795588 -0.477942
I4    I     I_    0.836139 0.734080 0.105399 -0.280735
H28   H     H_    0.798031 0.503868 0.718973 0.142304
I5    I     I_    0.005573 0.656925 0.208019 -0.428082
H29   H     H_    0.899997 0.702793 0.304486 0.125231
H30   H     H_    0.423358 0.660320 0.213074 0.135048
H31   H     H_    0.493395 0.693016 0.376821 0.143652
I6    I     I_    0.147069 0.957629 0.111624 -0.323094
H32   H     H_    0.133276 0.352035 0.140189 0.172200
H33   H     H_    0.188222 0.410935 0.213031 0.165982
I7    I     I_    0.445149 0.446218 0.125557 -0.348756
I8    I     I_    0.457466 0.389241 0.411652 -0.398747
H34   H     H_    0.613929 0.539979 0.782028 0.150195

loop_
_geom_bond_atom_site_label_1
_geom_bond_atom_site_label_2
_ccdc_geom_bond_type
C83   C87   A    
C23   O23   A    
Cr5   O19   S    
C41   I5    S    
C41   C42   A    
C66   C68   A    
C95   O16   A    
C74   C83   A    
C43   C44   A    
C77   H18   S    
C2    C12   S    
C26   H4    S    
C56   O4    A    
C7    C8    S    
C47   C49   A    
C20   H1    S    
C85   C86   A    
C95   O17   A    
Cr5   O16   S    
C20   C21   S    
Cr3   O3    S    
C94   O14   A    
C19   C21   S    
Cr4   O19   S    
Cr1   O1    S    
C43   I4    S    
C5    C6    S    
Cr5   O15   S    
C86   C88   A    
C71   H32   S    
C65   C70   A    
C17   C20   S    
Cr3   O4    S    
C18   C19   S    
C73   C74   A    
C69   C71   A    
C35   H6    S    
C8    H13   S    
Cr6   O19   S    
C91   O8    A    
C44   C53   A    
C40   C43   A    
C91   O7    A    
C31   C32   S    
C16   C17   S    
C56   C72   S    
C66   H15   S    
Cr2   O2    S    
C1    C28   S    
C31   C33   S    
C1    O20   A    
C67   H28   S    
Cr1   O24   S    
C79   I7    S    
C38   H8    S    
C18   C20   S    
C55   C72   A    
Cr4   O6    S    
C53   H9    S    
C58   C61   A    
C15   C23   S    
C92   O9    A    
C59   C60   A    
C46   H31   S    
C8    C78   S    
C12   O22   A    
C61   C62   A    
C67   C78   S    
Cr1   O5    S    
C4    C7    S    
C81   C82   A    
C39   C42   A    
C34   O25   A    
C25   C29   S    
C76   H17   S    
C51   C52   A    
C32   C35   S    
C12   O21   A    
C76   C77   A    
C9    C89   T    
C5    C7    S    
C63   H16   S    
Cr5   O8    S    
C86   C87   A    
C58   C70   A    
C57   C60   A    
C6    C8    S    
C55   H11   S    
C3    C5    S    
C58   C59   A    
C34   O26   A    
Cr3   O22   S    
C74   C77   A    
C63   C64   A    
C23   O1    A    
C51   C53   A    
C64   C66   A    
C5    H24   S    
C75   C76   A    
C34   C90   S    
C4    C78   S    
C29   C30   S    
Cr6   O18   S    
C11   C16   S    
C47   C48   A    
C38   C54   A    
C60   H14   S    
C11   C19   S    
C46   C54   A    
C50   C51   A    
C13   C21   S    
C16   C18   S    
C18   H2    S    
C32   C37   S    
C84   C85   A    
C89   C92   S    
Cr1   O12   S    
C21   H27   S    
C31   I2    S    
C16   H3    S    
C49   H10   S    
C81   C90   A    
C56   O24   A    
C75   C87   A    
C40   C41   A    
C45   C54   S    
Cr6   O11   S    
C82   C84   A    
C62   C94   S    
C49   C50   A    
C27   C93   S    
C80   C96   S    
C7    H20   S    
C73   I8    S    
C3    C4    S    
C2    C10   T    
C25   H5    S    
Cr2   O21   S    
C96   O18   A    
Cr2   O26   S    
C6    C67   S    
C30   C33   S    
C81   H23   S    
C50   H30   S    
C85   H21   S    
C68   C69   A    
C3    C67   S    
C57   C65   A    
C88   H19   S    
C93   O6    A    
Cr4   O14   S    
Cr1   O25   S    
C6    C10   S    
Cr5   O9    S    
C42   H29   S    
C3    H34   S    
C45   O2    A    
C29   I3    S    
C30   C36   S    
C27   C36   T    
C84   H22   S    
Cr3   O23   S    
Cr2   O5    S    
C17   C22   S    
C13   C17   S    
C94   O15   A    
C64   C65   A    
C14   C22   T    
C55   C57   A    
C11   H26   S    
C25   C26   S    
C80   C88   A    
C93   O11   A    
C40   C52   A    
Cr6   O17   S    
C15   C24   T    
C11   C13   S    
C78   I1    S    
C38   C39   A    
C28   C37   T    
C25   C32   S    
C59   H12   S    
C33   C35   S    
C62   C71   A    
C19   C24   S    
C61   I6    S    
Cr6   O10   S    
C69   C70   A    
C14   C91   S    
C46   C47   A    
C1    O12   A    
C96   O13   A    
C79   C80   A    
C13   H25   S    
C68   H33   S    
C26   C35   S    
C48   C52   A    
C33   H7    S    
C63   C72   A    
Cr3   O5    S    
C45   O3    A    
C29   C31   S    
C82   C83   A    
C44   C95   S    
Cr4   O13   S    
C4    C9    S    
C92   O10   A    
C75   C79   A    
Cr2   O20   S    
Cr4   O7    S    
C39   C48   A    
C73   C90   A    
C26   C30   S    
