data_mof_unit_60497.cif
_audit_creation_date              2012-12-10T18:21:57-0500
_audit_creation_method            fapswitch 2.2
_symmetry_space_group_name_H-M    P1
_symmetry_Int_Tables_number       1
_space_group_crystal_system       triclinic
_cell_length_a                    23.420698
_cell_length_b                    23.420697
_cell_length_c                    51.857296
_cell_angle_alpha                 89.999969
_cell_angle_beta                  89.999965
_cell_angle_gamma                 90.0
_cell_volume                      28445.2344195

loop_
_atom_site_label
_atom_site_type_symbol
_atom_type_description
_atom_site_fract_x
_atom_site_fract_y
_atom_site_fract_z
_atom_type_partial_charge
C1    C     C_R   0.000000 0.500000 0.179270 0.928906
C2    C     C_R   0.033096 0.460571 0.609384 -0.099286
C3    C     C_1   0.687096 0.187096 0.250000 0.024453
C4    C     C_1   0.812910 0.687090 0.750000 0.024825
C5    C     C_1   0.187096 0.312903 0.250000 0.024453
C6    C     C_1   0.687090 0.187090 0.750000 0.024825
C7    C     C_1   0.312903 0.812904 0.250000 0.024453
C8    C     C_1   0.231306 0.731306 0.250000 0.036347
C9    C     C_1   0.768687 0.268686 0.750000 0.036649
C10   C     C_1   0.268694 0.231306 0.250000 0.036347
C11   C     C_1   0.731313 0.768687 0.750000 0.036649
C12   C     C_1   0.768694 0.268694 0.250000 0.036347
C13   C     C_R   0.539429 0.966904 0.390616 -0.099286
C14   C     C_1   0.231313 0.731313 0.750000 0.036649
C15   C     C_1   0.731306 0.768694 0.250000 0.036347
C16   C     C_1   0.268686 0.231313 0.750000 0.036649
C17   C     C_1   0.231306 0.268694 0.750000 0.036347
C18   C     C_1   0.768687 0.731313 0.250000 0.036649
C19   C     C_1   0.268694 0.768694 0.750000 0.036347
C20   C     C_1   0.731313 0.231313 0.250000 0.036649
C21   C     C_1   0.768694 0.731306 0.750000 0.036347
C22   C     C_1   0.231313 0.268686 0.250000 0.036649
C23   C     C_1   0.731306 0.231306 0.750000 0.036347
C24   C     C_R   0.539429 0.033096 0.609384 -0.099286
C25   C     C_1   0.268686 0.768687 0.250000 0.036649
C26   C     C_R   0.449524 0.995159 0.054594 0.606964
C27   C     C_R   0.550476 0.995159 0.945406 0.606964
C28   C     C_R   0.004841 0.449524 0.054594 0.606964
C29   C     C_R   0.004841 0.550476 0.945406 0.606964
C30   C     C_R   0.550476 0.004842 0.054594 0.606963
C31   C     C_R   0.449524 0.004840 0.945406 0.606963
C32   C     C_R   0.995159 0.550476 0.054594 0.606964
C33   C     C_R   0.995159 0.449524 0.945406 0.606963
C34   C     C_R   0.949524 0.495160 0.554594 0.606963
C35   C     C_R   0.033097 0.539428 0.390616 -0.099286
C36   C     C_R   0.050476 0.495158 0.445406 0.606963
C37   C     C_R   0.504841 0.949524 0.554594 0.606962
C38   C     C_R   0.504841 0.050476 0.445406 0.606963
C39   C     C_R   0.050476 0.504840 0.554594 0.606962
C40   C     C_R   0.949524 0.504842 0.445406 0.606963
C41   C     C_R   0.495159 0.050476 0.554594 0.606964
C42   C     C_R   0.495159 0.949524 0.445406 0.606964
C43   C     C_R   0.552327 0.999226 0.027367 -0.174230
C44   C     C_R   0.447673 0.999225 0.972633 -0.174229
C45   C     C_R   0.000774 0.552327 0.027367 -0.174230
C46   C     C_R   0.966904 0.539429 0.609384 -0.099286
C47   C     C_R   0.000774 0.447673 0.972633 -0.174230
C48   C     C_R   0.447673 0.000774 0.027367 -0.174229
C49   C     C_R   0.552327 0.000775 0.972633 -0.174230
C50   C     C_R   0.999226 0.447673 0.027367 -0.174229
C51   C     C_R   0.999226 0.552327 0.972633 -0.174230
C52   C     C_R   0.052327 0.499225 0.527367 -0.174229
C53   C     C_R   0.947673 0.499227 0.472633 -0.174230
C54   C     C_R   0.500774 0.052327 0.527367 -0.174230
C55   C     C_R   0.500774 0.947673 0.472633 -0.174230
C56   C     C_R   0.947673 0.500775 0.527367 -0.174229
C57   C     C_R   0.460571 0.033096 0.390616 -0.099286
C58   C     C_R   0.052327 0.500773 0.472633 -0.174228
C59   C     C_R   0.499226 0.947673 0.527367 -0.174229
C60   C     C_R   0.499226 0.052327 0.472633 -0.174229
C61   C     C_R   0.500000 0.000000 0.013671 -0.098898
C62   C     C_R   0.500000 0.000000 0.986329 -0.098898
C63   C     C_R   0.000000 0.500000 0.013671 -0.098898
C64   C     C_R   1.000000 0.500000 0.986329 -0.098898
C65   C     C_R   1.000000 0.500000 0.513671 -0.098898
C66   C     C_R   0.000000 0.500000 0.486329 -0.098897
C67   C     C_R   0.500000 1.000000 0.513671 -0.098898
C68   C     C_R   0.460571 0.966903 0.609384 -0.099287
C69   C     C_R   0.500000 1.000000 0.486329 -0.098898
C70   C     C_R   0.604533 0.995398 0.013471 0.354203
C71   C     C_R   0.395467 0.995395 0.986529 0.354204
C72   C     C_R   0.004603 0.604533 0.013471 0.354204
C73   C     C_R   0.004604 0.395467 0.986529 0.354205
C74   C     C_R   0.395467 0.004602 0.013471 0.354204
C75   C     C_R   0.604533 0.004605 0.986529 0.354205
C76   C     C_R   0.995397 0.395467 0.013471 0.354204
C77   C     C_R   0.995396 0.604533 0.986529 0.354204
C78   C     C_R   0.104533 0.495394 0.513471 0.354203
C79   C     C_R   0.466904 0.960571 0.890616 -0.099286
C80   C     C_R   0.895466 0.495399 0.486529 0.354204
C81   C     C_R   0.504603 0.104533 0.513471 0.354204
C82   C     C_R   0.504604 0.895467 0.486529 0.354205
C83   C     C_R   0.895467 0.504606 0.513471 0.354204
C84   C     C_R   0.104533 0.504601 0.486529 0.354203
C85   C     C_R   0.495397 0.895467 0.513471 0.354204
C86   C     C_R   0.495396 0.104533 0.486529 0.354205
C87   C     C_2   0.924347 0.421211 0.350830 0.956979
C88   C     C_2   0.075651 0.421209 0.649170 0.956982
C89   C     C_2   0.578789 0.924347 0.350830 0.956980
C90   C     C_R   0.533097 0.960572 0.109384 -0.099286
C91   C     C_2   0.578789 0.075652 0.649170 0.956981
C92   C     C_2   0.075653 0.578789 0.350830 0.956981
C93   C     C_2   0.924349 0.578791 0.649170 0.956982
C94   C     C_2   0.421210 0.075652 0.350830 0.956981
C95   C     C_2   0.421211 0.924347 0.649170 0.956982
C96   C     C_2   0.424348 0.921210 0.850830 0.956981
C97   C     C_2   0.575653 0.921211 0.149170 0.956981
C98   C     C_2   0.078789 0.424347 0.850830 0.956981
C99   C     C_2   0.078789 0.575652 0.149170 0.956980
C100  C     C_2   0.575652 0.078790 0.850830 0.956981
C101  C     C_R   0.039428 0.466903 0.890616 -0.099286
C102  C     C_2   0.424347 0.078789 0.149170 0.956980
C103  C     C_2   0.921211 0.575653 0.850830 0.956980
C104  C     C_2   0.921211 0.424347 0.149170 0.956982
C105  C     C_R   1.000000 0.500000 0.820730 0.928907
C106  C     C_R   0.039429 0.533096 0.109384 -0.099286
C107  C     C_R   0.533096 0.039429 0.890616 -0.099286
C108  C     C_R   0.466903 0.039428 0.109384 -0.099286
C109  C     C_R   0.960571 0.533096 0.890616 -0.099286
C110  C     C_R   0.960571 0.466904 0.109384 -0.099286
C111  C     C_R   0.965164 0.460883 0.363512 -0.082020
C112  C     C_R   0.034835 0.460882 0.636488 -0.082020
C113  C     C_R   0.539117 0.965164 0.363512 -0.082019
C114  C     C_R   0.539117 0.034835 0.636488 -0.082020
C115  C     C_R   0.034836 0.539117 0.363512 -0.082019
C116  C     C_R   0.500000 0.000000 0.179270 0.928907
C117  C     C_R   0.965165 0.539118 0.636488 -0.082019
C118  C     C_R   0.460882 0.034835 0.363512 -0.082020
C119  C     C_R   0.460882 0.965164 0.636488 -0.082019
C120  C     C_R   0.465165 0.960882 0.863512 -0.082020
C121  C     C_R   0.534836 0.960883 0.136488 -0.082020
C122  C     C_R   0.039117 0.465164 0.863512 -0.082020
C123  C     C_R   0.039117 0.534835 0.136488 -0.082020
C124  C     C_R   0.534835 0.039118 0.863512 -0.082019
C125  C     C_R   0.465164 0.039117 0.136488 -0.082020
C126  C     C_R   0.960882 0.534836 0.863512 -0.082020
C127  C     C_R   0.500000 1.000000 0.820730 0.928906
C128  C     C_R   0.960882 0.465164 0.136488 -0.082019
C129  C     C_R   1.000000 0.500000 0.349504 -0.195381
C130  C     C_R   1.000000 0.500000 0.650496 -0.195382
C131  C     C_R   0.500000 1.000000 0.349504 -0.195381
C132  C     C_R   0.500000 1.000000 0.650496 -0.195381
C133  C     C_R   0.500000 1.000000 0.849504 -0.195381
C134  C     C_R   0.500000 0.000000 0.150496 -0.195381
C135  C     C_R   1.000000 0.500000 0.849504 -0.195381
C136  C     C_R   1.000000 0.500000 0.150496 -0.195381
C137  C     C_R   1.000000 0.500000 0.404333 0.210475
C138  C     C_R   0.500000 0.000000 0.679270 0.928906
C139  C     C_R   1.000000 0.500000 0.595667 0.210476
C140  C     C_R   0.500000 1.000000 0.404333 0.210476
C141  C     C_R   0.500000 1.000000 0.595667 0.210476
C142  C     C_R   0.500000 0.000000 0.904333 0.210475
C143  C     C_R   0.500000 0.000000 0.095667 0.210476
C144  C     C_R   1.000000 0.500000 0.904333 0.210475
C145  C     C_R   0.000000 0.500000 0.095667 0.210476
C146  C     C_R   0.895271 0.604729 0.250000 0.825549
C147  C     C_R   0.104727 0.395273 0.750000 0.852056
C148  C     C_R   0.395271 0.895271 0.250000 0.825549
C149  C     C_R   0.500000 1.000000 0.320730 0.928906
C150  C     C_R   0.604727 0.104727 0.750000 0.852056
C151  C     C_R   0.104729 0.395271 0.250000 0.825550
C152  C     C_R   0.895273 0.604727 0.750000 0.852057
C153  C     C_R   0.604729 0.104729 0.250000 0.825549
C154  C     C_R   0.395273 0.895273 0.750000 0.852057
C155  C     C_R   0.895271 0.395271 0.750000 0.825549
C156  C     C_R   0.104727 0.604727 0.250000 0.852056
C157  C     C_R   0.395271 0.104729 0.750000 0.825549
C158  C     C_R   0.604727 0.895273 0.250000 0.852056
C159  C     C_R   0.104729 0.604729 0.750000 0.825549
C160  C     C_R   1.000000 0.500000 0.679270 0.928903
C161  C     C_R   0.895273 0.395273 0.250000 0.852057
C162  C     C_R   0.604729 0.895271 0.750000 0.825550
C163  C     C_R   0.395273 0.104727 0.250000 0.852057
C164  C     C_1   0.149709 0.649709 0.250000 -0.132843
C165  C     C_1   0.850285 0.350285 0.750000 -0.139899
C166  C     C_1   0.350291 0.149709 0.250000 -0.132843
C167  C     C_1   0.649715 0.850285 0.750000 -0.139899
C168  C     C_1   0.850291 0.350291 0.250000 -0.132843
C169  C     C_1   0.149715 0.649715 0.750000 -0.139899
C170  C     C_1   0.649709 0.850291 0.250000 -0.132843
C171  C     C_R   0.000000 0.500000 0.320730 0.928907
C172  C     C_1   0.350285 0.149715 0.750000 -0.139899
C173  C     C_1   0.149709 0.350291 0.750000 -0.132842
C174  C     C_1   0.850285 0.649715 0.250000 -0.139899
C175  C     C_1   0.350291 0.850291 0.750000 -0.132843
C176  C     C_1   0.649715 0.149715 0.250000 -0.139899
C177  C     C_1   0.850291 0.649709 0.750000 -0.132843
C178  C     C_1   0.149715 0.350285 0.250000 -0.139899
C179  C     C_1   0.649709 0.149709 0.750000 -0.132843
C180  C     C_1   0.350285 0.850285 0.250000 -0.139899
C181  C     C_1   0.187090 0.687090 0.250000 0.024825
C182  C     C_R   0.966903 0.460572 0.390616 -0.099286
C183  C     C_1   0.812903 0.312904 0.750000 0.024453
C184  C     C_1   0.312910 0.187090 0.250000 0.024825
C185  C     C_1   0.687096 0.812904 0.750000 0.024453
C186  C     C_1   0.812910 0.312910 0.250000 0.024824
C187  C     C_1   0.187096 0.687096 0.750000 0.024453
C188  C     C_1   0.687090 0.812910 0.250000 0.024824
C189  C     C_1   0.312903 0.187096 0.750000 0.024453
C190  C     C_1   0.187090 0.312910 0.750000 0.024825
C191  C     C_1   0.812904 0.687096 0.250000 0.024453
C192  C     C_1   0.312910 0.812910 0.750000 0.024825
H1    H     H_    0.941035 0.430378 0.401309 0.206536
H2    H     H_    0.558965 0.930378 0.098691 0.206536
H3    H     H_    0.069622 0.441035 0.901309 0.206537
H4    H     H_    0.069623 0.558964 0.098691 0.206536
H5    H     H_    0.558964 0.069623 0.901309 0.206537
H6    H     H_    0.441035 0.069622 0.098691 0.206536
H7    H     H_    0.930377 0.558964 0.901309 0.206537
H8    H     H_    0.930377 0.441035 0.098691 0.206536
H9    H     H_    0.743819 0.923106 0.016102 0.397595
H10   H     H_    0.256183 0.923100 0.983898 0.397595
H11   H     H_    0.076897 0.743818 0.016102 0.397595
H12   H     H_    0.058963 0.430376 0.598691 0.206536
H13   H     H_    0.076898 0.256183 0.983898 0.397595
H14   H     H_    0.256182 0.076895 0.016102 0.397596
H15   H     H_    0.743814 0.076906 0.983897 0.397595
H16   H     H_    0.923103 0.256182 0.016102 0.397595
H17   H     H_    0.923102 0.743817 0.983898 0.397596
H18   H     H_    0.243816 0.423098 0.516102 0.397595
H19   H     H_    0.756180 0.423108 0.483898 0.397595
H20   H     H_    0.576897 0.243818 0.516102 0.397595
H21   H     H_    0.576899 0.756183 0.483898 0.397595
H22   H     H_    0.756184 0.576902 0.516102 0.397595
H23   H     H_    0.569622 0.941036 0.401309 0.206536
H24   H     H_    0.243819 0.576893 0.483898 0.397595
H25   H     H_    0.423103 0.756182 0.516102 0.397595
H26   H     H_    0.423102 0.243817 0.483898 0.397595
H27   H     H_    0.884473 0.344849 0.351742 0.361334
H28   H     H_    0.115522 0.344845 0.648258 0.361334
H29   H     H_    0.655152 0.884475 0.351742 0.361334
H30   H     H_    0.655152 0.115525 0.648258 0.361334
H31   H     H_    0.115527 0.655151 0.351742 0.361334
H32   H     H_    0.884478 0.655155 0.648258 0.361334
H33   H     H_    0.344847 0.115525 0.351742 0.361334
H34   H     H_    0.569622 0.058964 0.598691 0.206536
H35   H     H_    0.344848 0.884474 0.648258 0.361334
H36   H     H_    0.384476 0.844847 0.851742 0.361334
H37   H     H_    0.615527 0.844849 0.148258 0.361334
H38   H     H_    0.155152 0.384474 0.851742 0.361334
H39   H     H_    0.155152 0.615525 0.148258 0.361335
H40   H     H_    0.615524 0.155153 0.851742 0.361334
H41   H     H_    0.384474 0.155151 0.148258 0.361335
H42   H     H_    0.844848 0.615526 0.851742 0.361334
H43   H     H_    0.844848 0.384475 0.148258 0.361335
H44   H     H_    0.058965 0.569622 0.401309 0.206536
H45   H     H_    0.941037 0.569624 0.598691 0.206536
H46   H     H_    0.430377 0.058964 0.401309 0.206536
H47   H     H_    0.430378 0.941035 0.598691 0.206536
H48   H     H_    0.441036 0.930377 0.901309 0.206537
N1    N     N_R   0.500000 0.000000 0.067668 -0.360242
N2    N     N_R   0.500000 0.000000 0.932332 -0.360241
N3    N     N_R   1.000000 0.500000 0.067668 -0.360241
N4    N     N_R   1.000000 0.500000 0.932332 -0.360241
N5    N     N_R   1.000000 0.500000 0.567668 -0.360241
N6    N     N_R   1.000000 0.500000 0.432332 -0.360242
N7    N     N_R   0.500000 1.000000 0.567668 -0.360241
N8    N     N_R   0.500000 1.000000 0.432332 -0.360241
O1    O     O_3   0.000000 0.500000 0.250000 -0.459166
O2    O     O_R   0.044090 0.500000 0.807650 -0.617359
O3    O     O_2   0.577248 0.150238 0.548121 -0.258548
O4    O     O_3   0.565495 0.209157 0.506444 -0.474811
O5    O     O_2   0.486479 0.799905 0.458647 -0.172600
O6    O     O_2   0.577248 0.849763 0.451879 -0.258549
O7    O     O_3   0.565496 0.790843 0.493556 -0.474811
O8    O     O_2   0.799905 0.486482 0.541353 -0.172601
O9    O     O_2   0.849764 0.577251 0.548121 -0.258547
O10   O     O_3   0.790844 0.565499 0.506444 -0.474811
O11   O     O_2   0.200094 0.486474 0.458647 -0.172601
O12   O     O_2   0.150239 0.577245 0.451879 -0.258547
O13   O     O_R   0.500000 0.955910 0.192350 -0.617359
O14   O     O_3   0.209159 0.565491 0.493555 -0.474811
O15   O     O_2   0.513522 0.799905 0.541353 -0.172601
O16   O     O_2   0.422752 0.849762 0.548121 -0.258548
O17   O     O_3   0.434505 0.790842 0.506444 -0.474811
O18   O     O_2   0.513521 0.200095 0.458647 -0.172601
O19   O     O_2   0.422752 0.150237 0.451879 -0.258547
O20   O     O_3   0.434504 0.209157 0.493556 -0.474810
O21   O     O_2   0.898543 0.435718 0.331404 -0.626344
O22   O     O_R   0.913543 0.367802 0.361864 -0.769393
O23   O     O_2   0.101456 0.435715 0.668596 -0.626342
O24   O     O_R   0.500000 0.044090 0.807650 -0.617359
O25   O     O_R   0.086452 0.367799 0.638136 -0.769394
O26   O     O_2   0.564283 0.898544 0.331404 -0.626343
O27   O     O_R   0.632199 0.913545 0.361864 -0.769394
O28   O     O_2   0.564283 0.101456 0.668596 -0.626343
O29   O     O_R   0.632199 0.086455 0.638136 -0.769395
O30   O     O_2   0.101457 0.564282 0.331404 -0.626345
O31   O     O_R   0.086457 0.632198 0.361864 -0.769394
O32   O     O_2   0.898544 0.564285 0.668596 -0.626342
O33   O     O_R   0.913548 0.632201 0.638136 -0.769395
O34   O     O_2   0.435716 0.101456 0.331404 -0.626343
O35   O     O_R   0.544090 0.000000 0.692350 -0.617360
O36   O     O_R   0.367801 0.086455 0.361864 -0.769395
O37   O     O_2   0.435717 0.898544 0.668596 -0.626343
O38   O     O_R   0.367801 0.913545 0.638136 -0.769395
O39   O     O_2   0.398544 0.935716 0.831404 -0.626343
O40   O     O_R   0.413546 0.867800 0.861864 -0.769394
O41   O     O_2   0.601457 0.935717 0.168596 -0.626343
O42   O     O_R   0.586456 0.867802 0.138136 -0.769394
O43   O     O_2   0.064283 0.398544 0.831404 -0.626344
O44   O     O_R   0.132199 0.413545 0.861864 -0.769393
O45   O     O_2   0.064283 0.601456 0.168596 -0.626343
O46   O     O_R   0.455910 0.000000 0.307650 -0.617360
O47   O     O_R   0.132199 0.586455 0.138136 -0.769394
O48   O     O_2   0.601456 0.064284 0.831404 -0.626342
O49   O     O_R   0.586454 0.132200 0.861864 -0.769395
O50   O     O_2   0.398543 0.064283 0.168596 -0.626343
O51   O     O_R   0.413544 0.132198 0.138136 -0.769395
O52   O     O_2   0.935717 0.601456 0.831403 -0.626343
O53   O     O_R   0.867801 0.586456 0.861864 -0.769394
O54   O     O_2   0.935717 0.398544 0.168596 -0.626343
O55   O     O_R   0.867801 0.413545 0.138136 -0.769395
O56   O     O_R   0.000000 0.544090 0.692350 -0.617360
O57   O     O_R   1.000000 0.455910 0.307650 -0.617360
O58   O     O_R   0.455910 0.000000 0.692350 -0.617360
O59   O     O_R   0.544090 0.000000 0.307650 -0.617359
O60   O     O_R   1.000000 0.455910 0.692350 -0.617360
O61   O     O_3   1.000000 0.500000 0.750000 -0.459166
O62   O     O_R   1.000000 0.544090 0.307650 -0.617359
O63   O     O_R   0.893990 0.562090 0.235170 -0.623202
O64   O     O_R   0.106010 0.437910 0.764830 -0.613045
O65   O     O_R   0.437910 0.893990 0.235170 -0.623202
O66   O     O_R   0.562090 0.106010 0.764830 -0.613044
O67   O     O_R   0.106010 0.437910 0.235170 -0.623202
O68   O     O_R   0.893990 0.562090 0.764830 -0.613045
O69   O     O_R   0.562090 0.106010 0.235170 -0.623202
O70   O     O_R   0.437910 0.893990 0.764830 -0.613045
O71   O     O_R   0.893990 0.437910 0.764830 -0.623202
O72   O     O_3   0.500000 0.000000 0.250000 -0.459166
O73   O     O_R   0.106010 0.562090 0.235170 -0.613045
O74   O     O_R   0.437910 0.106010 0.764830 -0.623202
O75   O     O_R   0.562090 0.893990 0.235170 -0.613044
O76   O     O_R   0.106010 0.562090 0.764830 -0.623201
O77   O     O_R   0.893990 0.437910 0.235170 -0.613044
O78   O     O_R   0.562090 0.893990 0.764830 -0.623202
O79   O     O_R   0.437910 0.106010 0.235170 -0.613044
O80   O     O_R   0.393990 0.062090 0.735170 -0.623202
O81   O     O_R   0.606010 0.937910 0.264830 -0.613045
O82   O     O_R   0.937910 0.393990 0.735170 -0.623202
O83   O     O_3   0.500000 0.000000 0.750000 -0.459166
O84   O     O_R   0.062090 0.606010 0.264830 -0.613044
O85   O     O_R   0.606010 0.937910 0.735170 -0.623202
O86   O     O_R   0.393990 0.062090 0.264830 -0.613045
O87   O     O_R   0.062090 0.606010 0.735170 -0.623202
O88   O     O_R   0.937910 0.393990 0.264830 -0.613045
O89   O     O_R   0.393990 0.937910 0.264830 -0.623202
O90   O     O_R   0.606010 0.062090 0.735170 -0.613045
O91   O     O_R   0.937910 0.606010 0.264830 -0.623201
O92   O     O_R   0.062090 0.393990 0.735170 -0.613044
O93   O     O_R   0.606010 0.062090 0.264830 -0.623201
O94   O     O_R   0.044090 0.500000 0.192350 -0.617360
O95   O     O_R   0.393990 0.937910 0.735170 -0.613044
O96   O     O_R   0.062090 0.393990 0.264830 -0.623201
O97   O     O_R   0.937910 0.606010 0.735170 -0.613044
O98   O     O_2   0.401838 0.982282 0.067907 -0.455430
O99   O     O_2   0.598163 0.982284 0.932092 -0.455430
O100  O     O_2   0.017717 0.401837 0.067907 -0.455430
O101  O     O_2   0.017717 0.598163 0.932092 -0.455431
O102  O     O_2   0.598162 0.017718 0.067907 -0.455430
O103  O     O_2   0.401837 0.017716 0.932092 -0.455430
O104  O     O_2   0.982283 0.598163 0.067907 -0.455430
O105  O     O_R   0.955910 0.500000 0.807650 -0.617360
O106  O     O_2   0.982283 0.401837 0.932092 -0.455430
O107  O     O_2   0.901837 0.482285 0.567907 -0.455430
O108  O     O_2   0.098162 0.482281 0.432092 -0.455429
O109  O     O_2   0.517718 0.901837 0.567907 -0.455429
O110  O     O_2   0.517717 0.098163 0.432092 -0.455430
O111  O     O_2   0.098163 0.517715 0.567907 -0.455429
O112  O     O_2   0.901837 0.517719 0.432092 -0.455429
O113  O     O_2   0.482283 0.098162 0.567907 -0.455430
O114  O     O_2   0.482283 0.901837 0.432092 -0.455430
O115  O     O_2   0.700094 0.013524 0.041353 -0.172600
O116  O     O_R   0.500000 0.044090 0.192350 -0.617360
O117  O     O_2   0.650238 0.922754 0.048121 -0.258548
O118  O     O_3   0.709158 0.934507 0.006444 -0.474808
O119  O     O_2   0.299905 0.013520 0.958647 -0.172601
O120  O     O_2   0.349763 0.922750 0.951879 -0.258547
O121  O     O_3   0.290843 0.934503 0.993556 -0.474810
O122  O     O_2   0.986478 0.700094 0.041353 -0.172601
O123  O     O_2   0.077248 0.650238 0.048120 -0.258547
O124  O     O_3   0.065494 0.709157 0.006444 -0.474810
O125  O     O_2   0.986478 0.299905 0.958647 -0.172601
O126  O     O_2   0.077248 0.349763 0.951879 -0.258548
O127  O     O_R   0.500000 0.955910 0.807650 -0.617360
O128  O     O_3   0.065495 0.290843 0.993556 -0.474811
O129  O     O_2   0.299906 0.986476 0.041353 -0.172601
O130  O     O_2   0.349762 0.077246 0.048121 -0.258547
O131  O     O_3   0.290842 0.065493 0.006444 -0.474812
O132  O     O_2   0.700095 0.986481 0.958647 -0.172596
O133  O     O_2   0.650236 0.077250 0.951879 -0.258554
O134  O     O_3   0.709156 0.065498 0.993555 -0.474811
O135  O     O_2   0.013522 0.299905 0.041353 -0.172601
O136  O     O_2   0.922752 0.349762 0.048121 -0.258547
O137  O     O_3   0.934505 0.290842 0.006444 -0.474811
O138  O     O_R   0.955910 0.500000 0.192350 -0.617360
O139  O     O_2   0.013521 0.700094 0.958647 -0.172601
O140  O     O_2   0.922752 0.650237 0.951879 -0.258547
O141  O     O_3   0.934504 0.709157 0.993555 -0.474811
O142  O     O_2   0.200095 0.513518 0.541353 -0.172601
O143  O     O_2   0.150236 0.422749 0.548121 -0.258547
O144  O     O_3   0.209156 0.434501 0.506444 -0.474809
O145  O     O_2   0.799906 0.513526 0.458647 -0.172602
O146  O     O_2   0.849761 0.422755 0.451879 -0.258546
O147  O     O_3   0.790841 0.434509 0.493556 -0.474810
O148  O     O_2   0.486478 0.200094 0.541353 -0.172601
S1    S     S_3+6 0.667092 0.966598 0.028347 0.138719
S2    S     S_3+6 0.832908 0.466599 0.471653 0.138718
S3    S     S_3+6 0.533404 0.167091 0.528347 0.138717
S4    S     S_3+6 0.533405 0.832909 0.471653 0.138717
S5    S     S_3+6 0.832909 0.533408 0.528347 0.138717
S6    S     S_3+6 0.167092 0.533401 0.471653 0.138718
S7    S     S_3+6 0.466596 0.832908 0.528347 0.138718
S8    S     S_3+6 0.466595 0.167091 0.471653 0.138717
S9    S     S_3+6 0.332909 0.966594 0.971653 0.138717
S10   S     S_3+6 0.033404 0.667091 0.028347 0.138717
S11   S     S_3+6 0.033404 0.332909 0.971653 0.138717
S12   S     S_3+6 0.332908 0.033402 0.028347 0.138717
S13   S     S_3+6 0.667091 0.033406 0.971653 0.138717
S14   S     S_3+6 0.966596 0.332908 0.028347 0.138717
S15   S     S_3+6 0.966595 0.667091 0.971653 0.138718
S16   S     S_3+6 0.167091 0.466592 0.528347 0.138717
Zn1   Zn    Zn3+2 0.000000 0.563030 0.272130 1.052729
Zn2   Zn    Zn3+2 0.500000 0.936970 0.227870 1.052729
Zn3   Zn    Zn3+2 0.936970 0.500000 0.772130 1.052728
Zn4   Zn    Zn3+2 0.063030 0.500000 0.227870 1.052728
Zn5   Zn    Zn3+2 0.500000 0.936970 0.772130 1.052728
Zn6   Zn    Zn3+2 0.500000 0.063030 0.227870 1.052729
Zn7   Zn    Zn3+2 0.063030 0.500000 0.772130 1.052728
Zn8   Zn    Zn3+2 0.936970 0.500000 0.227870 1.052729
Zn9   Zn    Zn3+2 1.000000 0.436970 0.727870 1.052728
Zn10  Zn    Zn3+2 0.436970 1.000000 0.272130 1.052728
Zn11  Zn    Zn3+2 0.563030 0.000000 0.727870 1.052728
Zn12  Zn    Zn3+2 0.000000 0.436970 0.272130 1.052729
Zn13  Zn    Zn3+2 1.000000 0.563030 0.727870 1.052728
Zn14  Zn    Zn3+2 0.563030 1.000000 0.272130 1.052728
Zn15  Zn    Zn3+2 0.436970 0.000000 0.727870 1.052728
Zn16  Zn    Zn3+2 0.500000 0.063030 0.772130 1.052729

loop_
_geom_bond_atom_site_label_1
_geom_bond_atom_site_label_2
_ccdc_geom_bond_type
C29   O101  S    
O78   Zn5   S    
C34   C56   A    
O79   Zn6   S    
C6    C179  T    
C10   C184  S    
C32   C45   A    
C163  O86   A    
O77   Zn8   S    
C4    C177  T    
C102  C125  S    
O124  S10   S    
C154  O70   A    
C36   O108  S    
O1    Zn1   S    
O10   S5    S    
C159  O87   A    
O64   Zn7   S    
C124  C133  A    
O74   Zn16  S    
O63   Zn8   S    
C72   S10   S    
C68   C119  A    
O144  S16   S    
C79   C142  A    
O3    S3    D    
C167  C185  T    
C145  N3    S    
C120  C133  A    
C103  C126  S    
O92   Zn9   S    
O1    Zn8   S    
O2    Zn7   S    
C30   N1    A    
C147  O64   A    
H26   O20   S    
O68   Zn3   S    
C35   C115  A    
C1    C136  S    
C90   C143  A    
O61   Zn13  S    
C174  C191  T    
C94   O34   D    
C116  O116  A    
C37   O109  S    
C107  C124  A    
C80   C83   A    
C150  O90   A    
C156  O73   A    
C103  O52   D    
C89   C113  S    
O86   Zn10  S    
C165  C183  T    
C48   C74   A    
C166  C184  T    
C169  C187  T    
O72   Zn6   S    
O146  S2    D    
C47   C64   A    
C60   C86   A    
C160  O60   A    
C106  H4    S    
C95   C119  S    
O116  Zn6   S    
C111  C182  A    
C149  O46   A    
C46   C117  A    
C100  C124  S    
O66   Zn16  S    
C105  O105  A    
C42   C55   A    
H36   O40   S    
C158  O75   A    
C104  C128  S    
C161  O77   A    
C24   C141  A    
O12   S6    D    
C79   C120  A    
C12   C20   T    
O61   Zn9   S    
O7    S4    S    
C33   C47   A    
C30   C43   A    
H21   O7    S    
C139  N5    S    
C27   N2    A    
C43   C61   A    
C56   C83   A    
C33   O106  S    
O76   Zn7   S    
C49   C62   A    
H41   O51   S    
H28   O25   S    
C14   C19   T    
O59   Zn14  S    
C9    C23   T    
C51   C64   A    
O93   Zn14  S    
C54   C67   A    
C82   C85   A    
C171  O62   A    
C101  C122  A    
C37   N7    A    
O129  S12   D    
O20   S8    S    
H19   O147  S    
C35   C137  A    
C14   C187  S    
C13   H23   S    
C155  C165  S    
C146  C174  S    
O123  S10   D    
O139  S15   D    
O147  S2    S    
H42   O53   S    
C11   C21   T    
H29   O27   S    
C109  C144  A    
C97   O41   D    
C92   O30   D    
C16   C189  S    
O134  S13   S    
C3    C176  T    
C149  O59   A    
C116  C134  S    
C89   O27   S    
O120  S9    D    
C100  O49   S    
O94   Zn4   S    
C54   C81   A    
C52   C65   A    
C110  C128  A    
C57   C118  A    
C8    C181  S    
C150  O66   A    
C15   C18   T    
C161  O88   A    
C24   C114  A    
H14   O131  S    
C31   N2    A    
C28   O100  S    
C42   N8    A    
O105  Zn3   S    
C91   O28   D    
C105  O2    A    
O137  S14   S    
O14   S6    S    
H31   O31   S    
C144  N4    S    
C96   O39   D    
H33   O36   S    
C97   C121  S    
C164  C181  T    
C59   C67   A    
C29   N4    A    
O96   Zn12  S    
C49   C75   A    
O72   Zn14  S    
C39   O111  S    
C118  C131  A    
C105  C135  S    
H13   O128  S    
C38   N8    A    
H9    O118  S    
C151  O67   A    
C50   C63   A    
C71   S9    S    
C93   C117  S    
C79   H48   S    
C31   O103  S    
O133  S13   D    
O90   Zn11  S    
C168  C186  T    
C36   C58   A    
C110  H8    S    
C53   C80   A    
C175  C192  T    
O1    Zn12  S    
C158  C170  S    
C142  N2    S    
O17   S7    S    
C154  O95   A    
C107  C142  A    
C138  O35   A    
C98   O44   S    
C88   O25   S    
C59   C85   A    
C117  C130  A    
O24   Zn16  S    
C88   O23   D    
O91   Zn1   S    
O95   Zn15  S    
C55   C69   A    
H30   O29   S    
C37   C59   A    
C38   C60   A    
O83   Zn15  S    
C90   C121  A    
C26   O98   S    
O122  S10   D    
C110  C145  A    
C46   C139  A    
C29   C51   A    
C98   C122  S    
O131  S12   S    
O141  S15   S    
C81   C86   A    
C102  O50   D    
O136  S14   D    
C17   C190  S    
C15   C188  S    
C91   C114  S    
C153  O93   A    
H24   O14   S    
C73   S11   S    
C94   C118  S    
C74   S12   S    
C155  O71   A    
C60   C69   A    
C141  N7    S    
C7    C180  T    
O75   Zn2   S    
C151  O96   A    
C61   C62   A    
O8    S5    D    
O5    S4    D    
O56   Zn13  S    
C156  O84   A    
C109  C126  A    
O11   S6    D    
C38   O110  S    
O13   Zn2   S    
C170  C188  T    
C70   C75   A    
C150  C179  S    
O83   Zn11  S    
C112  C130  A    
O81   Zn14  S    
O88   Zn12  S    
O82   Zn9   S    
C27   C49   A    
O35   Zn11  S    
C125  C134  A    
O145  S2    D    
C40   O112  S    
O71   Zn3   S    
C100  O48   D    
O127  Zn5   S    
C34   O107  S    
C26   N1    A    
O4    S3    S    
C10   C22   T    
C42   O114  S    
C2    C112  A    
C106  C145  A    
C2    C139  A    
C94   O36   S    
C32   O104  S    
C99   O47   S    
C128  C136  A    
C87   O22   S    
C101  C144  A    
O70   Zn5   S    
C87   C111  S    
C132  C138  S    
C173  C190  T    
O140  S15   D    
C130  C160  S    
C46   H45   S    
C152  C177  S    
C91   O29   S    
C116  O13   A    
C111  C129  A    
C16   C17   T    
C143  N1    S    
O58   Zn15  S    
C121  C134  A    
H20   O4    S    
C26   C48   A    
C148  C180  S    
C140  N8    S    
O132  S13   D    
C8    C25   T    
H43   O55   S    
O73   Zn4   S    
C52   C78   A    
O119  S9    D    
C96   C120  S    
O15   S7    D    
C162  O85   A    
C18   C191  S    
O61   Zn3   S    
C13   C140  A    
C81   S3    S    
C163  C166  S    
C47   C73   A    
O57   Zn12  S    
C107  H5    S    
O61   Zn7   S    
H16   O137  S    
C95   O37   D    
O143  S16   D    
O130  S12   D    
C51   C77   A    
H17   O141  S    
C9    C183  S    
O121  S9    S    
C155  O82   A    
O67   Zn4   S    
C162  O78   A    
H32   O33   S    
C90   H2    S    
C157  O80   A    
C12   C186  S    
C34   N5    A    
C3    C20   S    
C182  H1    S    
C148  O89   A    
C160  O56   A    
C41   O113  S    
H38   O44   S    
C126  C135  A    
C104  O55   S    
H25   O17   S    
H18   O144  S    
C89   O26   D    
C73   C76   A    
O16   S7    D    
O138  Zn8   S    
C158  O81   A    
C159  C169  S    
C83   S5    S    
H10   O121  S    
C127  C133  S    
C99   O45   D    
C68   H47   S    
C71   C74   A    
C40   N6    A    
C147  C173  S    
C27   O99   S    
C172  C189  T    
C80   S2    S    
C7    C25   S    
C152  O68   A    
C146  O91   A    
C153  O69   A    
O62   Zn1   S    
C96   O40   S    
H15   O134  S    
C65   C66   A    
C108  H6    S    
C92   C115  S    
C122  C135  A    
O97   Zn13  S    
C147  O92   A    
C88   C112  S    
C57   C140  A    
O72   Zn2   S    
C108  C143  A    
C101  H3    S    
O18   S8    D    
O1    Zn4   S    
O65   Zn2   S    
C137  N6    S    
C36   N6    A    
C75   S13   S    
O9    S5    D    
O148  S3    D    
C93   O33   S    
C153  C176  S    
C154  C175  S    
C146  O63   A    
H37   O42   S    
C50   C76   A    
C157  C172  S    
O19   S8    D    
C56   C65   A    
C44   C71   A    
C97   O42   S    
C1    O94   A    
C93   O32   D    
O72   Zn10  S    
H11   O124  S    
C148  O65   A    
C39   N5    A    
C28   C50   A    
C58   C66   A    
O142  S16   D    
C5    C22   S    
C85   S7    S    
C70   S1    S    
C86   S8    S    
C106  C123  A    
O89   Zn10  S    
C28   N3    A    
C84   S6    S    
C108  C125  A    
C57   H46   S    
C19   C192  S    
C152  O97   A    
C39   C52   A    
C30   O102  S    
C77   S15   S    
C45   C72   A    
C78   S16   S    
O115  S1    D    
O126  S11   D    
C24   H34   S    
O135  S14   D    
C76   S14   S    
C5    C178  T    
O84   Zn1   S    
C127  O127  A    
C31   C44   A    
O69   Zn6   S    
O80   Zn15  S    
C2    H12   S    
H35   O38   S    
C102  O51   S    
C151  C178  S    
C137  C182  A    
C44   C62   A    
C45   C63   A    
C95   O38   S    
C63   C64   A    
C67   C69   A    
C138  O58   A    
O118  S1    S    
H39   O47   S    
C72   C77   A    
C58   C84   A    
O60   Zn9   S    
C119  C132  A    
C163  O79   A    
C68   C141  A    
O125  S11   D    
C55   C82   A    
C53   C66   A    
O6    S4    D    
C40   C53   A    
C43   C70   A    
C109  H7    S    
C127  O24   A    
C32   N3    A    
C99   C123  S    
C115  C129  A    
O46   Zn10  S    
C171  O57   A    
O128  S11   S    
C104  O54   D    
C113  C131  A    
C11   C185  S    
C114  C132  A    
C129  C171  S    
O85   Zn11  S    
C157  O74   A    
C123  C136  A    
O83   Zn5   S    
H27   O22   S    
O87   Zn13  S    
C92   O31   S    
C98   O43   D    
C87   O21   D    
C4    C21   S    
C48   C61   A    
C159  O76   A    
C6    C23   S    
C13   C113  A    
C41   C54   A    
C161  C168  S    
C131  C149  S    
C162  C167  S    
C78   C84   A    
C103  O53   S    
C156  C164  S    
C82   S4    S    
C1    O138  A    
O83   Zn16  S    
H22   O10   S    
C33   N4    A    
O117  S1    D    
C35   H44   S    
C41   N7    A    
H40   O49   S    
