data_mof_unit_8605.cif
_audit_creation_date              2013-03-05T16:33:11-0500
_audit_creation_method            fapswitch 2.2
_symmetry_space_group_name_H-M    P1
_symmetry_Int_Tables_number       1
_space_group_crystal_system       triclinic
_cell_length_a                    27.784576
_cell_length_b                    10.807547
_cell_length_c                    9.621693
_cell_angle_alpha                 89.340823
_cell_angle_beta                  89.782715
_cell_angle_gamma                 91.615022
_cell_volume                      2887.86856452

loop_
_atom_site_label
_atom_site_type_symbol
_atom_site_description
_atom_site_fract_x
_atom_site_fract_y
_atom_site_fract_z
_atom_type_partial_charge
O1    O     O_R   0.500000 0.319640 0.618810 -0.538584
O2    O     O_R   0.500010 0.319680 0.381230 -0.606079
C1    C     C_R   0.502813 0.262875 0.500611 0.874728
O3    O     O_R   0.430260 0.500000 0.618780 -0.540867
O4    O     O_R   0.430270 0.500040 0.381190 -0.552436
C2    C     C_R   0.407693 0.497929 0.500533 0.869679
Cu1   Cu    Cu3+1 0.500000 0.499980 0.640670 1.046264
Cu2   Cu    Cu3+1 0.500000 0.500020 0.359330 1.038073
O5    O     O_R   0.499990 0.680320 0.618770 -0.563586
O6    O     O_R   0.500000 0.680360 0.381190 -0.531294
O7    O     O_R   0.569730 0.499960 0.618810 -0.569189
O8    O     O_R   0.569740 0.500000 0.381220 -0.582153
C3    C     C_R   0.502173 0.737473 0.498940 0.834918
C4    C     C_R   0.592301 0.498490 0.500089 0.913880
C5    C     C_R   0.177882 0.386647 0.547659 0.599501
O9    O     O_2   0.203280 0.286877 0.583913 -0.437139
N1    N     N_R   0.201909 0.496623 0.518978 -0.463684
C6    C     C_R   0.177462 0.603185 0.496920 0.576313
C7    C     C_R   0.281202 0.578060 0.596040 -0.043795
C8    C     C_R   0.331320 0.576971 0.591009 -0.202117
C9    C     C_R   0.327417 0.411710 0.421087 0.321781
C10   C     C_R   0.277142 0.418097 0.422011 -0.136447
C11   C     C_R   0.253748 0.499206 0.510872 0.245708
C12   C     C_R   0.101600 0.489226 0.529329 -0.087586
C13   C     C_R   0.127059 0.378431 0.543643 -0.140902
C14   C     C_R   0.100830 0.264564 0.557213 0.361114
C15   C     C_R   0.127095 0.602322 0.506500 -0.021778
C16   C     C_R   0.354838 0.495064 0.503237 -0.130502
H1    H     H_    0.255841 0.355350 0.358496 0.202293
C17   C     C_R   0.645131 0.492085 0.501948 -0.144991
C18   C     C_R   0.973711 0.372298 0.529879 0.027280
C19   C     C_R   0.975254 0.598155 0.560911 -0.058300
C20   C     C_R   0.949097 0.484605 0.543219 0.051045
C21   C     C_R   0.946669 0.262916 0.502708 -0.214814
C22   C     C_R   0.896569 0.261893 0.492630 0.357135
C23   C     C_R   0.871700 0.373505 0.507395 -0.149536
C24   C     C_R   0.898085 0.483580 0.538201 -0.087221
C25   C     C_R   0.873428 0.593198 0.563130 -0.082244
C26   C     C_R   0.822958 0.591178 0.559225 0.601423
N2    N     N_R   0.797973 0.486176 0.521064 -0.435856
C27   C     C_R   0.821423 0.380430 0.488709 0.671731
C28   C     C_R   0.718194 0.403622 0.597628 0.376375
C29   C     C_R   0.667208 0.407200 0.592339 0.190380
C30   C     C_R   0.673299 0.574874 0.420003 0.306870
C31   C     C_R   0.723634 0.570517 0.426219 -0.267634
C32   C     C_R   0.746119 0.486886 0.515206 0.219408
O10   O     O_2   0.796145 0.284080 0.434989 -0.447406
C33   C     C_R   0.024637 0.373138 0.542681 0.012295
C34   C     C_R   0.050575 0.487407 0.536936 0.083557
C35   C     C_R   0.025771 0.600206 0.536725 0.062829
C36   C     C_R   0.050561 0.263506 0.557516 -0.234265
H2    H     H_    0.963682 0.175845 0.486303 0.195602
H3    H     H_    0.032557 0.174422 0.570667 0.197168
O11   O     O_2   0.201806 0.709707 0.465339 -0.490790
C37   C     C_R   0.101748 0.711600 0.489866 -0.086596
H4    H     H_    0.351868 0.640149 0.656060 0.184483
H5    H     H_    0.263710 0.639798 0.666885 0.184005
H6    H     H_    0.120319 0.798924 0.466604 0.226359
C38   C     C_R   0.949618 0.704616 0.600643 0.294016
C39   C     C_R   0.899331 0.701390 0.597285 -0.138075
O12   O     O_2   0.798991 0.693471 0.593469 -0.494382
C40   C     C_R   0.051941 0.710479 0.504054 -0.100251
H7    H     H_    0.880417 0.783637 0.626110 0.241306
H8    H     H_    0.745649 0.633509 0.362847 0.190611
H9    H     H_    0.034193 0.796503 0.484193 0.190160
C41   C     C_R   0.499973 0.060966 0.621842 -0.014196
C42   C     C_R   0.511210 0.130589 0.502590 -0.211807
C43   C     C_R   0.531128 0.068862 0.386946 0.334850
C44   C     C_R   0.528174 0.938814 0.382774 0.347083
C45   C     C_R   0.508948 0.871051 0.498129 -0.306289
C46   C     C_R   0.499762 0.933928 0.620056 -0.002225
C47   C     C_3   0.457342 0.922376 0.716042 0.249077
C48   C     C_3   0.457460 0.062965 0.717504 -0.352342
H10   H     H_    0.424869 0.878776 0.667644 0.144771
H11   H     H_    0.425192 0.100962 0.666161 0.229372
H12   H     H_    0.466923 0.102983 0.820094 0.244185
C49   C     C_R   0.535509 0.561869 0.072105 0.278073
N3    N     N_R   0.500300 0.500930 0.147930 -0.276215
C50   C     C_R   0.462518 0.449490 0.074741 0.394466
C51   C     C_R   0.461453 0.454696 0.927724 0.371122
N4    N     N_R   0.500310 0.500890 0.852020 -0.280868
C52   C     C_R   0.535767 0.560458 0.925328 0.208048
C53   C     C_3   0.588045 0.534835 0.919662 -0.473817
C54   C     C_3   0.588084 0.537793 0.076872 -0.432939
H13   H     H_    0.595131 0.441514 0.878654 0.245079
H14   H     H_    0.609453 0.612251 0.870788 0.224923
H15   H     H_    0.596243 0.446959 0.125497 0.215327
H16   H     H_    0.609025 0.618348 0.117157 0.269840
N5    N     N_R   0.349476 0.313525 0.346889 0.152160
O13   O     O_R   0.330114 0.272096 0.232947 -0.255349
O14   O     O_R   0.382995 0.250061 0.406158 -0.372283
N6    N     N_R   0.973230 0.810617 0.662015 0.115234
O15   O     O_R   0.005920 0.795397 0.756756 -0.301330
O16   O     O_R   0.957197 0.921022 0.639397 -0.323140
O17   O     O_3   0.650964 0.663133 0.340252 -0.694456
H17   H     H_    0.675786 0.714592 0.290518 0.357001
O18   O     O_3   0.551968 0.131350 0.275190 -0.661011
H18   H     H_    0.568288 0.207393 0.310264 0.329157
N7    N     N_R   0.544387 0.877805 0.260709 0.166892
O19   O     O_R   0.513796 0.851273 0.162756 -0.326513
O20   O     O_R   0.590265 0.874103 0.234512 -0.309275
O21   O     O_3   0.468503 0.868631 0.845615 -0.643483
H19   H     H_    0.499785 0.904457 0.877857 0.371129
O22   O     O_3   0.425498 0.385737 0.140318 -0.613958
H20   H     H_    0.440102 0.336123 0.214515 0.388510
N8    N     N_R   0.419035 0.407760 0.861182 0.182143
O23   O     O_R   0.377767 0.456380 0.888459 -0.288244
O24   O     O_R   0.419682 0.302414 0.798016 -0.349386
N9    N     N_R   0.124046 0.147626 0.560625 0.165143
O25   O     O_R   0.111320 0.064734 0.653837 -0.294868
O26   O     O_R   0.149255 0.114133 0.453891 -0.282117
O27   O     O_3   0.638075 0.329449 0.673269 -0.729461
H21   H     H_    0.655292 0.308592 0.759915 0.341724
O28   O     O_3   0.741809 0.320912 0.681813 -0.674833
H22   H     H_    0.722259 0.243015 0.688041 0.359263
N10   N     N_R   0.871782 0.144605 0.476630 0.175143
O29   O     O_R   0.886415 0.067484 0.383686 -0.303519
O30   O     O_R   0.841975 0.104726 0.572858 -0.253582

loop_
_geom_bond_atom_site_label_1
_geom_bond_atom_site_label_2
_geom_bond_distance
_ccdc_geom_bond_type
C10   H1    1.083173 S    
O17   H17   0.991797 S    
C7    C8    1.393542 A    
C54   H15   1.112105 S    
C8    H4    1.083731 S    
O18   H18   0.990681 S    
Cu1   Cu2   2.706961 S    
C9    N5    1.435998 S    
C31   C32   1.399437 A    
C7    H5    1.082730 S    
Cu1   O7    1.948015 S    
N1    C11   1.441620 S    
N8    O24   1.297289 A    
C39   H7    1.083564 S    
C23   C24   1.414603 A    
N9    O26   1.301403 A    
O4    C2    1.306019 A    
O7    C4    1.301510 A    
C15   C37   1.399933 A    
C5    C13   1.413079 A    
N8    O23   1.301744 A    
C5    O9    1.348493 S    
C37   C40   1.389770 A    
C51   N8    1.426785 S    
N10   O29   1.301245 A    
Cu1   O5    1.957986 S    
C21   C22   1.395509 A    
C28   C32   1.407220 A    
O5    C3    1.302124 A    
C43   O18   1.379899 S    
O22   H20   0.983602 S    
C28   O28   1.380611 S    
C33   C36   1.409991 A    
C2    C16   1.468127 S    
C41   C46   1.373115 A    
C43   C44   1.406620 A    
C18   C20   1.416732 A    
C45   C46   1.388909 A    
N5    O14   1.301544 A    
C53   H13   1.109696 S    
C41   C42   1.394413 A    
C38   C39   1.397166 A    
C9    C10   1.400523 A    
Cu2   N3    2.033922 S    
C48   H11   1.111729 S    
C17   C30   1.405109 A    
C23   C27   1.413090 A    
C44   C45   1.417164 A    
C4    C17   1.471607 S    
O3    Cu1   1.949912 S    
O27   H21   0.989679 S    
O28   H22   0.990056 S    
C26   O12   1.349975 S    
O2    Cu2   1.957988 S    
C42   C43   1.422192 A    
C12   C13   1.413454 A    
O3    C2    1.301268 A    
C26   N2    1.368077 A    
N3    C50   1.374290 A    
C51   N4    1.378665 A    
C8    C16   1.403355 A    
C49   C54   1.491759 S    
C13   C14   1.416907 A    
C49   N3    1.367573 A    
C41   C48   1.495515 S    
N4    C52   1.364735 A    
O1    C1    1.301523 A    
C22   C23   1.415212 A    
C7    C11   1.401365 A    
C24   C25   1.407627 A    
N7    O19   1.300572 A    
Cu2   O8    1.949906 S    
C12   C15   1.409918 A    
N6    O16   1.301636 A    
N1    C6    1.368328 A    
C27   O10   1.348589 S    
C18   C21   1.410270 A    
C22   N10   1.435576 S    
C14   N9    1.435109 S    
C19   C35   1.421397 A    
C25   C39   1.398728 A    
C44   N7    1.430943 S    
C47   H10   1.112294 S    
N2    C27   1.369726 A    
Cu1   N4    2.033732 S    
C9    C16   1.413868 A    
O8    C4    1.306485 A    
C34   C35   1.417193 A    
C18   C33   1.420546 A    
C35   C40   1.410197 A    
C48   H12   1.111715 S    
C17   C29   1.411276 A    
C53   C54   1.513340 S    
C28   C29   1.419305 A    
N2    C32   1.442290 S    
C30   C31   1.402129 A    
C12   C34   1.418898 A    
C5    N1    1.371435 A    
C33   C34   1.412640 A    
C40   H9    1.080050 S    
N7    O20   1.300246 A    
O1    Cu1   1.962753 S    
C1    C42   1.454992 S    
C6    C15   1.401859 A    
C54   H16   1.107977 S    
C47   C48   1.519557 S    
O6    C3    1.297206 A    
O4    Cu2   1.948018 S    
C31   H8    1.083311 S    
C21   H2    1.077868 S    
C19   C20   1.420794 A    
O2    C1    1.299807 A    
C46   C47   1.496149 S    
C30   O17   1.379814 S    
N9    O25   1.301239 A    
C25   C26   1.402495 A    
C47   O21   1.408638 S    
C49   C52   1.412494 A    
N6    O15   1.301626 A    
C29   O27   1.381848 S    
N10   O30   1.301450 A    
C38   N6    1.437935 S    
O21   H19   0.993707 S    
C50   O22   1.369663 S    
C20   C24   1.418087 A    
C6    O11   1.349709 S    
C50   C51   1.415477 A    
C53   H14   1.111633 S    
Cu2   O6    1.962752 S    
C52   C53   1.487250 S    
C3    C45   1.450522 S    
C37   H6    1.083442 S    
C10   C11   1.402525 A    
C19   C38   1.425324 A    
C36   H3    1.078311 S    
N5    O13   1.301530 A    
C14   C36   1.396419 A    
