data_mof_unit_59185.cif
_audit_creation_date              2012-12-10T17:53:19-0500
_audit_creation_method            fapswitch 2.2
_symmetry_space_group_name_H-M    P1
_symmetry_Int_Tables_number       1
_space_group_crystal_system       triclinic
_cell_length_a                    23.39949
_cell_length_b                    10.600904
_cell_length_c                    9.946367
_cell_angle_alpha                 91.715576
_cell_angle_beta                  90.986022
_cell_angle_gamma                 93.402749
_cell_volume                      2461.35402562

loop_
_atom_site_label
_atom_site_type_symbol
_atom_type_description
_atom_site_fract_x
_atom_site_fract_y
_atom_site_fract_z
_atom_type_partial_charge
C1    C     C_R   0.503460 0.259130 0.497882 0.926022
C2    C     C_R   0.970641 0.293477 0.578740 0.453453
C3    C     C_R   0.029851 0.298807 0.565025 -0.157199
C4    C     C_R   0.060265 0.413070 0.539611 -0.114981
C5    C     C_R   0.031013 0.524359 0.526982 -0.023199
C6    C     C_R   0.061707 0.640254 0.504502 -0.007672
C7    C     C_R   0.032356 0.750886 0.491607 -0.151163
C8    C     C_R   0.972987 0.746378 0.498360 -0.140218
C9    C     C_R   0.119758 0.419454 0.528842 0.537191
C10   C     C_R   0.121265 0.642132 0.495576 0.501367
C11   C     C_R   0.236894 0.519957 0.379629 0.203874
C12   C     C_R   0.389539 0.503746 0.499383 0.862334
C13   C     C_R   0.296092 0.511821 0.379036 -0.243428
C14   C     C_R   0.327811 0.517408 0.499615 -0.121186
C15   C     C_R   0.300580 0.539750 0.621531 -0.241293
C16   C     C_R   0.241635 0.549154 0.625011 0.197913
C17   C     C_R   0.209504 0.536707 0.503630 0.323618
C18   C     C_R   0.763913 0.444735 0.413584 -0.088188
C19   C     C_R   0.704234 0.439840 0.402145 0.141671
C20   C     C_R   0.672931 0.498697 0.504895 -0.051239
C21   C     C_R   0.701856 0.557906 0.616818 -0.256281
C22   C     C_R   0.761004 0.560975 0.626813 -0.101656
C23   C     C_R   0.491087 0.737152 0.502494 0.905425
C24   C     C_R   0.791985 0.505080 0.525070 0.261929
C25   C     C_R   0.549303 0.115617 0.720087 -0.174920
C26   C     C_R   0.549196 0.063619 0.847899 0.193317
C27   C     C_R   0.512365 0.955902 0.871208 0.165336
C28   C     C_R   0.480078 0.897264 0.762001 0.207702
C29   C     C_R   0.489374 0.940144 0.629609 0.012687
C30   C     C_R   0.514932 0.060071 0.613951 -0.079162
C31   C     C_R   0.503641 0.122183 0.493534 -0.240525
C32   C     C_R   0.478751 0.054643 0.380169 0.427335
C33   C     C_R   0.463070 0.926606 0.390644 0.317459
C34   C     C_R   0.610515 0.498613 0.500898 0.863020
C35   C     C_R   0.475585 0.867637 0.510892 -0.289773
C36   C     C_R   0.404788 0.384877 0.128709 0.497895
C37   C     C_R   0.352323 0.376028 0.057516 -0.375490
C38   C     C_R   0.352050 0.385896 0.919448 -0.265513
C39   C     C_R   0.404542 0.384639 0.855056 0.240167
C40   C     C_R   0.453480 0.443639 0.924080 0.061705
C41   C     C_R   0.453483 0.443970 0.068250 0.107047
C42   C     C_R   0.544571 0.552262 0.074829 -0.122134
C43   C     C_R   0.544590 0.552095 0.932057 -0.139609
C44   C     C_R   0.882322 0.624324 0.519434 0.514146
C45   C     C_R   0.879942 0.401301 0.552087 0.516870
C46   C     C_R   0.940113 0.403421 0.557527 -0.141711
C47   C     C_R   0.970975 0.519626 0.535063 -0.064804
C48   C     C_R   0.941968 0.631200 0.518467 -0.000434
H1    H     H_    0.678656 0.603176 0.696394 0.165947
H2    H     H_    0.782913 0.607309 0.713263 0.154548
H3    H     H_    0.576115 0.200407 0.703689 0.173659
H4    H     H_    0.580832 0.596270 0.130860 0.150987
H5    H     H_    0.052110 0.213145 0.578435 0.211583
H6    H     H_    0.313306 0.341562 0.104734 0.165649
H7    H     H_    0.312909 0.355381 0.864874 0.187479
H8    H     H_    0.580865 0.595868 0.881577 0.150510
H9    H     H_    0.055069 0.840962 0.475034 0.200372
H10   H     H_    0.951476 0.833168 0.486286 0.212877
H11   H     H_    0.317220 0.500230 0.284275 0.174597
H12   H     H_    0.325118 0.550332 0.714828 0.183518
H13   H     H_    0.789035 0.401727 0.336044 0.148520
N1    N     N_R   0.852909 0.510586 0.534040 -0.354123
N2    N     N_R   0.148634 0.532721 0.507756 -0.356074
N3    N     N_R   0.499460 0.498800 0.142780 -0.095823
N4    N     N_R   0.499440 0.498720 0.857170 -0.110072
O1    O     O_R   0.500000 0.316780 0.614690 -0.640111
O2    O     O_2   0.848306 0.291374 0.561051 -0.526429
O3    O     O_2   0.148802 0.313851 0.540201 -0.547610
O4    O     O_2   0.151748 0.751798 0.475285 -0.542060
O5    O     O_R   0.500000 0.316750 0.385360 -0.487788
O6    O     O_R   0.416160 0.499970 0.614690 -0.631223
O7    O     O_R   0.416150 0.499950 0.385360 -0.590813
O8    O     O_R   0.500000 0.683250 0.614640 -0.607517
O9    O     O_R   0.500000 0.683220 0.385310 -0.589465
O10   O     O_R   0.583850 0.500050 0.614640 -0.627815
O11   O     O_R   0.583840 0.500030 0.385310 -0.619684
O12   O     O_2   0.853681 0.729783 0.502525 -0.539697
Zn1   Zn    Zn3+2 0.500000 0.500020 0.653130 0.932830
Zn2   Zn    Zn3+2 0.500000 0.499980 0.346870 1.009006
O13   O     O_3   0.944633 0.179777 0.614298 -0.715805
H14   H     H_    0.918784 0.198052 0.689376 0.367203
C49   C     C_3   0.675623 0.368654 0.283131 -0.850534
H15   H     H_    0.642926 0.297430 0.318208 0.245012
H16   H     H_    0.655241 0.435403 0.216050 0.250501
H17   H     H_    0.706827 0.317557 0.222407 0.234444
O14   O     O_3   0.471501 0.114927 0.260325 -0.720458
H18   H     H_    0.445387 0.063147 0.198711 0.373709
C50   C     C_3   0.585633 0.129561 0.958472 -0.879620
H19   H     H_    0.611612 0.212025 0.921323 0.236548
H20   H     H_    0.557888 0.165017 0.039033 0.271819
H21   H     H_    0.615632 0.063080 0.000743 0.246864
C51   C     C_3   0.507199 0.901082 0.009301 -0.820008
H22   H     H_    0.462095 0.900841 0.040795 0.274709
H23   H     H_    0.520481 0.802595 0.005515 0.237272
H24   H     H_    0.533762 0.953244 0.088126 0.265433
C52   C     C_3   0.430230 0.803910 0.789631 -0.820242
H25   H     H_    0.405566 0.773254 0.696855 0.230935
H26   H     H_    0.445513 0.719263 0.838560 0.257144
H27   H     H_    0.399704 0.849427 0.857126 0.222520
O15   O     O_3   0.436287 0.860953 0.282740 -0.791826
H28   H     H_    0.413788 0.786706 0.316756 0.345857
O16   O     O_3   0.410763 0.314862 0.241218 -0.678681
H29   H     H_    0.373130 0.274383 0.265294 0.319218
C53   C     C_3   0.409583 0.263749 0.773397 -0.744803
H30   H     H_    0.400947 0.276888 0.665202 0.247201
H31   H     H_    0.451364 0.224124 0.794186 0.248165
H32   H     H_    0.377772 0.188104 0.803751 0.205369
C54   C     C_3   0.204544 0.507938 0.247150 -0.855438
H33   H     H_    0.157781 0.515153 0.258014 0.244866
H34   H     H_    0.220421 0.583972 0.180503 0.245824
H35   H     H_    0.211663 0.414966 0.197945 0.237176
C55   C     C_3   0.214618 0.570188 0.759756 -0.859921
H36   H     H_    0.167732 0.579153 0.752264 0.242388
H37   H     H_    0.222608 0.489656 0.825035 0.239444
H38   H     H_    0.233993 0.658466 0.808762 0.244231

loop_
_geom_bond_atom_site_label_1
_geom_bond_atom_site_label_2
_ccdc_geom_bond_type
C11   C13   A    
C15   H12   S    
C19   C20   A    
O11   Zn2   S    
C10   N2    A    
C21   H1    S    
C39   C53   S    
C45   C46   A    
C2    C46   A    
C5    C47   A    
C26   C27   A    
C29   C30   A    
C18   C24   A    
C5    C6    A    
C36   C37   A    
O7    Zn2   S    
C30   C31   A    
C15   C16   A    
C52   H27   S    
C45   N1    A    
C1    C31   S    
C54   H33   S    
C36   O16   S    
C18   C19   A    
C55   H36   S    
C8    H10   S    
C11   C17   A    
C38   H7    S    
C31   C32   A    
C16   C17   A    
C52   H26   S    
C45   O2    S    
O8    Zn1   S    
C19   C49   S    
C34   O10   A    
C22   H2    S    
C20   C34   S    
C12   O7    A    
C21   C22   A    
C36   C41   A    
C23   O8    A    
C55   H37   S    
C53   H30   S    
O1    Zn1   S    
C7    C8    A    
C39   C40   A    
O14   H18   S    
O13   H14   S    
C44   N1    A    
C25   C26   A    
C51   H24   S    
C8    C48   A    
C37   C38   A    
C47   C48   A    
C50   H21   S    
C43   N4    A    
C32   O14   S    
C52   H25   S    
C51   H23   S    
C1    O1    A    
C27   C51   S    
C20   C21   A    
C53   H32   S    
C37   H6    S    
C40   C41   A    
C12   O6    A    
C12   C14   S    
C49   H16   S    
O9    Zn2   S    
N3    Zn2   S    
C22   C24   A    
C42   C43   A    
C23   O9    A    
C3    C4    A    
C42   N3    A    
C11   C54   S    
C16   C55   S    
C25   C30   A    
C46   C47   A    
C28   C29   A    
C24   N1    S    
N4    Zn1   S    
O5    Zn2   S    
C9    N2    A    
C1    O5    A    
C50   H20   S    
C4    C5    A    
C6    C10   A    
C18   H13   S    
C6    C7    A    
C13   H11   S    
C49   H17   S    
C44   O12   S    
C29   C35   A    
C23   C35   S    
C25   H3    S    
C54   H35   S    
C28   C52   S    
C40   N4    A    
C33   O15   S    
C32   C33   A    
C53   H31   S    
C9    O3    S    
C17   N2    S    
C3    H5    S    
C38   C39   A    
C51   H22   S    
C33   C35   A    
C54   H34   S    
C2    C3    A    
C55   H38   S    
O16   H29   S    
O10   Zn1   S    
C2    O13   S    
C10   O4    S    
C43   H8    S    
C50   H19   S    
C26   C50   S    
C49   H15   S    
C42   H4    S    
C27   C28   A    
C14   C15   A    
O15   H28   S    
C41   N3    A    
C4    C9    A    
C13   C14   A    
C7    H9    S    
O6    Zn1   S    
C44   C48   A    
C34   O11   A    
