data_mof_unit_49506.cif
_audit_creation_date              2012-12-10T17:48:52-0500
_audit_creation_method            fapswitch 2.2
_symmetry_space_group_name_H-M    P1
_symmetry_Int_Tables_number       1
_space_group_crystal_system       triclinic
_cell_length_a                    10.727836
_cell_length_b                    14.695765
_cell_length_c                    14.737284
_cell_angle_alpha                 65.076216
_cell_angle_beta                  103.495565
_cell_angle_gamma                 103.008769
_cell_volume                      2027.5538593

loop_
_atom_site_label
_atom_site_type_symbol
_atom_type_description
_atom_site_fract_x
_atom_site_fract_y
_atom_site_fract_z
_atom_type_partial_charge
C1    C     C_R   0.476928 0.119719 0.312293 0.794243
C2    C     C_3   0.878713 0.998797 0.503047 0.145801
C3    C     C_3   0.918571 0.893217 0.574138 -0.397239
C4    C     C_3   0.965188 0.079224 0.542230 -0.424452
C5    C     C_R   0.458103 0.187263 0.204736 -0.055925
C6    C     C_R   0.521651 0.812746 0.794769 -0.060129
C7    C     C_R   0.410145 0.215374 0.027071 -0.196203
C8    C     C_R   0.425893 0.149134 0.128441 -0.201638
C9    C     C_R   0.471473 0.291749 0.178733 -0.260035
C10   C     C_R   0.451984 0.359905 0.077238 0.089659
C11   C     C_R   0.424606 0.320276 0.000934 0.160931
C12   C     C_R   0.260494 0.998944 0.502577 0.758678
C13   C     C_R   0.463388 0.466330 0.049685 0.064739
C14   C     C_R   0.462386 0.532444 0.946074 0.063301
C15   C     C_R   0.432684 0.489734 0.872124 -0.225492
C16   C     C_R   0.412828 0.385614 0.899356 -0.224934
C17   C     C_R   0.473456 0.508672 0.121939 -0.224023
C18   C     C_R   0.490667 0.612781 0.094504 -0.231021
C19   C     C_R   0.500538 0.678529 0.994745 0.162488
C20   C     C_R   0.488266 0.639135 0.919752 0.090387
C21   C     C_R   0.522009 0.783660 0.968995 -0.203605
C22   C     C_R   0.531203 0.850478 0.869301 -0.194011
C23   C     C_R   0.520380 0.880305 0.687681 0.790856
C24   C     C_R   0.504340 0.708092 0.821029 -0.255019
C25   C     C_R   0.717707 0.285918 0.667044 -0.311957
C26   C     C_R   0.683547 0.203890 0.637951 0.086642
C27   C     C_R   0.518123 0.284848 0.509471 0.055997
C28   C     C_R   0.548589 0.371391 0.534892 -0.018995
C29   C     C_R   0.650413 0.369599 0.616219 0.163658
C30   C     C_R   0.481983 0.458458 0.483675 0.081874
C31   C     C_R   0.518100 0.541654 0.515980 0.076049
C32   C     C_R   0.619317 0.534862 0.598361 -0.239478
C33   C     C_R   0.684111 0.450828 0.646856 -0.191970
C34   C     C_R   0.740251 0.999086 0.501335 0.764121
C35   C     C_R   0.380920 0.465333 0.401177 -0.234892
C36   C     C_R   0.316237 0.549434 0.352602 -0.204413
C37   C     C_R   0.349718 0.630547 0.383430 0.165187
C38   C     C_R   0.451443 0.628691 0.464834 -0.022537
C39   C     C_R   0.282318 0.714179 0.332743 -0.322116
C40   C     C_R   0.316284 0.796087 0.362049 0.072263
C41   C     C_R   0.481835 0.715172 0.490378 0.002773
C42   C     C_3   0.047836 0.028109 0.395300 -0.406496
C43   C     C_3   0.902945 0.024746 0.394761 -0.374352
C44   C     C_3   0.060820 0.891652 0.570895 -0.382544
C45   C     C_3   0.109475 0.078167 0.546261 -0.122430
C46   C     C_3   0.123228 0.999004 0.504960 0.083024
Cu1   Cu    Cu3+1 0.465900 0.918260 0.475680 0.925014
Cu2   Cu    Cu3+1 0.534100 0.081740 0.524320 0.951440
H1    H     H_    0.058127 0.975098 0.362260 0.174683
H2    H     H_    0.944028 0.064671 0.618127 0.155602
H3    H     H_    0.115896 0.864449 0.649012 0.141876
H4    H     H_    0.390151 0.356121 0.840304 0.159064
H5    H     H_    0.505423 0.682236 0.762960 0.147281
H6    H     H_    0.544324 0.931315 0.850440 0.164339
H7    H     H_    0.497415 0.641988 0.152164 0.150803
H8    H     H_    0.387652 0.184652 0.968992 0.144912
H9    H     H_    0.414575 0.068449 0.146980 0.153612
H10   H     H_    0.501098 0.318560 0.239182 0.149872
H11   H     H_    0.419997 0.534567 0.791861 0.148258
H12   H     H_    0.464215 0.463323 0.200227 0.141258
H13   H     H_    0.530234 0.814160 0.025846 0.134687
H14   H     H_    0.761470 0.449312 0.709535 0.142071
H15   H     H_    0.559192 0.721427 0.549699 0.119408
H16   H     H_    0.264990 0.860996 0.322532 0.121354
H17   H     H_    0.239106 0.551068 0.289750 0.142845
H18   H     H_    0.795918 0.283741 0.729290 0.138206
H19   H     H_    0.734793 0.138960 0.677520 0.118290
H20   H     H_    0.872271 0.099425 0.342284 0.153196
H21   H     H_    0.651192 0.593485 0.627725 0.128446
H22   H     H_    0.349164 0.406757 0.371744 0.125883
H23   H     H_    0.204174 0.716414 0.270439 0.137335
H24   H     H_    0.844440 0.966820 0.365916 0.175104
H25   H     H_    0.063567 0.836284 0.538348 0.188368
H26   H     H_    0.855176 0.833007 0.550864 0.174253
H27   H     H_    0.150042 0.155026 0.495351 0.159726
H28   H     H_    0.940888 0.156251 0.490774 0.174907
N1    N     N_R   0.585360 0.204570 0.560800 -0.171962
N2    N     N_R   0.414550 0.795430 0.439160 -0.175853
O1    O     O_R   0.455060 0.022100 0.338110 -0.587380
O2    O     O_R   0.512640 0.160150 0.379180 -0.594071
O3    O     O_R   0.288900 0.930980 0.479450 -0.588968
O4    O     O_R   0.346480 0.069030 0.520520 -0.561565
O5    O     O_R   0.487360 0.839850 0.620820 -0.590376
O6    O     O_R   0.544940 0.977900 0.661890 -0.578459
O7    O     O_R   0.653520 0.930970 0.479480 -0.589596
O8    O     O_R   0.711100 0.069020 0.520550 -0.592803
H29   H     H_    0.906730 0.875608 0.653137 0.148336
H30   H     H_    0.088466 0.105606 0.346225 0.151276
H31   H     H_    0.440671 0.278526 0.450230 0.113249
C47   C     C_2   0.181563 0.058687 0.652763 0.369269
H32   H     H_    0.154940 0.989174 0.715551 0.060967
O9    O     O_2   0.268999 0.121781 0.669285 -0.540924

loop_
_geom_bond_atom_site_label_1
_geom_bond_atom_site_label_2
_ccdc_geom_bond_type
C43   H24   S    
C19   C20   A    
Cu1   O1    S    
C7    C8    A    
C22   H6    S    
C45   C46   S    
C7    C11   A    
C23   O5    A    
C30   C35   A    
C1    C5    S    
C26   H19   S    
Cu1   O7    S    
C28   C29   A    
C19   C21   A    
C9    H10   S    
C34   O8    A    
C30   C31   A    
C15   C16   A    
C6    C22   A    
C29   C33   A    
C18   C19   A    
C42   C46   S    
C3    H26   S    
C20   C24   A    
Cu1   Cu2   S    
C35   H22   S    
C33   H14   S    
Cu1   O5    S    
C9    C10   A    
C21   H13   S    
C2    C34   S    
C21   C22   A    
C7    H8    S    
C44   C46   S    
C4    C45   S    
C25   C29   A    
C3    C44   S    
C26   N1    A    
C23   O6    A    
C3    H29   S    
C14   C20   A    
C38   C41   A    
C12   C46   S    
C41   N2    A    
C36   H17   S    
C43   H20   S    
C17   H12   S    
C25   C26   A    
Cu2   O6    S    
C4    H2    S    
C34   O7    A    
Cu2   N1    S    
C2    C4    S    
C5    C9    A    
C37   C38   A    
C8    H9    S    
C11   C16   A    
C47   O9    D    
C31   C32   A    
C2    C43   S    
C6    C24   A    
C17   C18   A    
C12   O4    A    
C45   C47   S    
C18   H7    S    
C44   H3    S    
C1    O1    A    
C40   N2    A    
C42   H30   S    
C42   C43   S    
C41   H15   S    
C39   C40   A    
C36   C37   A    
C15   H11   S    
C25   H18   S    
C16   H4    S    
C27   N1    A    
C10   C13   A    
C5    C8    A    
C32   H21   S    
C40   H16   S    
C31   C38   A    
C13   C17   A    
C45   H27   S    
C32   C33   A    
Cu2   O2    S    
C28   C30   A    
C2    C3    S    
C24   H5    S    
C37   C39   A    
C47   H32   S    
C6    C23   S    
Cu2   O4    S    
C12   O3    A    
C27   H31   S    
Cu2   O8    S    
Cu1   O3    S    
C44   H25   S    
C4    H28   S    
C10   C11   A    
C42   H1    S    
C27   C28   A    
C1    O2    A    
C39   H23   S    
C14   C15   A    
C35   C36   A    
Cu1   N2    S    
C13   C14   A    
