data_mof_unit_45636.cif
_audit_creation_date              2013-03-05T15:43:41-0500
_audit_creation_method            fapswitch 2.2
_symmetry_space_group_name_H-M    P1
_symmetry_Int_Tables_number       1
_space_group_crystal_system       triclinic
_cell_length_a                    14.918145
_cell_length_b                    10.712029
_cell_length_c                    10.059255
_cell_angle_alpha                 90.107671
_cell_angle_beta                  90.450026
_cell_angle_gamma                 90.180786
_cell_volume                      1607.44468035

loop_
_atom_site_label
_atom_site_type_symbol
_atom_site_description
_atom_site_fract_x
_atom_site_fract_y
_atom_site_fract_z
_atom_type_partial_charge
O1    O     O_R   0.499990 0.319060 0.613040 -0.633060
O2    O     O_R   0.500010 0.319100 0.386900 -0.640598
C1    C     C_R   0.496196 0.262883 0.499721 0.922256
O3    O     O_R   0.367830 0.499950 0.613080 -0.590072
O4    O     O_R   0.367860 0.499990 0.386940 -0.619379
C2    C     C_R   0.327349 0.500055 0.499460 0.877267
Zn1   Zn    Zn3+2 0.499980 0.499970 0.650990 0.958065
Zn2   Zn    Zn3+2 0.500020 0.500030 0.349010 0.947818
O5    O     O_R   0.499990 0.680900 0.613100 -0.620218
O6    O     O_R   0.500010 0.680940 0.386960 -0.618086
O7    O     O_R   0.632140 0.500010 0.613060 -0.625380
O8    O     O_R   0.632170 0.500050 0.386920 -0.613483
C3    C     C_R   0.500734 0.737318 0.499972 0.929477
C4    C     C_R   0.672715 0.496138 0.500529 0.875191
C5    C     C_R   0.812505 0.595151 0.453905 -0.262910
C6    C     C_R   0.768250 0.490737 0.501810 -0.071722
C7    C     C_R   0.814012 0.384310 0.547453 0.038633
C8    C     C_R   0.908404 0.386322 0.544043 0.123252
C9    C     C_R   0.953721 0.494921 0.496679 0.015525
C10   C     C_R   0.905580 0.600128 0.451454 0.012644
C11   C     C_R   0.958883 0.282860 0.587153 -0.224119
C12   C     C_R   0.051274 0.286925 0.587505 -0.216460
C13   C     C_R   0.095544 0.393075 0.542843 0.150626
C14   C     C_R   0.047339 0.497789 0.495032 0.038453
C15   C     C_R   0.093384 0.604691 0.446982 0.065998
C16   C     C_R   0.045339 0.710766 0.401042 0.053683
C17   C     C_R   0.950597 0.707648 0.403800 -0.013754
C18   C     C_R   0.187989 0.395542 0.545571 -0.246217
C19   C     C_R   0.232354 0.499328 0.497871 -0.039216
C20   C     C_R   0.187120 0.602025 0.447607 -0.237665
H1    H     H_    0.772504 0.673097 0.419241 0.145057
H2    H     H_    0.928603 0.197254 0.621395 0.158461
H3    H     H_    0.088259 0.206461 0.622944 0.152662
H4    H     H_    0.225794 0.316354 0.582917 0.133048
H5    H     H_    0.227033 0.679403 0.412538 0.148967
C21   C     C_2   0.484989 0.932481 0.388813 -0.162626
C22   C     C_2   0.504807 0.869448 0.499592 -0.334065
H6    H     H_    0.467928 0.885312 0.296221 0.176223
H7    H     H_    0.526456 0.913469 0.591472 0.145668
C23   C     C_2   0.489728 0.066733 0.386969 -0.157066
C24   C     C_2   0.482612 0.131799 0.499496 -0.335875
H8    H     H_    0.500866 0.111656 0.291723 0.169240
H9    H     H_    0.465374 0.089696 0.593871 0.150280
C25   C     C_2   0.525444 0.594964 0.925060 -0.052893
N1    N     N_2   0.500970 0.501330 0.852150 -0.168060
H10   H     H_    0.541112 0.682953 0.877342 0.146179
H11   H     H_    0.501305 0.414581 0.895702 0.160045
C26   C     C_2   0.537782 0.585927 0.073382 -0.108135
N2    N     N_2   0.500990 0.501360 0.147810 -0.175465
H12   H     H_    0.581524 0.654238 0.120484 0.149255
C27   C     C_2   0.420233 0.440781 0.105468 0.571872
H13   H     H_    0.406914 0.346207 0.138273 0.023734
O9    O     O_2   0.362454 0.496583 0.042664 -0.580736
C28   C     C_3   0.762551 0.269422 0.595675 -0.446541
C29   C     C_3   0.756306 0.169190 0.486693 -0.333921
C30   C     C_3   0.719795 0.046760 0.541897 -0.882856
H14   H     H_    0.768642 0.005655 0.613206 0.252234
H15   H     H_    0.655484 0.062820 0.593769 0.266842
H16   H     H_    0.708125 0.979537 0.459327 0.260594
H17   H     H_    0.710911 0.202543 0.406129 0.231117
H18   H     H_    0.823132 0.151310 0.442649 0.233426
H19   H     H_    0.793707 0.232224 0.687940 0.205357
H20   H     H_    0.693502 0.292044 0.626659 0.219730
C31   C     C_3   0.094663 0.828378 0.355025 -0.387387
C32   C     C_3   0.128558 0.905691 0.474100 -0.379288
C33   C     C_3   0.185498 0.016195 0.428912 -0.862094
H21   H     H_    0.244556 0.982904 0.372516 0.267910
H22   H     H_    0.145144 0.079720 0.365237 0.270426
H23   H     H_    0.209865 0.069198 0.517054 0.243130
H24   H     H_    0.070218 0.941352 0.530694 0.221267
H25   H     H_    0.169455 0.847240 0.542340 0.234428
H26   H     H_    0.150272 0.803268 0.287498 0.204287
H27   H     H_    0.051868 0.889412 0.292878 0.244689
C34   C     C_2   0.897956 0.818242 0.361708 0.348006
H28   H     H_    0.860516 0.870653 0.434846 0.061684
O10   O     O_2   0.893255 0.847510 0.244640 -0.565359

loop_
_geom_bond_atom_site_label_1
_geom_bond_atom_site_label_2
_geom_bond_distance
_ccdc_geom_bond_type
C32   H24   1.112008 S    
O4    Zn2   2.011102 S    
C33   H22   1.110808 S    
C13   C14   1.417160 A    
C14   C15   1.420958 A    
C5    H1    1.084348 S    
C19   C20   1.386590 A    
C10   C17   1.417596 A    
C16   C31   1.531226 S    
C30   H15   1.109449 S    
C8    C11   1.409047 A    
C7    C28   1.530155 S    
C31   H27   1.106232 S    
C3    C22   1.416503 S    
C9    C10   1.412353 A    
C30   H16   1.110596 S    
Zn2   O8    2.005032 S    
C29   C30   1.525784 S    
C31   C32   1.536362 S    
N2    C27   1.428251 S    
C23   H8    1.086674 S    
C7    C8    1.408934 A    
C18   H4    1.086113 S    
C22   H7    1.083344 S    
C25   C26   1.505219 S    
O1    Zn1   1.974452 S    
C29   H17   1.112218 S    
C25   N1    1.291494 D    
C21   H6    1.086875 S    
Zn1   O7    2.011100 S    
C26   H12   1.084716 S    
C24   H9    1.084203 S    
C18   C19   1.380811 A    
C16   C17   1.414155 A    
C5    C10   1.389783 A    
C34   O10   1.220745 D    
C20   H5    1.080409 S    
O3    Zn1   2.005035 S    
Zn1   N1    2.023481 S    
C11   C12   1.378829 A    
C21   C22   1.335669 D    
C11   H2    1.079169 S    
O8    C4    1.289628 A    
C33   H21   1.110992 S    
O2    C1    1.287335 A    
C31   H26   1.109739 S    
O4    C2    1.287282 A    
O7    C4    1.288495 A    
C4    C6    1.426516 S    
C33   H23   1.110122 S    
C13   C18   1.379333 A    
C34   H28   1.084118 S    
C27   H13   1.084306 S    
C17   C34   1.483921 S    
C29   H18   1.111141 S    
C21   C23   1.439781 S    
C2    C19   1.417121 S    
C30   H14   1.111057 S    
O3    C2    1.288470 A    
C8    C9    1.428124 A    
C28   H20   1.106013 S    
N1    H11   1.028109 S    
O2    Zn2   1.975951 S    
C15   C20   1.398726 A    
Zn1   O5    1.975953 S    
C12   H3    1.084206 S    
O5    C3    1.289613 A    
C28   C29   1.535141 S    
C26   N2    1.299343 D    
C23   C24   1.333322 D    
C28   H19   1.109947 S    
O1    C1    1.288759 A    
C15   C16   1.421371 A    
C32   H25   1.110376 S    
C9    C14   1.397069 A    
Zn2   N2    2.024164 S    
Zn2   O6    1.974452 S    
C1    C24   1.418090 S    
C12   C13   1.390247 A    
C5    C6    1.386165 A    
C25   H10   1.084202 S    
C6    C7    1.406609 A    
C27   O9    1.222911 D    
O6    C3    1.286233 A    
C32   C33   1.526790 S    
