data_mof_unit_35615.cif
_audit_creation_date              2012-12-10T18:51:34-0500
_audit_creation_method            fapswitch 2.2
_symmetry_space_group_name_H-M    P1
_symmetry_Int_Tables_number       1
_space_group_crystal_system       triclinic
_cell_length_a                    10.670842
_cell_length_b                    9.853438
_cell_length_c                    10.499366
_cell_angle_alpha                 90.29145
_cell_angle_beta                  90.1906
_cell_angle_gamma                 89.397887
_cell_volume                      1103.86922601

loop_
_atom_site_label
_atom_site_type_symbol
_atom_type_description
_atom_site_fract_x
_atom_site_fract_y
_atom_site_fract_z
_atom_type_partial_charge
C1    C     C_R   0.872216 0.497136 0.501812 -0.420346
C2    C     C_3   0.488346 0.371186 0.039587 -0.135314
C3    C     C_3   0.391915 0.448152 0.956396 -0.186890
C4    C     C_3   0.608086 0.551848 0.043604 -0.186890
C5    C     C_3   0.500821 0.501268 0.877750 0.041347
C6    C     C_3   0.499180 0.498732 0.122250 0.041347
C7    C     C_R   0.420198 0.072399 0.422661 -0.070340
C8    C     C_R   0.579802 0.927601 0.577338 -0.070340
C9    C     C_R   0.579806 0.071415 0.577322 -0.093156
C10   C     C_R   0.420193 0.928585 0.422678 -0.093153
C11   C     C_R   0.065714 0.411877 0.417189 0.369514
C12   C     C_R   0.127785 0.502863 0.498189 -0.420343
C13   C     C_R   0.934286 0.588123 0.582812 0.369517
C14   C     C_R   0.936471 0.404823 0.422900 0.359713
C15   C     C_R   0.063529 0.595175 0.577102 0.359716
C16   C     C_3   0.146645 0.395257 0.218197 -0.281623
C17   C     C_3   0.853354 0.604746 0.781803 -0.281638
C18   C     C_3   0.879223 0.185208 0.390751 -0.198205
C19   C     C_3   0.120774 0.814789 0.609258 -0.198207
C20   C     C_R   0.260219 0.500838 0.500169 1.027781
C21   C     C_R   0.739781 0.499161 0.499831 1.027779
C22   C     C_R   0.499272 0.499591 0.257234 0.860193
C23   C     C_R   0.500728 0.500409 0.742765 0.860194
C24   C     C_3   0.402706 0.575561 0.041758 -0.180658
C25   C     C_3   0.597294 0.424439 0.958241 -0.180659
C26   C     C_3   0.511655 0.628814 0.960413 -0.135314
H1    H     H_    0.356394 0.127208 0.360754 0.158133
H2    H     H_    0.478580 0.266226 0.075970 0.143351
H3    H     H_    0.202327 0.329098 0.153444 0.177969
H4    H     H_    0.198918 0.491524 0.230924 0.124941
H5    H     H_    0.054579 0.415567 0.171566 0.180376
H6    H     H_    0.945418 0.584437 0.828436 0.180378
H7    H     H_    0.797672 0.670905 0.846555 0.177970
H8    H     H_    0.801081 0.508479 0.769077 0.124945
H9    H     H_    0.812341 0.120909 0.337150 0.172040
H10   H     H_    0.974352 0.140675 0.377348 0.179612
H11   H     H_    0.852469 0.180985 0.493140 0.134311
H12   H     H_    0.643606 0.872792 0.639246 0.158132
H13   H     H_    0.025646 0.859320 0.622676 0.179624
H14   H     H_    0.147515 0.819021 0.506867 0.134305
H15   H     H_    0.187661 0.879086 0.662854 0.172039
H16   H     H_    0.643635 0.125448 0.639180 0.121334
H17   H     H_    0.356365 0.874552 0.360820 0.121336
H18   H     H_    0.304019 0.406240 0.916101 0.133699
H19   H     H_    0.695981 0.593760 0.083899 0.133698
H20   H     H_    0.323756 0.637351 0.080199 0.127096
H21   H     H_    0.676245 0.362650 0.919801 0.127096
H22   H     H_    0.521420 0.733774 0.924029 0.143350
N1    N     N_R   0.500000 0.857200 0.500000 -0.079291
N2    N     N_R   0.500000 0.142800 0.500000 -0.079291
O1    O     O_R   0.316770 0.614620 0.499990 -0.610662
O2    O     O_3   0.868472 0.672649 0.665088 -0.588651
O3    O     O_3   0.871888 0.318418 0.342061 -0.582751
O4    O     O_3   0.128113 0.681578 0.657941 -0.582758
O5    O     O_R   0.683230 0.385380 0.500010 -0.610666
O6    O     O_R   0.683230 0.614620 0.500010 -0.591803
O7    O     O_R   0.316770 0.385380 0.499990 -0.591805
O8    O     O_R   0.499970 0.614650 0.313950 -0.638351
O9    O     O_R   0.500030 0.385350 0.686050 -0.638351
O10   O     O_R   0.500030 0.614650 0.686050 -0.615695
O11   O     O_R   0.499970 0.385350 0.313950 -0.615695
O12   O     O_3   0.131528 0.327351 0.334911 -0.588647
Zn1   Zn    Zn3+2 0.500000 0.653120 0.500000 0.962329
Zn2   Zn    Zn3+2 0.500000 0.346880 0.500000 0.962328

loop_
_geom_bond_atom_site_label_1
_geom_bond_atom_site_label_2
_ccdc_geom_bond_type
C22   O8    A    
C21   O6    A    
C4    C26   S    
C11   C12   A    
C1    C21   S    
N1    Zn1   S    
O11   Zn2   S    
C13   O2    S    
N2    Zn2   S    
C18   H9    S    
C25   H21   S    
C7    H1    S    
C5    C23   S    
C12   C15   A    
C26   H22   S    
C11   O12   S    
C6    C24   S    
O5    Zn2   S    
C12   C20   S    
C2    C3    S    
C16   H3    S    
O6    Zn1   S    
C24   H20   S    
C22   O11   A    
C23   O9    A    
C10   H17   S    
C9    H16   S    
C2    C6    S    
C17   H7    S    
C8    H12   S    
O10   Zn1   S    
C5    C25   S    
C19   H13   S    
C17   O2    S    
C18   H11   S    
C24   C26   S    
C4    C25   S    
C20   O1    A    
C4    H19   S    
C13   C15   A    
C23   O10   A    
C11   C14   A    
C3    H18   S    
C1    C13   A    
C17   H8    S    
C16   H4    S    
C5    C26   S    
C6    C22   S    
C15   O4    S    
O9    Zn2   S    
C2    C25   S    
C14   O3    S    
O1    Zn1   S    
C19   O4    S    
O7    Zn2   S    
C4    C6    S    
C19   H14   S    
C7    C10   A    
O8    Zn1   S    
C21   O5    A    
C17   H6    S    
C2    H2    S    
C1    C14   A    
C18   O3    S    
C3    C5    S    
C20   O7    A    
C10   N1    A    
C18   H10   S    
C8    N1    A    
C16   O12   S    
C9    N2    A    
C19   H15   S    
C7    N2    A    
C3    C24   S    
C8    C9    A    
C16   H5    S    
