data_mof_unit_32304.cif
_audit_creation_date              2012-12-10T17:05:17-0500
_audit_creation_method            fapswitch 2.2
_symmetry_space_group_name_H-M    P1
_symmetry_Int_Tables_number       1
_space_group_crystal_system       triclinic
_cell_length_a                    10.073832
_cell_length_b                    10.745468
_cell_length_c                    15.465264
_cell_angle_alpha                 90.477005
_cell_angle_beta                  67.320623
_cell_angle_gamma                 90.197284
_cell_volume                      1544.58557816

loop_
_atom_site_label
_atom_site_type_symbol
_atom_type_description
_atom_site_fract_x
_atom_site_fract_y
_atom_site_fract_z
_atom_type_partial_charge
C1    C     C_R   0.501285 0.737151 0.498387 0.910617
C2    C     C_R   0.736181 0.480910 0.026498 0.141579
C3    C     C_R   0.598557 0.531313 0.081186 0.052462
C4    C     C_R   0.409481 0.500944 0.675898 0.918519
C5    C     C_R   0.831841 0.452331 0.070435 -0.185335
C6    C     C_R   0.788149 0.463904 0.167295 -0.169150
C7    C     C_R   0.556875 0.539701 0.178240 -0.204183
C8    C     C_2   0.610666 0.067263 0.502331 -0.109405
C9    C     C_2   0.492427 0.131457 0.512036 -0.303729
C10   C     C_2   0.606902 0.933392 0.507917 -0.148305
C11   C     C_2   0.506370 0.868707 0.490627 -0.319818
C12   C     C_R   0.424593 0.536690 0.908574 0.029910
C13   C     C_2   0.105196 0.425017 0.448103 0.353957
C14   C     C_2   0.957765 0.431277 0.443453 0.340490
C15   C     C_R   0.498512 0.262863 0.502330 0.978047
C16   C     C_R   0.590594 0.500718 0.323825 0.891673
C17   C     C_R   0.353223 0.520904 0.776670 -0.112404
C18   C     C_R   0.648363 0.503159 0.221542 -0.070126
C19   C     C_R   0.213765 0.649360 0.909332 -0.198660
C20   C     C_R   0.242894 0.607325 0.818477 -0.284158
C21   C     C_R   0.432058 0.474789 0.826322 0.294742
C22   C     C_3   0.918089 0.407292 0.867745 -0.870087
C23   C     C_R   0.306060 0.616886 0.953976 0.124570
C24   C     C_R   0.531596 0.523470 0.946177 0.043667
C25   C     C_R   0.501573 0.563517 0.038846 0.061356
C26   C     C_R   0.377460 0.637066 0.085230 -0.178679
C27   C     C_R   0.283622 0.666005 0.042063 -0.186430
C28   C     C_R   0.671588 0.481697 0.891122 -0.146083
C29   C     C_R   0.773510 0.459300 0.929921 0.141321
Cl1   Cl    Cl    0.225848 0.312196 0.377470 -0.506245
Cl2   Cl    Cl    0.926016 0.338137 0.359191 -0.548395
Cl3   Cl    Cl    0.517090 0.327706 0.792079 -0.624261
H1    H     H_    0.193097 0.726925 0.077842 0.154975
H2    H     H_    0.861334 0.437027 0.199866 0.210869
H3    H     H_    0.125253 0.713330 0.942138 0.160533
H4    H     H_    0.181375 0.643883 0.780336 0.178347
H5    H     H_    0.355235 0.680416 0.152558 0.147319
H6    H     H_    0.704919 0.470932 0.816203 0.191683
H7    H     H_    0.004241 0.469728 0.869809 0.244894
H8    H     H_    0.932544 0.313507 0.892419 0.257287
H9    H     H_    0.929573 0.398297 0.793588 0.248297
H10   H     H_    0.939085 0.417352 0.031162 0.171242
H11   H     H_    0.712510 0.112935 0.490655 0.211515
H12   H     H_    0.387633 0.088806 0.529821 0.161197
H13   H     H_    0.689808 0.887960 0.525036 0.181152
H14   H     H_    0.427563 0.911031 0.468199 0.161984
H15   H     H_    0.080893 0.568737 0.536048 0.105068
H16   H     H_    0.867554 0.547536 0.551829 0.112815
H17   H     H_    0.448944 0.567187 0.222388 0.168839
N1    N     N_2   0.148330 0.498670 0.499030 -0.238725
N2    N     N_2   0.852680 0.498640 0.499000 -0.228716
O1    O     O_R   0.386950 0.680940 0.500010 -0.622664
O2    O     O_R   0.613110 0.680900 0.499990 -0.617440
O3    O     O_R   0.322330 0.500030 0.632270 -0.623312
O4    O     O_R   0.548480 0.499990 0.632240 -0.585041
O5    O     O_R   0.386890 0.319100 0.500010 -0.565477
O6    O     O_R   0.613050 0.319060 0.499990 -0.564605
O7    O     O_R   0.451520 0.500010 0.367760 -0.574641
O8    O     O_R   0.677670 0.499970 0.367730 -0.575416
Zn1   Zn    Zn3+2 0.349000 0.500030 0.500020 0.995108
Zn2   Zn    Zn3+2 0.651000 0.499970 0.499980 1.015455

loop_
_geom_bond_atom_site_label_1
_geom_bond_atom_site_label_2
_ccdc_geom_bond_type
C19   C23   A    
C5    H10   S    
C26   H5    S    
O6    Zn2   S    
C22   C29   S    
C23   C27   A    
C24   C28   A    
C12   C24   A    
C14   N2    D    
N2    Zn2   S    
C8    H11   S    
C28   H6    S    
C14   Cl2   S    
C7    C18   A    
N1    Zn1   S    
C15   O5    A    
C10   H13   S    
C2    C3    A    
C9    C15   S    
C22   H8    S    
C19   H3    S    
C13   C14   S    
C27   H1    S    
C15   O6    A    
C12   C23   A    
C26   C27   A    
C2    C29   A    
C4    C17   S    
O4    Zn2   S    
C8    C10   S    
C28   C29   A    
C21   Cl3   S    
H15   N1    S    
C3    C7    A    
C16   O7    A    
C4    O4    A    
C5    C6    A    
C6    C18   A    
C1    O1    A    
O8    Zn2   S    
C22   H9    S    
C10   C11   D    
C22   H7    S    
O7    Zn1   S    
C13   N1    D    
C2    C5    A    
C6    H2    S    
C13   Cl1   S    
C3    C25   A    
C17   C20   A    
O5    Zn1   S    
C24   C25   A    
C7    H17   S    
C16   C18   S    
C1    O2    A    
C11   H14   S    
O3    Zn1   S    
C1    C11   S    
O1    Zn1   S    
C4    O3    A    
C25   C26   A    
O2    Zn2   S    
C12   C21   A    
H16   N2    S    
C17   C21   A    
C19   C20   A    
C8    C9    D    
C9    H12   S    
C16   O8    A    
C20   H4    S    
