data_mof_unit_42114.cif
_audit_creation_date              2013-03-05T15:52:54-0500
_audit_creation_method            fapswitch 2.2
_symmetry_space_group_name_H-M    P1
_symmetry_Int_Tables_number       1
_space_group_crystal_system       triclinic
_cell_length_a                    15.001208
_cell_length_b                    10.715973
_cell_length_c                    9.930607
_cell_angle_alpha                 89.615956
_cell_angle_beta                  90.084706
_cell_angle_gamma                 91.837416
_cell_volume                      1595.51238307

loop_
_atom_site_label
_atom_site_type_symbol
_atom_site_description
_atom_site_fract_x
_atom_site_fract_y
_atom_site_fract_z
_atom_type_partial_charge
O1    O     O_R   0.500000 0.316780 0.614690 -0.655177
O2    O     O_R   0.499990 0.316750 0.385360 -0.579346
C1    C     C_R   0.511812 0.261673 0.500752 0.900140
O3    O     O_R   0.367850 0.499980 0.614680 -0.648302
O4    O     O_R   0.367840 0.499960 0.385350 -0.648430
C2    C     C_R   0.326739 0.498664 0.499972 0.876803
Zn1   Zn    Zn3+2 0.500010 0.500020 0.653130 0.932178
Zn2   Zn    Zn3+2 0.499990 0.499980 0.346870 0.993445
O5    O     O_R   0.500010 0.683250 0.614640 -0.626276
O6    O     O_R   0.500000 0.683220 0.385310 -0.604968
O7    O     O_R   0.632160 0.500040 0.614650 -0.635229
O8    O     O_R   0.632150 0.500020 0.385320 -0.614341
C3    C     C_R   0.494732 0.740063 0.500226 0.909181
C4    C     C_R   0.673261 0.499571 0.500060 0.893334
C5    C     C_R   0.815233 0.498265 0.622861 -0.256741
C6    C     C_R   0.769198 0.496273 0.500197 -0.073100
C7    C     C_R   0.814768 0.490153 0.377662 -0.229778
C8    C     C_R   0.906897 0.487368 0.376805 0.112269
C9    C     C_R   0.953475 0.490558 0.500345 0.060583
C10   C     C_R   0.907366 0.495470 0.623861 0.119211
C11   C     C_R   0.953078 0.482309 0.254604 -0.206028
C12   C     C_R   0.045692 0.481792 0.254573 -0.210627
C13   C     C_R   0.092369 0.486380 0.376744 0.118342
C14   C     C_R   0.046216 0.490021 0.500318 0.062736
C15   C     C_R   0.092815 0.494364 0.623816 0.117860
C16   C     C_R   0.046615 0.497777 0.746091 -0.211334
C17   C     C_R   0.954013 0.498385 0.746110 -0.210948
C18   C     C_R   0.184620 0.488583 0.377530 -0.253335
C19   C     C_R   0.230700 0.494697 0.500037 -0.068259
C20   C     C_R   0.185036 0.496444 0.622766 -0.259994
H1    H     H_    0.779617 0.502588 0.717628 0.163385
H2    H     H_    0.778785 0.487911 0.282822 0.171080
H3    H     H_    0.917652 0.479532 0.159380 0.145078
H4    H     H_    0.080772 0.478643 0.159337 0.145407
H5    H     H_    0.220300 0.486259 0.282685 0.164812
H6    H     H_    0.221029 0.500404 0.717561 0.169373
H7    H     H_    0.082061 0.500803 0.841299 0.146503
H8    H     H_    0.918959 0.501852 0.841338 0.143929
C21   C     C_R   0.551962 0.114312 0.750879 -0.198584
H9    H     H_    0.592015 0.199967 0.756012 0.182221
C22   C     C_R   0.531444 0.052003 0.870770 -0.139505
H10   H     H_    0.556596 0.090067 0.963676 0.232064
C23   C     C_R   0.477829 0.943293 0.868734 0.317803
C24   C     C_R   0.456290 0.888278 0.745935 -0.197260
H11   H     H_    0.413664 0.804997 0.747232 0.189089
C25   C     C_R   0.490105 0.940454 0.624512 0.044863
C26   C     C_R   0.524319 0.063095 0.626503 0.056552
C27   C     C_R   0.529366 0.129228 0.503375 -0.240217
C28   C     C_R   0.532831 0.063452 0.381700 0.329248
H12   H     H_    0.524949 0.886625 0.289233 0.223280
C29   C     C_R   0.517559 0.936498 0.382675 -0.254483
C30   C     C_R   0.494417 0.874449 0.501977 -0.169176
H13   H     H_    0.604490 0.634276 0.124267 0.143522
C31   C     C_R   0.377495 0.344128 0.140258 -0.082832
H14   H     H_    0.375707 0.335176 0.247010 0.197295
C32   C     C_R   0.317110 0.267423 0.070353 -0.134657
H15   H     H_    0.270225 0.207184 0.124916 0.158693
C33   C     C_R   0.318783 0.265055 0.931029 -0.182259
H16   H     H_    0.272940 0.203411 0.876947 0.159446
C34   C     C_R   0.380107 0.340476 0.860750 -0.162181
H17   H     H_    0.378869 0.331365 0.754108 0.210943
C35   C     C_R   0.440397 0.422149 0.928057 0.159335
C36   C     C_R   0.439758 0.423123 0.072489 0.191765
N1    N     N_R   0.499150 0.498800 0.142780 -0.116962
C37   C     C_R   0.557559 0.573724 0.071041 -0.051451
H18   H     H_    0.603973 0.634961 0.874087 0.149355
C38   C     C_R   0.557299 0.574059 0.928035 -0.092804
N2    N     N_R   0.499120 0.498720 0.857170 -0.129402
Br1   Br    Br    0.436679 0.864826 0.031074 -0.536071
N3    N     N_R   0.548928 0.123933 0.255400 0.211733
O9    O     O_R   0.484577 0.127277 0.168198 -0.411145
O10   O     O_R   0.622754 0.188038 0.234081 -0.411657

loop_
_geom_bond_atom_site_label_1
_geom_bond_atom_site_label_2
_geom_bond_distance
_ccdc_geom_bond_type
O4    Zn2   2.019451 S    
C13   C14   1.411275 A    
C16   H7    1.084220 S    
C5    H1    1.084865 S    
C19   C20   1.399496 A    
C10   C17   1.400373 A    
C31   C32   1.391459 A    
C3    C30   1.440453 S    
H13   C37   1.081784 S    
C22   H10   1.074293 S    
C31   H14   1.064099 S    
C5    C10   1.383403 A    
C26   C27   1.410061 A    
C37   C38   1.420120 A    
C35   N2    1.375704 A    
Zn2   O8    2.018427 S    
N1    C37   1.367097 A    
C2    C19   1.439961 S    
C28   C29   1.372303 A    
C7    C8    1.383368 A    
C33   H16   1.082718 S    
C29   C30   1.393579 A    
C21   C22   1.391153 A    
O1    Zn1   2.002862 S    
C11   C12   1.389502 A    
C14   C15   1.411045 A    
C38   N2    1.367239 A    
Zn1   O7    2.019451 S    
C22   C23   1.394474 A    
C16   C17   1.389377 A    
C35   C36   1.434454 A    
C32   H15   1.082722 S    
Zn2   N1    2.026880 S    
O3    Zn1   2.018426 S    
C5    C6    1.399325 A    
C6    C7    1.399549 A    
Zn2   O6    2.002862 S    
C18   C19   1.399238 A    
O8    C4    1.294881 A    
C9    C14   1.391419 A    
O2    C1    1.299983 A    
C28   N3    1.425281 S    
C23   C24   1.391156 A    
O4    C2    1.295109 A    
C12   H4    1.084229 S    
O7    C4    1.295172 A    
C4    C6    1.440734 S    
O3    C2    1.294494 A    
C11   H3    1.084154 S    
C31   C36   1.409042 A    
C23   Br1   1.907496 S    
C17   H8    1.084153 S    
C33   C34   1.390407 A    
C36   N1    1.377720 A    
C8    C11   1.400472 A    
Zn1   N2    2.026256 S    
C25   C30   1.414177 A    
C1    C27   1.451838 S    
C21   H9    1.082265 S    
N3    O9    1.297074 A    
H18   C38   1.081800 S    
C24   H11   1.081094 S    
C34   C35   1.409260 A    
C8    C9    1.411017 A    
C25   C26   1.395717 A    
C15   C20   1.382946 A    
Zn1   O5    1.997828 S    
C7    H2    1.084873 S    
O5    C3    1.288963 A    
C12   C13   1.400264 A    
C27   C28   1.404812 A    
N3    O10   1.301214 A    
C24   C25   1.413684 A    
H12   C29   1.081543 S    
C15   C16   1.400289 A    
C13   C18   1.383320 A    
C21   C26   1.411272 A    
O2    Zn2   1.997828 S    
C9    C10   1.411188 A    
C18   H5    1.084839 S    
C32   C33   1.384253 A    
C34   H17   1.064244 S    
O1    C1    1.294834 A    
O6    C3    1.300871 A    
C20   H6    1.084942 S    
